# generated using pymatgen
data_Mn(NbS2)2
_symmetry_space_group_name_H-M   'P 1'
_cell_length_a   3.44489408
_cell_length_b   6.05339098
_cell_length_c   6.48133326
_cell_angle_alpha   115.22553253
_cell_angle_beta   105.41181946
_cell_angle_gamma   90.00000000
_symmetry_Int_Tables_number   1
_chemical_formula_structural   Mn(NbS2)2
_chemical_formula_sum   'Mn1 Nb2 S4'
_cell_volume   116.87323561
_cell_formula_units_Z   1
loop_
 _symmetry_equiv_pos_site_id
 _symmetry_equiv_pos_as_xyz
  1  'x, y, z'
loop_
 _atom_site_type_symbol
 _atom_site_label
 _atom_site_symmetry_multiplicity
 _atom_site_fract_x
 _atom_site_fract_y
 _atom_site_fract_z
 _atom_site_occupancy
  Nb  Nb0  1  0.25484197  0.31171900  0.50968297  1
  Nb  Nb1  1  0.00798600  0.00726900  0.01597100  1
  Mn  Mn2  1  0.73685793  0.68474600  0.47371595  1
  S  S3  1  0.63939992  0.97387500  0.27880094  1
  S  S4  1  0.36462599  0.01032200  0.72925198  1
  S  S5  1  0.89267593  0.56491100  0.78535194  1
  S  S6  1  0.10361297  0.44715800  0.20722598  1
