# generated using pymatgen
data_Ca10Ag3
_symmetry_space_group_name_H-M   'P 1'
_cell_length_a   5.20377398
_cell_length_b   8.91576385
_cell_length_c   8.91576385
_cell_angle_alpha   85.11450195
_cell_angle_beta   73.03245544
_cell_angle_gamma   73.03245544
_symmetry_Int_Tables_number   1
_chemical_formula_structural   Ca10Ag3
_chemical_formula_sum   'Ca10 Ag3'
_cell_volume   378.42379999
_cell_formula_units_Z   1
loop_
 _symmetry_equiv_pos_site_id
 _symmetry_equiv_pos_as_xyz
  1  'x, y, z'
loop_
 _atom_site_type_symbol
 _atom_site_label
 _atom_site_symmetry_multiplicity
 _atom_site_fract_x
 _atom_site_fract_y
 _atom_site_fract_z
 _atom_site_occupancy
  Ca  Ca0  1  0.09625701  0.27760500  0.52987999  1
  Ca  Ca1  1  0.90374302  0.72239499  0.47011999  1
  Ca  Ca2  1  0.62613801  0.47012000  0.27760399  1
  Ca  Ca3  1  0.37386201  0.52988000  0.72239599  1
  Ca  Ca4  1  0.00000000  0.00000000  0.00000000  1
  Ca  Ca5  1  0.38874502  0.92709299  0.29541699  1
  Ca  Ca6  1  0.61125500  0.07290700  0.70458300  1
  Ca  Ca7  1  0.68416202  0.70458299  0.92709299  1
  Ca  Ca8  1  0.31583801  0.29541700  0.07290700  1
  Ca  Ca9  1  0.23272502  0.88064699  0.65390198  1
  Ag  Ag10  1  0.76727500  0.11935300  0.34609800  1
  Ag  Ag11  1  0.88662801  0.34609800  0.88064599  1
  Ag  Ag12  1  0.11337201  0.65390199  0.11935399  1
