# generated using pymatgen
data_PrZnAu
_symmetry_space_group_name_H-M   'P 1'
_cell_length_a   4.59273195
_cell_length_b   4.59273243
_cell_length_c   16.41239357
_cell_angle_alpha   90.00000000
_cell_angle_beta   90.00000000
_cell_angle_gamma   120.00000000
_symmetry_Int_Tables_number   1
_chemical_formula_structural   PrZnAu
_chemical_formula_sum   'Pr4 Zn4 Au4'
_cell_volume   299.80909133
_cell_formula_units_Z   4
loop_
 _symmetry_equiv_pos_site_id
 _symmetry_equiv_pos_as_xyz
  1  'x, y, z'
loop_
 _atom_site_type_symbol
 _atom_site_label
 _atom_site_symmetry_multiplicity
 _atom_site_fract_x
 _atom_site_fract_y
 _atom_site_fract_z
 _atom_site_occupancy
  Pr  Pr0  1  0.00000000  0.00000000  0.50000001  1
  Pr  Pr1  1  0.00000000  0.00000000  0.00000000  1
  Pr  Pr2  1  0.00000000  0.00000000  0.75000002  1
  Pr  Pr3  1  0.00000000  0.00000000  0.25000001  1
  Zn  Zn4  1  0.66666669  0.33333334  0.65639702  1
  Zn  Zn5  1  0.33333337  0.66666667  0.34360301  1
  Zn  Zn6  1  0.33333337  0.66666667  0.15639700  1
  Zn  Zn7  1  0.66666669  0.33333334  0.84360302  1
  Au  Au8  1  0.66666669  0.33333334  0.11503500  1
  Au  Au9  1  0.33333337  0.66666667  0.88496502  1
  Au  Au10  1  0.33333337  0.66666667  0.61503502  1
  Au  Au11  1  0.66666669  0.33333334  0.38496501  1
