# generated using pymatgen
data_BaScO3
_symmetry_space_group_name_H-M   'P 1'
_cell_length_a   6.13986969
_cell_length_b   6.13986969
_cell_length_c   6.13986969
_cell_angle_alpha   60.00000000
_cell_angle_beta   60.00000000
_cell_angle_gamma   60.00000000
_symmetry_Int_Tables_number   1
_chemical_formula_structural   BaScO3
_chemical_formula_sum   'Ba2 Sc2 O6'
_cell_volume   163.66750579
_cell_formula_units_Z   2
loop_
 _symmetry_equiv_pos_site_id
 _symmetry_equiv_pos_as_xyz
  1  'x, y, z'
loop_
 _atom_site_type_symbol
 _atom_site_label
 _atom_site_symmetry_multiplicity
 _atom_site_fract_x
 _atom_site_fract_y
 _atom_site_fract_z
 _atom_site_occupancy
  Ba  Ba0  1  0.75000001  0.75000001  0.75000001  1
  Ba  Ba1  1  0.25000000  0.25000000  0.25000000  1
  Sc  Sc2  1  0.00000000  0.00000000  0.00000000  1
  Sc  Sc3  1  0.50000001  0.50000001  0.50000001  1
  O  O4  1  0.25677174  0.74322827  0.25677174  1
  O  O5  1  0.74322827  0.25677174  0.74322827  1
  O  O6  1  0.74322827  0.25677174  0.25677174  1
  O  O7  1  0.25677174  0.74322827  0.74322827  1
  O  O8  1  0.74322827  0.74322827  0.25677174  1
  O  O9  1  0.25677174  0.25677174  0.74322827  1
