# generated using pymatgen
data_Sr2Cu2WO3
_symmetry_space_group_name_H-M   'P 1'
_cell_length_a   3.93371391
_cell_length_b   3.93371391
_cell_length_c   9.82760239
_cell_angle_alpha   90.00000000
_cell_angle_beta   90.00000000
_cell_angle_gamma   90.00000000
_symmetry_Int_Tables_number   1
_chemical_formula_structural   Sr2Cu2WO3
_chemical_formula_sum   'Sr2 Cu2 W1 O3'
_cell_volume   152.07335269
_cell_formula_units_Z   1
loop_
 _symmetry_equiv_pos_site_id
 _symmetry_equiv_pos_as_xyz
  1  'x, y, z'
loop_
 _atom_site_type_symbol
 _atom_site_label
 _atom_site_symmetry_multiplicity
 _atom_site_fract_x
 _atom_site_fract_y
 _atom_site_fract_z
 _atom_site_occupancy
  Sr  Sr0  1  0.50000001  0.50000001  0.69559697  1
  Sr  Sr1  1  0.50000001  0.50000001  0.30440299  1
  Cu  Cu2  1  0.00000000  0.00000000  0.49999998  1
  Cu  Cu3  1  0.00000000  0.00000000  0.00000000  1
  O  O4  1  0.00000000  0.00000000  0.79497097  1
  W  W5  1  0.00000000  0.00000000  0.20502899  1
  O  O6  1  0.00000000  0.50000001  0.49999998  1
  O  O7  1  0.50000001  0.00000000  0.49999998  1
