# generated using pymatgen
data_Na2CuO4
_symmetry_space_group_name_H-M   'P 1'
_cell_length_a   5.47871494
_cell_length_b   5.48364401
_cell_length_c   6.52028275
_cell_angle_alpha   65.13342285
_cell_angle_beta   90.00000000
_cell_angle_gamma   90.00000000
_symmetry_Int_Tables_number   1
_chemical_formula_structural   Na2CuO4
_chemical_formula_sum   'Na4 Cu2 O8'
_cell_volume   177.72980139
_cell_formula_units_Z   2
loop_
 _symmetry_equiv_pos_site_id
 _symmetry_equiv_pos_as_xyz
  1  'x, y, z'
loop_
 _atom_site_type_symbol
 _atom_site_label
 _atom_site_symmetry_multiplicity
 _atom_site_fract_x
 _atom_site_fract_y
 _atom_site_fract_z
 _atom_site_occupancy
  Na  Na0  1  0.00000000  0.65495101  0.69009799  1
  Na  Na1  1  0.00000000  0.34504900  0.30990200  1
  Na  Na2  1  0.50000001  0.84504901  0.30990198  1
  Na  Na3  1  0.50000001  0.15495100  0.69009801  1
  Cu  Cu4  1  0.00000000  0.00000000  0.00000000  1
  Cu  Cu5  1  0.50000001  0.50000000  -0.00000001  1
  O  O6  1  0.80457401  0.30502700  1.00000001  1
  O  O7  1  0.75000001  0.98926801  0.49999998  1
  O  O8  1  0.75000001  0.48926800  0.50000000  1
  O  O9  1  0.69542601  0.80502701  -0.00000002  1
  O  O10  1  0.30457400  0.19497300  -0.00000000  1
  O  O11  1  0.25000000  0.51073200  0.49999999  1
  O  O12  1  0.25000000  0.01073200  0.50000001  1
  O  O13  1  0.19542600  0.69497301  1.00000000  1
