# generated using pymatgen
data_RbYbH4
_symmetry_space_group_name_H-M   'P 1'
_cell_length_a   3.89147997
_cell_length_b   4.27968025
_cell_length_c   6.98268318
_cell_angle_alpha   81.15156555
_cell_angle_beta   73.82022095
_cell_angle_gamma   62.95783234
_symmetry_Int_Tables_number   1
_chemical_formula_structural   RbYbH4
_chemical_formula_sum   'Rb1 Yb1 H4'
_cell_volume   99.42516460
_cell_formula_units_Z   1
loop_
 _symmetry_equiv_pos_site_id
 _symmetry_equiv_pos_as_xyz
  1  'x, y, z'
loop_
 _atom_site_type_symbol
 _atom_site_label
 _atom_site_symmetry_multiplicity
 _atom_site_fract_x
 _atom_site_fract_y
 _atom_site_fract_z
 _atom_site_occupancy
  Yb  Yb0  1  0.50000000  0.49999999  0.49999999  1
  Rb  Rb1  1  0.00000000  0.00000000  0.00000000  1
  H  H2  1  0.79835200  0.60010299  0.80319298  1
  H  H3  1  0.30111300  0.10222800  0.29554600  1
  H  H4  1  0.20164800  0.39989699  0.19680699  1
  H  H5  1  0.69888701  0.89777199  0.70445398  1
