# generated using pymatgen
data_Ac3Mg
_symmetry_space_group_name_H-M   'P 1'
_cell_length_a   6.24126482
_cell_length_b   7.56386805
_cell_length_c   7.56386709
_cell_angle_alpha   120.00000000
_cell_angle_beta   90.00000000
_cell_angle_gamma   90.00000000
_symmetry_Int_Tables_number   1
_chemical_formula_structural   Ac3Mg
_chemical_formula_sum   'Ac6 Mg2'
_cell_volume   309.23673192
_cell_formula_units_Z   2
loop_
 _symmetry_equiv_pos_site_id
 _symmetry_equiv_pos_as_xyz
  1  'x, y, z'
loop_
 _atom_site_type_symbol
 _atom_site_label
 _atom_site_symmetry_multiplicity
 _atom_site_fract_x
 _atom_site_fract_y
 _atom_site_fract_z
 _atom_site_occupancy
  Ac  Ac0  1  0.25000001  0.66666664  0.33333330  1
  Ac  Ac1  1  0.75000002  0.33333332  0.66666666  1
  Ac  Ac2  1  0.75000002  0.83659397  0.16340695  1
  Ac  Ac3  1  0.75000002  0.32681299  0.16340698  1
  Ac  Ac4  1  0.75000002  0.83659397  0.67318796  1
  Ac  Ac5  1  0.25000001  0.16340599  0.83659301  1
  Mg  Mg6  1  0.25000001  0.67318697  0.83659298  1
  Mg  Mg7  1  0.25000001  0.16340599  0.32681200  1
