# generated using pymatgen
data_LaFe2SiC
_symmetry_space_group_name_H-M   'P 1'
_cell_length_a   3.99733210
_cell_length_b   5.90842915
_cell_length_c   7.21921778
_cell_angle_alpha   90.00000000
_cell_angle_beta   90.00000000
_cell_angle_gamma   109.77172852
_symmetry_Int_Tables_number   1
_chemical_formula_structural   LaFe2SiC
_chemical_formula_sum   'La2 Fe4 Si2 C2'
_cell_volume   160.45161339
_cell_formula_units_Z   2
loop_
 _symmetry_equiv_pos_site_id
 _symmetry_equiv_pos_as_xyz
  1  'x, y, z'
loop_
 _atom_site_type_symbol
 _atom_site_label
 _atom_site_symmetry_multiplicity
 _atom_site_fract_x
 _atom_site_fract_y
 _atom_site_fract_z
 _atom_site_occupancy
  La  La0  1  0.45102991  0.90205996  0.75000002  1
  La  La1  1  0.54896998  0.09794000  0.25000001  1
  Fe  Fe2  1  0.72988594  0.45977198  0.75000002  1
  Fe  Fe3  1  0.27011394  0.54022798  0.25000001  1
  Fe  Fe4  1  0.16627197  0.33254399  0.93982003  1
  Fe  Fe5  1  0.83372792  0.66745597  0.06018000  1
  Si  Si6  1  0.83372792  0.66745597  0.43982001  1
  Si  Si7  1  0.16627197  0.33254399  0.56018002  1
  C  C8  1  0.00000000  0.00000000  0.00000000  1
  C  C9  1  0.00000000  0.00000000  0.50000002  1
