# generated using pymatgen
data_Al3Si2Ni3
_symmetry_space_group_name_H-M   'P 1'
_cell_length_a   2.91769600
_cell_length_b   2.91769600
_cell_length_c   11.90718555
_cell_angle_alpha   90.00000000
_cell_angle_beta   90.00000000
_cell_angle_gamma   90.00000000
_symmetry_Int_Tables_number   1
_chemical_formula_structural   Al3Si2Ni3
_chemical_formula_sum   'Al3 Si2 Ni3'
_cell_volume   101.36527459
_cell_formula_units_Z   1
loop_
 _symmetry_equiv_pos_site_id
 _symmetry_equiv_pos_as_xyz
  1  'x, y, z'
loop_
 _atom_site_type_symbol
 _atom_site_label
 _atom_site_symmetry_multiplicity
 _atom_site_fract_x
 _atom_site_fract_y
 _atom_site_fract_z
 _atom_site_occupancy
  Al  Al0  1  0.00000000  0.00000000  0.85752403  1
  Al  Al1  1  0.00000000  0.00000000  0.14247601  1
  Al  Al2  1  0.00000000  0.00000000  0.38097901  1
  Ni  Ni3  1  0.00000000  0.00000000  0.61902102  1
  Ni  Ni4  1  0.50000000  0.50000000  0.26272501  1
  Ni  Ni5  1  0.50000000  0.50000000  0.50000002  1
  Si  Si6  1  0.50000000  0.50000000  0.73727503  1
  Si  Si7  1  0.50000000  0.50000000  0.00000000  1
