# generated using pymatgen
data_Hf3(GaNi2)2
_symmetry_space_group_name_H-M   'P 1'
_cell_length_a   3.32229710
_cell_length_b   6.65052605
_cell_length_c   6.65052557
_cell_angle_alpha   120.00000000
_cell_angle_beta   90.00000000
_cell_angle_gamma   90.00000000
_symmetry_Int_Tables_number   1
_chemical_formula_structural   Hf3(GaNi2)2
_chemical_formula_sum   'Hf3 Ga2 Ni4'
_cell_volume   127.25681944
_cell_formula_units_Z   1
loop_
 _symmetry_equiv_pos_site_id
 _symmetry_equiv_pos_as_xyz
  1  'x, y, z'
loop_
 _atom_site_type_symbol
 _atom_site_label
 _atom_site_symmetry_multiplicity
 _atom_site_fract_x
 _atom_site_fract_y
 _atom_site_fract_z
 _atom_site_occupancy
  Hf  Hf0  1  0.49999999  0.00000000  0.59539600  1
  Hf  Hf1  1  0.49999999  0.40460399  0.40460399  1
  Hf  Hf2  1  0.49999999  0.59539598  -0.00000002  1
  Ga  Ga3  1  0.99999997  0.25361199  0.99999999  1
  Ga  Ga4  1  -0.00000000  0.74638798  0.74638797  1
  Ni  Ni5  1  0.99999997  0.99999997  0.25361196  1
  Ni  Ni6  1  0.49999999  0.00000000  -0.00000000  1
  Ni  Ni7  1  -0.00000000  0.33333332  0.66666666  1
  Ni  Ni8  1  -0.00000000  0.66666665  0.33333331  1
