# generated using pymatgen
data_ScNi3
_symmetry_space_group_name_H-M   'P 1'
_cell_length_a   4.85464191
_cell_length_b   4.85464191
_cell_length_c   7.56431723
_cell_angle_alpha   90.00000000
_cell_angle_beta   90.00000000
_cell_angle_gamma   120.00000000
_symmetry_Int_Tables_number   1
_chemical_formula_structural   ScNi3
_chemical_formula_sum   'Sc3 Ni9'
_cell_volume   154.38843603
_cell_formula_units_Z   3
loop_
 _symmetry_equiv_pos_site_id
 _symmetry_equiv_pos_as_xyz
  1  'x, y, z'
loop_
 _atom_site_type_symbol
 _atom_site_label
 _atom_site_symmetry_multiplicity
 _atom_site_fract_x
 _atom_site_fract_y
 _atom_site_fract_z
 _atom_site_occupancy
  Sc  Sc0  1  0.66666667  0.33333332  0.55952998  1
  Sc  Sc1  1  0.33333332  0.66666663  0.44046999  1
  Sc  Sc2  1  0.33333332  0.66666663  0.05953000  1
  Ni  Ni3  1  0.66666667  0.33333332  0.94046997  1
  Ni  Ni4  1  0.16953599  0.33907198  0.74999998  1
  Ni  Ni5  1  0.16953597  0.83046496  0.74999998  1
  Ni  Ni6  1  0.66092898  0.83046496  0.74999998  1
  Ni  Ni7  1  0.83046399  0.66092796  0.24999999  1
  Ni  Ni8  1  0.83046401  0.16953499  0.24999999  1
  Ni  Ni9  1  0.33907100  0.16953499  0.24999999  1
  Ni  Ni10  1  0.00000000  0.00000000  0.49999999  1
  Ni  Ni11  1  0.00000000  0.00000000  0.00000000  1
