# generated using pymatgen
data_LiMgAg4
_symmetry_space_group_name_H-M   'P 1'
_cell_length_a   4.98241615
_cell_length_b   5.47308207
_cell_length_c   5.47308111
_cell_angle_alpha   120.00000763
_cell_angle_beta   90.00000000
_cell_angle_gamma   90.00000000
_symmetry_Int_Tables_number   1
_chemical_formula_structural   LiMgAg4
_chemical_formula_sum   'Li1 Mg1 Ag4'
_cell_volume   129.25115773
_cell_formula_units_Z   1
loop_
 _symmetry_equiv_pos_site_id
 _symmetry_equiv_pos_as_xyz
  1  'x, y, z'
loop_
 _atom_site_type_symbol
 _atom_site_label
 _atom_site_symmetry_multiplicity
 _atom_site_fract_x
 _atom_site_fract_y
 _atom_site_fract_z
 _atom_site_occupancy
  Li  Li0  1  0.49999998  0.33333334  0.66666668  1
  Mg  Mg1  1  0.49999998  0.66666667  0.33333336  1
  Ag  Ag2  1  0.99999997  0.33663200  0.33663201  1
  Ag  Ag3  1  -0.00000000  0.66336801  1.00000002  1
  Ag  Ag4  1  0.00000000  0.00000000  0.66336800  1
  Ag  Ag5  1  0.49999998  0.00000000  -0.00000000  1
