# generated using pymatgen
data_Ce3CuO5
_symmetry_space_group_name_H-M   'P 1'
_cell_length_a   3.37677193
_cell_length_b   5.91232967
_cell_length_c   13.64742565
_cell_angle_alpha   90.00000000
_cell_angle_beta   90.00000000
_cell_angle_gamma   106.59294128
_symmetry_Int_Tables_number   1
_chemical_formula_structural   Ce3CuO5
_chemical_formula_sum   'Ce6 Cu2 O10'
_cell_volume   261.11918011
_cell_formula_units_Z   2
loop_
 _symmetry_equiv_pos_site_id
 _symmetry_equiv_pos_as_xyz
  1  'x, y, z'
loop_
 _atom_site_type_symbol
 _atom_site_label
 _atom_site_symmetry_multiplicity
 _atom_site_fract_x
 _atom_site_fract_y
 _atom_site_fract_z
 _atom_site_occupancy
  Ce  Ce0  1  0.27095497  0.54191000  0.88674202  1
  Ce  Ce1  1  0.72904498  0.45809000  0.11325800  1
  Ce  Ce2  1  0.72904498  0.45809000  0.38674201  1
  Ce  Ce3  1  0.27095497  0.54191000  0.61325802  1
  Ce  Ce4  1  0.52765601  0.05531200  0.75000002  1
  Ce  Ce5  1  0.47234394  0.94468799  0.25000001  1
  Cu  Cu6  1  0.00000000  0.00000000  0.00000000  1
  Cu  Cu7  1  0.00000000  0.00000000  0.50000001  1
  O  O8  1  0.08426199  0.16852400  0.35517901  1
  O  O9  1  0.91573796  0.83147599  0.64482102  1
  O  O10  1  0.91573796  0.83147599  0.85517902  1
  O  O11  1  0.08426199  0.16852400  0.14482100  1
  O  O12  1  0.36097696  0.72195399  0.45229801  1
  O  O13  1  0.63902299  0.27804600  0.54770201  1
  O  O14  1  0.63902299  0.27804600  0.95229802  1
  O  O15  1  0.36097696  0.72195399  0.04770200  1
  O  O16  1  0.16648998  0.33298000  0.75000002  1
  O  O17  1  0.83350997  0.66702000  0.25000001  1
