# generated using pymatgen
data_Mg6AlNi6
_symmetry_space_group_name_H-M   'P 1'
_cell_length_a   5.11413527
_cell_length_b   5.11413479
_cell_length_c   8.12007523
_cell_angle_alpha   90.00000000
_cell_angle_beta   90.00000000
_cell_angle_gamma   120.00000000
_symmetry_Int_Tables_number   1
_chemical_formula_structural   Mg6AlNi6
_chemical_formula_sum   'Mg6 Al1 Ni6'
_cell_volume   183.92258622
_cell_formula_units_Z   1
loop_
 _symmetry_equiv_pos_site_id
 _symmetry_equiv_pos_as_xyz
  1  'x, y, z'
loop_
 _atom_site_type_symbol
 _atom_site_label
 _atom_site_symmetry_multiplicity
 _atom_site_fract_x
 _atom_site_fract_y
 _atom_site_fract_z
 _atom_site_occupancy
  Mg  Mg0  1  0.00000000  0.00000000  0.00000000  1
  Mg  Mg1  1  0.50000001  0.00000000  0.25020599  1
  Mg  Mg2  1  0.49999999  0.50000000  0.25020599  1
  Mg  Mg3  1  -0.00000002  0.50000000  0.25020599  1
  Mg  Mg4  1  0.50000001  0.00000000  0.74979398  1
  Mg  Mg5  1  0.49999999  0.50000000  0.74979398  1
  Al  Al6  1  -0.00000002  0.50000000  0.74979398  1
  Ni  Ni7  1  0.33333332  0.66666667  -0.00000000  1
  Ni  Ni8  1  0.66666667  0.33333333  -0.00000000  1
  Ni  Ni9  1  0.33333332  0.66666667  0.49999999  1
  Ni  Ni10  1  0.66666667  0.33333333  0.49999999  1
  Ni  Ni11  1  0.00000000  0.00000000  0.34615799  1
  Ni  Ni12  1  0.00000000  0.00000000  0.65384198  1
