# generated using pymatgen
data_FeCu15
_symmetry_space_group_name_H-M   'P 1'
_cell_length_a   4.93352604
_cell_length_b   4.94285297
_cell_length_c   9.80322647
_cell_angle_alpha   90.00000000
_cell_angle_beta   90.00000000
_cell_angle_gamma   90.00000000
_symmetry_Int_Tables_number   1
_chemical_formula_structural   FeCu15
_chemical_formula_sum   'Fe1 Cu15'
_cell_volume   239.05847951
_cell_formula_units_Z   1
loop_
 _symmetry_equiv_pos_site_id
 _symmetry_equiv_pos_as_xyz
  1  'x, y, z'
loop_
 _atom_site_type_symbol
 _atom_site_label
 _atom_site_symmetry_multiplicity
 _atom_site_fract_x
 _atom_site_fract_y
 _atom_site_fract_z
 _atom_site_occupancy
  Fe  Fe0  1  0.50000000  0.50000000  0.49999998  1
  Cu  Cu1  1  0.50000000  0.00000000  0.61555097  1
  Cu  Cu2  1  0.50000000  0.00000000  0.12554399  1
  Cu  Cu3  1  0.74444299  0.50000000  0.25874199  1
  Cu  Cu4  1  0.74444299  0.50000000  0.74125796  1
  Cu  Cu5  1  0.00000000  0.73014700  0.49999998  1
  Cu  Cu6  1  0.00000000  0.75046800  0.00000000  1
  Cu  Cu7  1  0.50000000  0.00000000  0.38444898  1
  Cu  Cu8  1  0.50000000  0.00000000  0.87445596  1
  Cu  Cu9  1  0.25555700  0.50000000  0.25874199  1
  Cu  Cu10  1  0.25555700  0.50000000  0.74125796  1
  Cu  Cu11  1  0.00000000  0.26985300  0.49999998  1
  Cu  Cu12  1  0.00000000  0.24953200  0.00000000  1
  Cu  Cu13  1  0.50000000  0.50000000  0.00000000  1
  Cu  Cu14  1  0.00000000  0.00000000  0.25073899  1
  Cu  Cu15  1  0.00000000  0.00000000  0.74926096  1
