# generated using pymatgen
data_Eu2Sc4O7
_symmetry_space_group_name_H-M   'P 1'
_cell_length_a   5.73780203
_cell_length_b   5.73780155
_cell_length_c   7.46154785
_cell_angle_alpha   90.00000000
_cell_angle_beta   90.00000000
_cell_angle_gamma   120.00000000
_symmetry_Int_Tables_number   1
_chemical_formula_structural   Eu2Sc4O7
_chemical_formula_sum   'Eu2 Sc4 O7'
_cell_volume   212.74072920
_cell_formula_units_Z   1
loop_
 _symmetry_equiv_pos_site_id
 _symmetry_equiv_pos_as_xyz
  1  'x, y, z'
loop_
 _atom_site_type_symbol
 _atom_site_label
 _atom_site_symmetry_multiplicity
 _atom_site_fract_x
 _atom_site_fract_y
 _atom_site_fract_z
 _atom_site_occupancy
  Eu  Eu0  1  0.66666665  0.33333334  -0.00000000  1
  Eu  Eu1  1  0.33333331  0.66666668  -0.00000000  1
  Sc  Sc2  1  0.00000000  0.00000000  0.27613401  1
  Sc  Sc3  1  0.33333331  0.66666668  0.50000001  1
  Sc  Sc4  1  0.00000000  0.00000000  0.72386601  1
  Sc  Sc5  1  0.66666665  0.33333334  0.50000001  1
  O  O6  1  0.64223698  0.64223701  0.33475901  1
  O  O7  1  0.35776297  1.00000002  0.33475901  1
  O  O8  1  0.64223700  0.00000000  0.66524101  1
  O  O9  1  -0.00000002  0.64223701  0.66524101  1
  O  O10  1  -0.00000001  0.35776301  0.33475901  1
  O  O11  1  0.00000000  0.00000000  0.00000000  1
  O  O12  1  0.35776299  0.35776301  0.66524101  1
