# generated using pymatgen
data_CeGa2
_symmetry_space_group_name_H-M   'P 1'
_cell_length_a   5.19350719
_cell_length_b   5.35070992
_cell_length_c   5.30513382
_cell_angle_alpha   60.28136826
_cell_angle_beta   90.00000000
_cell_angle_gamma   119.03279114
_symmetry_Int_Tables_number   1
_chemical_formula_structural   CeGa2
_chemical_formula_sum   'Ce2 Ga4'
_cell_volume   106.17758266
_cell_formula_units_Z   2
loop_
 _symmetry_equiv_pos_site_id
 _symmetry_equiv_pos_as_xyz
  1  'x, y, z'
loop_
 _atom_site_type_symbol
 _atom_site_label
 _atom_site_symmetry_multiplicity
 _atom_site_fract_x
 _atom_site_fract_y
 _atom_site_fract_z
 _atom_site_occupancy
  Ce  Ce0  1  0.75246698  0.50493401  0.74753297  1
  Ce  Ce1  1  0.99753298  0.99506602  0.00246699  1
  Ga  Ga2  1  0.37500000  0.75000002  0.37499998  1
  Ga  Ga3  1  0.37500000  0.75000002  0.87499997  1
  Ga  Ga4  1  0.37499999  0.25000001  0.37499999  1
  Ga  Ga5  1  0.87499997  0.25000001  0.37499999  1
