# generated using pymatgen
data_NaAg2
_symmetry_space_group_name_H-M   'P 1'
_cell_length_a   4.31457376
_cell_length_b   4.31457376
_cell_length_c   8.93712139
_cell_angle_alpha   103.96829987
_cell_angle_beta   103.96829987
_cell_angle_gamma   90.00000000
_symmetry_Int_Tables_number   1
_chemical_formula_structural   NaAg2
_chemical_formula_sum   'Na2 Ag4'
_cell_volume   156.37542654
_cell_formula_units_Z   2
loop_
 _symmetry_equiv_pos_site_id
 _symmetry_equiv_pos_as_xyz
  1  'x, y, z'
loop_
 _atom_site_type_symbol
 _atom_site_label
 _atom_site_symmetry_multiplicity
 _atom_site_fract_x
 _atom_site_fract_y
 _atom_site_fract_z
 _atom_site_occupancy
  Na  Na0  1  0.67586005  0.67586004  0.35172003  1
  Na  Na1  1  0.32414003  0.32414002  0.64828003  1
  Ag  Ag2  1  0.00000001  0.50000003  0.00000001  1
  Ag  Ag3  1  0.50000003  0.00000000  0.00000001  1
  Ag  Ag4  1  0.86924907  0.86924906  0.73849805  1
  Ag  Ag5  1  0.13075101  0.13075101  0.26150201  1
