# generated using pymatgen
data_Pr(GeRh)2
_symmetry_space_group_name_H-M   'P 1'
_cell_length_a   4.31551981
_cell_length_b   4.31551981
_cell_length_c   5.86303806
_cell_angle_alpha   111.59402466
_cell_angle_beta   111.59402466
_cell_angle_gamma   90.00000000
_symmetry_Int_Tables_number   1
_chemical_formula_structural   Pr(GeRh)2
_chemical_formula_sum   'Pr1 Ge2 Rh2'
_cell_volume   93.23648345
_cell_formula_units_Z   1
loop_
 _symmetry_equiv_pos_site_id
 _symmetry_equiv_pos_as_xyz
  1  'x, y, z'
loop_
 _atom_site_type_symbol
 _atom_site_label
 _atom_site_symmetry_multiplicity
 _atom_site_fract_x
 _atom_site_fract_y
 _atom_site_fract_z
 _atom_site_occupancy
  Pr  Pr0  1  0.00000000  0.00000000  0.00000000  1
  Ge  Ge1  1  0.37134500  0.37134501  0.74268998  1
  Ge  Ge2  1  0.62865499  0.62865501  0.25730996  1
  Rh  Rh3  1  0.24999998  0.75000002  0.49999997  1
  Rh  Rh4  1  0.75000001  0.25000001  0.49999997  1
