# generated using pymatgen
data_Na3Sr(LiS)4
_symmetry_space_group_name_H-M   'P 1'
_cell_length_a   4.45969820
_cell_length_b   8.71032810
_cell_length_c   9.10507488
_cell_angle_alpha   112.99338531
_cell_angle_beta   90.00000000
_cell_angle_gamma   104.83287811
_symmetry_Int_Tables_number   1
_chemical_formula_structural   Na3Sr(LiS)4
_chemical_formula_sum   'Na3 Sr1 Li4 S4'
_cell_volume   312.74648456
_cell_formula_units_Z   1
loop_
 _symmetry_equiv_pos_site_id
 _symmetry_equiv_pos_as_xyz
  1  'x, y, z'
loop_
 _atom_site_type_symbol
 _atom_site_label
 _atom_site_symmetry_multiplicity
 _atom_site_fract_x
 _atom_site_fract_y
 _atom_site_fract_z
 _atom_site_occupancy
  Sr  Sr0  1  0.13611296  0.27222601  0.04911801  1
  Na  Na1  1  0.86388688  0.72777403  0.95088200  1
  Na  Na2  1  0.68784093  0.37568202  0.43535200  1
  Li  Li3  1  0.05754799  0.11509600  0.40238900  1
  Na  Na4  1  0.31215892  0.62431803  0.56464801  1
  Li  Li5  1  0.59153995  0.18308001  0.64268699  1
  Li  Li6  1  0.40845989  0.81692003  0.35731302  1
  Li  Li7  1  0.94245186  0.88490404  0.59761101  1
  S  S8  1  0.51867797  0.03735600  0.21863700  1
  S  S9  1  0.80211790  0.60423603  0.30420701  1
  S  S10  1  0.19788195  0.39576402  0.69579300  1
  S  S11  1  0.48132188  0.96264404  0.78136301  1
