# generated using pymatgen
data_Ba4Si3O5
_symmetry_space_group_name_H-M   'P 1'
_cell_length_a   5.55266619
_cell_length_b   7.18001890
_cell_length_c   7.18001890
_cell_angle_alpha   81.40103912
_cell_angle_beta   67.25224304
_cell_angle_gamma   67.25224304
_symmetry_Int_Tables_number   1
_chemical_formula_structural   Ba4Si3O5
_chemical_formula_sum   'Ba4 Si3 O5'
_cell_volume   243.45469250
_cell_formula_units_Z   1
loop_
 _symmetry_equiv_pos_site_id
 _symmetry_equiv_pos_as_xyz
  1  'x, y, z'
loop_
 _atom_site_type_symbol
 _atom_site_label
 _atom_site_symmetry_multiplicity
 _atom_site_fract_x
 _atom_site_fract_y
 _atom_site_fract_z
 _atom_site_occupancy
  Ba  Ba0  1  0.49999999  0.69028098  0.30971905  1
  Ba  Ba1  1  0.49999998  0.30971899  0.69028102  1
  Ba  Ba2  1  0.80971898  0.69028098  0.69028105  1
  Ba  Ba3  1  0.19028100  0.30971899  0.30971902  1
  Si  Si4  1  0.86095396  0.27809199  0.00000004  1
  Si  Si5  1  0.13904599  0.00000000  0.72190800  1
  Si  Si6  1  0.13904601  0.72190798  1.00000003  1
  O  O7  1  0.86095396  0.00000000  0.27809202  1
  O  O8  1  0.27836400  0.72163598  0.72163604  1
  O  O9  1  0.99999997  0.72163598  0.27836407  1
  O  O10  1  0.99999996  0.27836399  0.72163604  1
  O  O11  1  0.72163597  0.27836399  0.27836403  1
