# generated using pymatgen
data_LuMgGa
_symmetry_space_group_name_H-M   'P 1'
_cell_length_a   3.92570496
_cell_length_b   7.36047602
_cell_length_c   7.36047506
_cell_angle_alpha   120.00000763
_cell_angle_beta   90.00000000
_cell_angle_gamma   90.00000000
_symmetry_Int_Tables_number   1
_chemical_formula_structural   LuMgGa
_chemical_formula_sum   'Lu3 Mg3 Ga3'
_cell_volume   184.18743596
_cell_formula_units_Z   3
loop_
 _symmetry_equiv_pos_site_id
 _symmetry_equiv_pos_as_xyz
  1  'x, y, z'
loop_
 _atom_site_type_symbol
 _atom_site_label
 _atom_site_symmetry_multiplicity
 _atom_site_fract_x
 _atom_site_fract_y
 _atom_site_fract_z
 _atom_site_occupancy
  Lu  Lu0  1  0.50000001  1.00000003  0.40355705  1
  Lu  Lu1  1  0.50000001  0.40355701  0.00000002  1
  Lu  Lu2  1  0.50000001  0.59644302  0.59644303  1
  Mg  Mg3  1  -0.00000000  1.00000003  0.74971705  1
  Mg  Mg4  1  -0.00000000  0.74971702  0.00000004  1
  Mg  Mg5  1  -0.00000000  0.25028301  0.25028301  1
  Ga  Ga6  1  -0.00000000  0.66666668  0.33333337  1
  Ga  Ga7  1  -0.00000000  0.33333334  0.66666668  1
  Ga  Ga8  1  0.50000001  0.00000000  -0.00000000  1
