# generated using pymatgen
data_CeNi2
_symmetry_space_group_name_H-M   'P 1'
_cell_length_a   4.30478191
_cell_length_b   5.43726969
_cell_length_c   5.43726969
_cell_angle_alpha   77.67576599
_cell_angle_beta   66.68045807
_cell_angle_gamma   66.68045807
_symmetry_Int_Tables_number   1
_chemical_formula_structural   CeNi2
_chemical_formula_sum   'Ce2 Ni4'
_cell_volume   107.07981555
_cell_formula_units_Z   2
loop_
 _symmetry_equiv_pos_site_id
 _symmetry_equiv_pos_as_xyz
  1  'x, y, z'
loop_
 _atom_site_type_symbol
 _atom_site_label
 _atom_site_symmetry_multiplicity
 _atom_site_fract_x
 _atom_site_fract_y
 _atom_site_fract_z
 _atom_site_occupancy
  Ce  Ce0  1  0.45564205  0.79435801  0.29435802  1
  Ce  Ce1  1  0.54435801  0.20564200  0.70564204  1
  Ni  Ni2  1  0.83632601  0.21809900  0.10924903  1
  Ni  Ni3  1  0.16367405  0.78190101  0.89075103  1
  Ni  Ni4  1  0.16367503  0.39075101  0.28190001  1
  Ni  Ni5  1  0.83632504  0.60924901  0.71810005  1
