# generated using pymatgen
data_Li2O2
_symmetry_space_group_name_H-M   'P 1'
_cell_length_a   5.01604414
_cell_length_b   5.10668802
_cell_length_c   7.79737186
_cell_angle_alpha   83.96331787
_cell_angle_beta   71.23728180
_cell_angle_gamma   70.91590881
_symmetry_Int_Tables_number   1
_chemical_formula_structural   Li2O2
_chemical_formula_sum   'Li10 O10'
_cell_volume   178.72454066
_cell_formula_units_Z   5
loop_
 _symmetry_equiv_pos_site_id
 _symmetry_equiv_pos_as_xyz
  1  'x, y, z'
loop_
 _atom_site_type_symbol
 _atom_site_label
 _atom_site_symmetry_multiplicity
 _atom_site_fract_x
 _atom_site_fract_y
 _atom_site_fract_z
 _atom_site_occupancy
  Li  Li0  1  0.89589600  0.49999999  0.20820799  1
  Li  Li1  1  0.29022602  0.49999999  0.41954800  1
  Li  Li2  1  0.69643501  0.49999999  0.60713000  1
  Li  Li3  1  0.10480403  0.49999999  0.79039201  1
  Li  Li4  1  0.50234702  0.49999999  0.99530601  1
  Li  Li5  1  0.19542099  0.00000000  0.60915802  1
  Li  Li6  1  0.00116506  0.99999998  0.99767000  1
  Li  Li7  1  0.79389598  0.00000000  0.41220801  1
  Li  Li8  1  0.39496499  0.00000000  0.21007001  1
  Li  Li9  1  0.60208898  0.00000000  0.79582202  1
  O  O10  1  0.74066703  0.77469999  0.02055398  1
  O  O11  1  0.14131404  0.77996299  0.20584899  1
  O  O12  1  0.55087403  0.78150099  0.39069199  1
  O  O13  1  0.92533902  0.76370999  0.58690700  1
  O  O14  1  0.31574604  0.76359299  0.82401000  1
  O  O15  1  0.05843401  0.21849900  0.39069200  1
  O  O16  1  0.48775400  0.23629000  0.58690701  1
  O  O17  1  0.86024399  0.23640700  0.82401001  1
  O  O18  1  0.23877901  0.22530000  0.02055400  1
  O  O19  1  0.65283700  0.22003700  0.20584900  1
