# generated using pymatgen
data_LiMgAg4
_symmetry_space_group_name_H-M   'P 1'
_cell_length_a   4.98597622
_cell_length_b   5.27296019
_cell_length_c   5.27295971
_cell_angle_alpha   120.00000000
_cell_angle_beta   90.00000000
_cell_angle_gamma   90.00000000
_symmetry_Int_Tables_number   1
_chemical_formula_structural   LiMgAg4
_chemical_formula_sum   'Li1 Mg1 Ag4'
_cell_volume   120.05763377
_cell_formula_units_Z   1
loop_
 _symmetry_equiv_pos_site_id
 _symmetry_equiv_pos_as_xyz
  1  'x, y, z'
loop_
 _atom_site_type_symbol
 _atom_site_label
 _atom_site_symmetry_multiplicity
 _atom_site_fract_x
 _atom_site_fract_y
 _atom_site_fract_z
 _atom_site_occupancy
  Li  Li0  1  0.99999996  0.00000000  0.66521000  1
  Mg  Mg1  1  0.49999998  0.66666663  0.33333331  1
  Ag  Ag2  1  -0.00000000  0.33478998  0.33478999  1
  Ag  Ag3  1  0.49999998  0.33333332  0.66666666  1
  Ag  Ag4  1  -0.00000000  0.66520997  -0.00000002  1
  Ag  Ag5  1  0.49999998  0.00000000  -0.00000000  1
