# generated using pymatgen
data_BaGe
_symmetry_space_group_name_H-M   'P 1'
_cell_length_a   4.25832176
_cell_length_b   4.25832176
_cell_length_c   24.15937805
_cell_angle_alpha   90.00000000
_cell_angle_beta   90.00000000
_cell_angle_gamma   120.00000000
_symmetry_Int_Tables_number   1
_chemical_formula_structural   BaGe
_chemical_formula_sum   'Ba6 Ge6'
_cell_volume   379.39650814
_cell_formula_units_Z   6
loop_
 _symmetry_equiv_pos_site_id
 _symmetry_equiv_pos_as_xyz
  1  'x, y, z'
loop_
 _atom_site_type_symbol
 _atom_site_label
 _atom_site_symmetry_multiplicity
 _atom_site_fract_x
 _atom_site_fract_y
 _atom_site_fract_z
 _atom_site_occupancy
  Ba  Ba0  1  0.33333335  0.66666670  0.53708300  1
  Ba  Ba1  1  0.66666670  0.33333335  0.46291700  1
  Ba  Ba2  1  0.33333335  0.66666670  0.28600800  1
  Ba  Ba3  1  0.66666670  0.33333335  0.71399200  1
  Ba  Ba4  1  0.00000000  0.00000000  0.12850800  1
  Ba  Ba5  1  0.00000000  0.00000000  0.87149200  1
  Ge  Ge6  1  0.00000000  0.00000000  0.35071300  1
  Ge  Ge7  1  0.00000000  0.00000000  0.64928700  1
  Ge  Ge8  1  0.33333335  0.66666670  0.79169600  1
  Ge  Ge9  1  0.66666670  0.33333335  0.20830400  1
  Ge  Ge10  1  0.33333335  0.66666670  0.06567300  1
  Ge  Ge11  1  0.66666670  0.33333335  0.93432700  1
