# generated using pymatgen
data_PrMg
_symmetry_space_group_name_H-M   'P 1'
_cell_length_a   4.89831781
_cell_length_b   4.89831781
_cell_length_c   5.88914442
_cell_angle_alpha   114.57454681
_cell_angle_beta   114.57454681
_cell_angle_gamma   90.00000000
_symmetry_Int_Tables_number   1
_chemical_formula_structural   PrMg
_chemical_formula_sum   'Pr2 Mg2'
_cell_volume   114.27884689
_cell_formula_units_Z   2
loop_
 _symmetry_equiv_pos_site_id
 _symmetry_equiv_pos_as_xyz
  1  'x, y, z'
loop_
 _atom_site_type_symbol
 _atom_site_label
 _atom_site_symmetry_multiplicity
 _atom_site_fract_x
 _atom_site_fract_y
 _atom_site_fract_z
 _atom_site_occupancy
  Pr  Pr0  1  0.75000000  0.25000000  0.49999997  1
  Pr  Pr1  1  0.24999997  0.75000001  0.49999996  1
  Mg  Mg2  1  0.49999998  0.50000000  -0.00000005  1
  Mg  Mg3  1  0.00000000  0.00000000  0.00000000  1
