# generated using pymatgen
data_LiCoO3
_symmetry_space_group_name_H-M   'P 1'
_cell_length_a   5.67684078
_cell_length_b   6.93464565
_cell_length_c   6.93478203
_cell_angle_alpha   76.05973816
_cell_angle_beta   72.41214752
_cell_angle_gamma   72.41549683
_symmetry_Int_Tables_number   1
_chemical_formula_structural   LiCoO3
_chemical_formula_sum   'Li4 Co4 O12'
_cell_volume   244.69302075
_cell_formula_units_Z   4
loop_
 _symmetry_equiv_pos_site_id
 _symmetry_equiv_pos_as_xyz
  1  'x, y, z'
loop_
 _atom_site_type_symbol
 _atom_site_label
 _atom_site_symmetry_multiplicity
 _atom_site_fract_x
 _atom_site_fract_y
 _atom_site_fract_z
 _atom_site_occupancy
  Li  Li0  1  0.74998701  0.28585500  0.71416900  1
  Li  Li1  1  0.25000301  0.72586600  0.27414598  1
  Li  Li2  1  0.74998002  0.92482000  0.07522099  1
  Li  Li3  1  0.26483600  0.18235600  0.37624700  1
  Co  Co4  1  0.23515201  0.62377600  0.81760898  1
  Co  Co5  1  0.79175601  0.38435800  0.16302001  1
  Co  Co6  1  0.70823602  0.83698000  0.61562499  1
  Co  Co7  1  0.25010900  0.10639700  0.89336599  1
  O  O8  1  0.35896901  0.01644700  0.19890801  1
  O  O9  1  0.14100301  0.80111100  0.98356897  1
  O  O10  1  0.32921201  0.03031400  0.60384000  1
  O  O11  1  0.17077800  0.39623600  0.96963998  1
  O  O12  1  0.83181901  0.20100600  0.99879400  1
  O  O13  1  0.66817301  0.00123700  0.79901101  1
  O  O14  1  0.43541301  0.37092100  0.30936300  1
  O  O15  1  0.06458001  0.69066800  0.62901497  1
  O  O16  1  0.92875902  0.29014600  0.40678601  1
  O  O17  1  0.57124001  0.59326500  0.70984199  1
  O  O18  1  0.68939101  0.65219600  0.11403300  1
  O  O19  1  0.81060602  0.88604100  0.34779899  1
