# generated using pymatgen
data_NaCuO3
_symmetry_space_group_name_H-M   'P 1'
_cell_length_a   4.77591753
_cell_length_b   5.74328232
_cell_length_c   9.95567322
_cell_angle_alpha   89.74005890
_cell_angle_beta   90.03345490
_cell_angle_gamma   89.65090179
_symmetry_Int_Tables_number   1
_chemical_formula_structural   NaCuO3
_chemical_formula_sum   'Na4 Cu4 O12'
_cell_volume   273.07063792
_cell_formula_units_Z   4
loop_
 _symmetry_equiv_pos_site_id
 _symmetry_equiv_pos_as_xyz
  1  'x, y, z'
loop_
 _atom_site_type_symbol
 _atom_site_label
 _atom_site_symmetry_multiplicity
 _atom_site_fract_x
 _atom_site_fract_y
 _atom_site_fract_z
 _atom_site_occupancy
  Na  Na0  1  0.00045602  0.49867498  0.16730699  1
  Na  Na1  1  0.00129203  0.99836397  0.66675098  1
  Na  Na2  1  0.49871001  0.00163800  0.33324399  1
  Na  Na3  1  0.49954102  0.50132498  0.83270398  1
  Cu  Cu4  1  0.25015504  0.99999797  0.99999897  1
  Cu  Cu5  1  0.74984804  0.99999897  0.99999896  1
  Cu  Cu6  1  0.25002502  0.50000898  0.49998698  1
  Cu  Cu7  1  0.74997603  0.50000998  0.49999297  1
  O  O8  1  0.00261201  0.27614699  0.42538899  1
  O  O9  1  0.00079003  0.78068297  0.92652698  1
  O  O10  1  0.50122603  0.77980997  0.07406698  1
  O  O11  1  0.49525102  0.28168599  0.57289798  1
  O  O12  1  0.00475002  0.71829198  0.42710799  1
  O  O13  1  0.99877202  0.22021999  0.92591797  1
  O  O14  1  0.00034503  0.99920097  0.14909998  1
  O  O15  1  0.00238302  0.50040398  0.64854899  1
  O  O16  1  0.49761102  0.49959598  0.35145698  1
  O  O17  1  0.49965601  0.00079800  0.85092398  1
  O  O18  1  0.49921001  0.21928399  0.07345899  1
  O  O19  1  0.49738703  0.72385897  0.57461897  1
