# generated using pymatgen
data_CeCo11Mo
_symmetry_space_group_name_H-M   'P 1'
_cell_length_a   4.68646193
_cell_length_b   6.42591572
_cell_length_c   6.42591524
_cell_angle_alpha   82.70403290
_cell_angle_beta   68.61376190
_cell_angle_gamma   68.61374664
_symmetry_Int_Tables_number   1
_chemical_formula_structural   CeCo11Mo
_chemical_formula_sum   'Ce1 Co11 Mo1'
_cell_volume   167.77911949
_cell_formula_units_Z   1
loop_
 _symmetry_equiv_pos_site_id
 _symmetry_equiv_pos_as_xyz
  1  'x, y, z'
loop_
 _atom_site_type_symbol
 _atom_site_label
 _atom_site_symmetry_multiplicity
 _atom_site_fract_x
 _atom_site_fract_y
 _atom_site_fract_z
 _atom_site_occupancy
  Ce  Ce0  1  0.00000002  0.99571702  0.00428296  1
  Co  Co1  1  0.00041502  0.99887502  0.50002395  1
  Co  Co2  1  0.50068603  0.99887502  0.50002394  1
  Co  Co3  1  0.49931402  0.49997601  0.00112497  1
  Co  Co4  1  0.99958503  0.49997601  0.00112496  1
  Co  Co5  1  0.50000003  0.77334501  0.22665496  1
  Co  Co6  1  0.50000002  0.22743000  0.77256997  1
  Co  Co7  1  0.72389803  0.77745901  0.77474394  1
  Co  Co8  1  0.27610101  0.22525600  0.22254098  1
  Co  Co9  1  1.00000004  0.64049801  0.35950195  1
  Co  Co10  1  0.64098802  0.35970201  0.35832297  1
  Co  Co11  1  0.35901302  0.64167701  0.64029796  1
  Mo  Mo12  1  0.00000001  0.36121301  0.63878697  1
