# generated using pymatgen
data_K3RbLi2O6
_symmetry_space_group_name_H-M   'P 1'
_cell_length_a   5.35787010
_cell_length_b   5.35787058
_cell_length_c   9.19891357
_cell_angle_alpha   90.00000000
_cell_angle_beta   90.00000000
_cell_angle_gamma   120.00000000
_symmetry_Int_Tables_number   1
_chemical_formula_structural   K3RbLi2O6
_chemical_formula_sum   'K3 Rb1 Li2 O6'
_cell_volume   228.69231425
_cell_formula_units_Z   1
loop_
 _symmetry_equiv_pos_site_id
 _symmetry_equiv_pos_as_xyz
  1  'x, y, z'
loop_
 _atom_site_type_symbol
 _atom_site_label
 _atom_site_symmetry_multiplicity
 _atom_site_fract_x
 _atom_site_fract_y
 _atom_site_fract_z
 _atom_site_occupancy
  K  K0  1  0.00000000  0.00000000  0.00000000  1
  K  K1  1  0.66666667  0.33333333  0.71513303  1
  K  K2  1  0.33333336  0.66666666  0.28486701  1
  Li  Li3  1  0.33333336  0.66666666  0.71513303  1
  Li  Li4  1  0.66666667  0.33333333  0.28486701  1
  Rb  Rb5  1  0.00000000  0.00000000  0.50000002  1
  O  O6  1  0.50000002  0.50000000  0.82421904  1
  O  O7  1  0.50000002  0.50000000  0.17578101  1
  O  O8  1  0.00000003  0.50000000  0.82421904  1
  O  O9  1  0.00000003  0.50000000  0.17578101  1
  O  O10  1  0.49999999  0.00000000  0.82421904  1
  O  O11  1  0.49999999  0.00000000  0.17578101  1
