# generated using pymatgen
data_LiUAlCu3
_symmetry_space_group_name_H-M   'P 1'
_cell_length_a   3.55579996
_cell_length_b   3.55579996
_cell_length_c   8.18008709
_cell_angle_alpha   90.00000000
_cell_angle_beta   90.00000000
_cell_angle_gamma   90.00000000
_symmetry_Int_Tables_number   1
_chemical_formula_structural   LiUAlCu3
_chemical_formula_sum   'Li1 U1 Al1 Cu3'
_cell_volume   103.42667645
_cell_formula_units_Z   1
loop_
 _symmetry_equiv_pos_site_id
 _symmetry_equiv_pos_as_xyz
  1  'x, y, z'
loop_
 _atom_site_type_symbol
 _atom_site_label
 _atom_site_symmetry_multiplicity
 _atom_site_fract_x
 _atom_site_fract_y
 _atom_site_fract_z
 _atom_site_occupancy
  Li  Li0  1  -0.00000000  0.50000001  0.73200099  1
  U  U1  1  0.50000001  0.00000000  0.26799900  1
  Al  Al2  1  0.00000000  0.00000000  0.00000000  1
  Cu  Cu3  1  0.50000001  0.50000001  0.00000000  1
  Cu  Cu4  1  0.50000001  0.00000000  0.62209599  1
  Cu  Cu5  1  -0.00000000  0.50000001  0.37790400  1
