# generated using pymatgen
data_Y3Ge2
_symmetry_space_group_name_H-M   'P 1'
_cell_length_a   7.85369778
_cell_length_b   7.85369778
_cell_length_c   7.85369778
_cell_angle_alpha   71.96041870
_cell_angle_beta   71.96041870
_cell_angle_gamma   71.96041870
_symmetry_Int_Tables_number   1
_chemical_formula_structural   Y3Ge2
_chemical_formula_sum   'Y9 Ge6'
_cell_volume   425.54638355
_cell_formula_units_Z   3
loop_
 _symmetry_equiv_pos_site_id
 _symmetry_equiv_pos_as_xyz
  1  'x, y, z'
loop_
 _atom_site_type_symbol
 _atom_site_label
 _atom_site_symmetry_multiplicity
 _atom_site_fract_x
 _atom_site_fract_y
 _atom_site_fract_z
 _atom_site_occupancy
  Y  Y0  1  0.00000000  0.00000000  0.00000000  1
  Y  Y1  1  0.20126199  0.20126200  0.20126200  1
  Y  Y2  1  0.79873794  0.79873801  0.79873801  1
  Y  Y3  1  0.39006095  0.67040501  0.16549902  1
  Y  Y4  1  0.67040499  0.16549900  0.39006100  1
  Y  Y5  1  0.16549897  0.39006101  0.67040500  1
  Y  Y6  1  0.60993898  0.32959501  0.83450100  1
  Y  Y7  1  0.32959494  0.83450102  0.60993901  1
  Y  Y8  1  0.83450096  0.60993901  0.32959502  1
  Ge  Ge9  1  0.04093994  0.83633702  0.40946801  1
  Ge  Ge10  1  0.83633697  0.40946801  0.04094002  1
  Ge  Ge11  1  0.40946800  0.04094000  0.83633699  1
  Ge  Ge12  1  0.95905999  0.16366300  0.59053200  1
  Ge  Ge13  1  0.16366296  0.59053201  0.95906000  1
  Ge  Ge14  1  0.59053193  0.95906002  0.16366303  1
