# generated using pymatgen
data_RbH3O2
_symmetry_space_group_name_H-M   'P 1'
_cell_length_a   5.73152876
_cell_length_b   5.73152876
_cell_length_c   5.73152876
_cell_angle_alpha   60.00000000
_cell_angle_beta   60.00000000
_cell_angle_gamma   60.00000000
_symmetry_Int_Tables_number   1
_chemical_formula_structural   RbH3O2
_chemical_formula_sum   'Rb1 H3 O2'
_cell_volume   133.13628363
_cell_formula_units_Z   1
loop_
 _symmetry_equiv_pos_site_id
 _symmetry_equiv_pos_as_xyz
  1  'x, y, z'
loop_
 _atom_site_type_symbol
 _atom_site_label
 _atom_site_symmetry_multiplicity
 _atom_site_fract_x
 _atom_site_fract_y
 _atom_site_fract_z
 _atom_site_occupancy
  Rb  Rb0  1  0.25000001  0.25000001  0.25000001  1
  H  H1  1  0.75000003  0.75000003  0.75000003  1
  H  H2  1  0.64558402  0.06324800  0.64558402  1
  H  H3  1  0.64558402  0.64558402  0.64558402  1
  O  O4  1  0.64558402  0.64558402  0.06324800  1
  O  O5  1  0.06324800  0.64558402  0.64558402  1
