# generated using pymatgen
data_TaFeSi
_symmetry_space_group_name_H-M   'P 1'
_cell_length_a   3.74722409
_cell_length_b   6.25559282
_cell_length_c   7.16662121
_cell_angle_alpha   90.00000000
_cell_angle_beta   90.00000000
_cell_angle_gamma   90.00000000
_symmetry_Int_Tables_number   1
_chemical_formula_structural   TaFeSi
_chemical_formula_sum   'Ta4 Fe4 Si4'
_cell_volume   167.99354273
_cell_formula_units_Z   4
loop_
 _symmetry_equiv_pos_site_id
 _symmetry_equiv_pos_as_xyz
  1  'x, y, z'
loop_
 _atom_site_type_symbol
 _atom_site_label
 _atom_site_symmetry_multiplicity
 _atom_site_fract_x
 _atom_site_fract_y
 _atom_site_fract_z
 _atom_site_occupancy
  Ta  Ta0  1  0.74999998  0.47381201  0.31369899  1
  Ta  Ta1  1  0.24999999  0.52618801  0.68630098  1
  Ta  Ta2  1  0.24999999  0.02618800  0.81369898  1
  Ta  Ta3  1  0.74999998  0.97381203  0.18630099  1
  Fe  Fe4  1  0.74999998  0.86143702  0.55945198  1
  Fe  Fe5  1  0.74999998  0.36143701  0.94054797  1
  Fe  Fe6  1  0.24999999  0.13856300  0.44054799  1
  Fe  Fe7  1  0.24999999  0.63856302  0.05945200  1
  Si  Si8  1  0.74999998  0.24318101  0.62160598  1
  Si  Si9  1  0.24999999  0.75681902  0.37839399  1
  Si  Si10  1  0.74999998  0.74318102  0.87839397  1
  Si  Si11  1  0.24999999  0.25681901  0.12160600  1
