# generated using pymatgen
data_Mg
_symmetry_space_group_name_H-M   'P 1'
_cell_length_a   3.32614994
_cell_length_b   5.77469063
_cell_length_c   7.01947355
_cell_angle_alpha   107.57569122
_cell_angle_beta   90.00000000
_cell_angle_gamma   106.73788452
_symmetry_Int_Tables_number   1
_chemical_formula_structural   Mg
_chemical_formula_sum   Mg6
_cell_volume   122.52723354
_cell_formula_units_Z   6
loop_
 _symmetry_equiv_pos_site_id
 _symmetry_equiv_pos_as_xyz
  1  'x, y, z'
loop_
 _atom_site_type_symbol
 _atom_site_label
 _atom_site_symmetry_multiplicity
 _atom_site_fract_x
 _atom_site_fract_y
 _atom_site_fract_z
 _atom_site_occupancy
  Mg  Mg0  1  0.03171900  0.06343800  0.05248600  1
  Mg  Mg1  1  0.36875499  0.73750998  0.73162098  1
  Mg  Mg2  1  0.01774000  0.03548000  0.55706599  1
  Mg  Mg3  1  0.68971100  0.37942199  0.87337698  1
  Mg  Mg4  1  0.69016500  0.38032999  0.39899899  1
  Mg  Mg5  1  0.36857599  0.73715198  0.21978399  1
