# generated using pymatgen
data_BaLiBeO5
_symmetry_space_group_name_H-M   'P 1'
_cell_length_a   4.94782400
_cell_length_b   4.94782352
_cell_length_c   9.86622334
_cell_angle_alpha   90.00000000
_cell_angle_beta   90.00000000
_cell_angle_gamma   120.00000000
_symmetry_Int_Tables_number   1
_chemical_formula_structural   BaLiBeO5
_chemical_formula_sum   'Ba2 Li2 Be2 O10'
_cell_volume   209.17511570
_cell_formula_units_Z   2
loop_
 _symmetry_equiv_pos_site_id
 _symmetry_equiv_pos_as_xyz
  1  'x, y, z'
loop_
 _atom_site_type_symbol
 _atom_site_label
 _atom_site_symmetry_multiplicity
 _atom_site_fract_x
 _atom_site_fract_y
 _atom_site_fract_z
 _atom_site_occupancy
  Ba  Ba0  1  0.00000000  0.00000000  0.49999998  1
  Ba  Ba1  1  0.00000000  0.00000000  0.00000000  1
  Li  Li2  1  0.33333331  0.66666669  0.24999999  1
  Li  Li3  1  0.66666666  0.33333334  0.74999997  1
  Be  Be4  1  0.66666666  0.33333334  0.24999999  1
  Be  Be5  1  0.33333331  0.66666669  0.74999997  1
  O  O6  1  0.68886498  0.62334302  0.24999999  1
  O  O7  1  0.37665700  0.06552200  0.24999999  1
  O  O8  1  0.06552198  0.68886502  0.74999997  1
  O  O9  1  0.62334297  0.93447803  0.74999997  1
  O  O10  1  0.93447799  0.31113501  0.24999999  1
  O  O11  1  0.31113499  0.37665701  0.74999997  1
  O  O12  1  0.33333331  0.66666669  0.04774900  1
  O  O13  1  0.66666666  0.33333334  0.54774898  1
  O  O14  1  0.33333331  0.66666669  0.45225098  1
  O  O15  1  0.66666666  0.33333334  0.95225097  1
