# generated using pymatgen
data_CaCeS2
_symmetry_space_group_name_H-M   'P 1'
_cell_length_a   4.23085165
_cell_length_b   4.23085165
_cell_length_c   7.50927591
_cell_angle_alpha   73.63780975
_cell_angle_beta   73.63780975
_cell_angle_gamma   60.00000763
_symmetry_Int_Tables_number   1
_chemical_formula_structural   CaCeS2
_chemical_formula_sum   'Ca1 Ce1 S2'
_cell_volume   110.07749762
_cell_formula_units_Z   1
loop_
 _symmetry_equiv_pos_site_id
 _symmetry_equiv_pos_as_xyz
  1  'x, y, z'
loop_
 _atom_site_type_symbol
 _atom_site_label
 _atom_site_symmetry_multiplicity
 _atom_site_fract_x
 _atom_site_fract_y
 _atom_site_fract_z
 _atom_site_occupancy
  Ca  Ca0  1  0.49999998  0.49999998  0.50000000  1
  Ce  Ce1  1  0.00000000  0.00000000  0.00000000  1
  S  S2  1  0.25325099  0.25325099  0.24024700  1
  S  S3  1  0.74674898  0.74674898  0.75975300  1
