# generated using pymatgen
data_Ba3Sr5P4(S3O)2
_symmetry_space_group_name_H-M   'P 1'
_cell_length_a   5.79539013
_cell_length_b   7.52879810
_cell_length_c   14.58215523
_cell_angle_alpha   90.00000000
_cell_angle_beta   90.00000000
_cell_angle_gamma   90.00000000
_symmetry_Int_Tables_number   1
_chemical_formula_structural   Ba3Sr5P4(S3O)2
_chemical_formula_sum   'Ba3 Sr5 P4 S6 O2'
_cell_volume   636.25329544
_cell_formula_units_Z   1
loop_
 _symmetry_equiv_pos_site_id
 _symmetry_equiv_pos_as_xyz
  1  'x, y, z'
loop_
 _atom_site_type_symbol
 _atom_site_label
 _atom_site_symmetry_multiplicity
 _atom_site_fract_x
 _atom_site_fract_y
 _atom_site_fract_z
 _atom_site_occupancy
  Ba  Ba0  1  0.49999999  0.17126300  0.89687199  1
  Ba  Ba1  1  0.49999999  0.82873699  0.10312800  1
  Sr  Sr2  1  0.00000000  0.00000000  0.49999999  1
  Ba  Ba3  1  -0.00000000  0.49999999  0.00000000  1
  Sr  Sr4  1  -0.00000000  0.11406100  0.23544000  1
  Sr  Sr5  1  -0.00000000  0.88593899  0.76455999  1
  Sr  Sr6  1  -0.00000000  0.61406099  0.26456000  1
  Sr  Sr7  1  -0.00000000  0.38593899  0.73543999  1
  P  P8  1  0.49999999  0.32873700  0.39687199  1
  P  P9  1  0.49999999  0.67126299  0.60312799  1
  S  S10  1  0.49999999  0.14752700  0.64442999  1
  P  P11  1  0.49999999  0.85247299  0.35556999  1
  S  S12  1  0.49999999  0.64752699  0.85556999  1
  S  S13  1  0.49999999  0.35247300  0.14443000  1
  S  S14  1  -0.00000000  0.49999999  0.49999999  1
  S  S15  1  0.00000000  0.00000000  0.00000000  1
  S  S16  1  -0.00000000  0.17298800  0.89151699  1
  O  O17  1  -0.00000000  0.82701199  0.10848300  1
  O  O18  1  -0.00000000  0.67298799  0.60848299  1
  P  P19  1  -0.00000000  0.32701200  0.39151699  1
