# generated using pymatgen
data_KSr2LaAl2Si4OsC7
_symmetry_space_group_name_H-M   'P 1'
_cell_length_a   7.23614216
_cell_length_b   7.23614216
_cell_length_c   7.23724747
_cell_angle_alpha   60.28260803
_cell_angle_beta   60.28260803
_cell_angle_gamma   60.29751587
_symmetry_Int_Tables_number   1
_chemical_formula_structural   KSr2LaAl2Si4OsC7
_chemical_formula_sum   'K1 Sr2 La1 Al2 Si4 Os1 C7'
_cell_volume   269.70555470
_cell_formula_units_Z   1
loop_
 _symmetry_equiv_pos_site_id
 _symmetry_equiv_pos_as_xyz
  1  'x, y, z'
loop_
 _atom_site_type_symbol
 _atom_site_label
 _atom_site_symmetry_multiplicity
 _atom_site_fract_x
 _atom_site_fract_y
 _atom_site_fract_z
 _atom_site_occupancy
  Sr  Sr0  1  0.84832000  0.88394697  0.38015800  1
  La  La1  1  0.11605300  0.15167999  0.61984202  1
  K  K2  1  0.49809000  0.50190998  1.00000002  1
  Sr  Sr3  1  0.99879298  0.50115698  0.99967102  1
  Al  Al4  1  0.49884299  0.00120700  0.00032900  1
  Al  Al5  1  0.49853300  0.50146698  0.50000001  1
  Si  Si6  1  0.17303400  0.17492499  0.07233600  1
  Si  Si7  1  0.56578600  0.56478598  0.68056701  1
  Os  Os8  1  0.17956001  0.56481898  0.06658999  1
  Si  Si9  1  0.57071299  0.17596199  0.67476402  1
  C  C10  1  0.56460399  0.18138899  0.06540200  1
  C  C11  1  0.17321701  0.57166398  0.67388801  1
  C  C12  1  0.82507499  0.82696597  0.92766401  1
  C  C13  1  0.43521400  0.43421398  0.31943300  1
  Si  Si14  1  0.81861099  0.43539598  0.93459802  1
  C  C15  1  0.42833601  0.82678297  0.32611200  1
  C  C16  1  0.43518101  0.82043997  0.93341002  1
  C  C17  1  0.82403799  0.42928699  0.32523600  1
