# generated using pymatgen
data_Ca2CN6
_symmetry_space_group_name_H-M   'P 1'
_cell_length_a   5.10960865
_cell_length_b   5.10960865
_cell_length_c   5.10960865
_cell_angle_alpha   60.00000000
_cell_angle_beta   60.00000000
_cell_angle_gamma   60.00000000
_symmetry_Int_Tables_number   1
_chemical_formula_structural   Ca2CN6
_chemical_formula_sum   'Ca2 C1 N6'
_cell_volume   94.32958359
_cell_formula_units_Z   1
loop_
 _symmetry_equiv_pos_site_id
 _symmetry_equiv_pos_as_xyz
  1  'x, y, z'
loop_
 _atom_site_type_symbol
 _atom_site_label
 _atom_site_symmetry_multiplicity
 _atom_site_fract_x
 _atom_site_fract_y
 _atom_site_fract_z
 _atom_site_occupancy
  Ca  Ca0  1  0.75000002  0.75000002  0.75000002  1
  Ca  Ca1  1  0.25000001  0.25000001  0.25000001  1
  N  N2  1  0.23261600  0.76738402  0.23261600  1
  N  N3  1  0.23261600  0.76738402  0.76738402  1
  N  N4  1  0.76738402  0.76738402  0.23261600  1
  N  N5  1  0.76738402  0.23261600  0.76738402  1
  N  N6  1  0.76738402  0.23261600  0.23261600  1
  C  C7  1  0.23261600  0.23261600  0.76738402  1
  N  N8  1  0.00000000  0.00000000  0.00000000  1
