# generated using pymatgen
data_VZnCuPH4
_symmetry_space_group_name_H-M   'P 1'
_cell_length_a   4.38982821
_cell_length_b   5.36978960
_cell_length_c   5.36978960
_cell_angle_alpha   70.78662109
_cell_angle_beta   69.24482727
_cell_angle_gamma   69.24482727
_symmetry_Int_Tables_number   1
_chemical_formula_structural   VZnCuPH4
_chemical_formula_sum   'V1 Zn1 Cu1 P1 H4'
_cell_volume   107.64380241
_cell_formula_units_Z   1
loop_
 _symmetry_equiv_pos_site_id
 _symmetry_equiv_pos_as_xyz
  1  'x, y, z'
loop_
 _atom_site_type_symbol
 _atom_site_label
 _atom_site_symmetry_multiplicity
 _atom_site_fract_x
 _atom_site_fract_y
 _atom_site_fract_z
 _atom_site_occupancy
  V  V0  1  0.84460897  0.78608902  0.27345899  1
  P  P1  1  0.15539097  0.72654102  0.21391101  1
  Cu  Cu2  1  0.15539099  0.21391101  0.72654101  1
  Zn  Zn3  1  0.84460899  0.27345901  0.78608899  1
  H  H4  1  0.82168000  0.20774801  0.20774798  1
  H  H5  1  0.17831996  0.79225202  0.79225202  1
  H  H6  1  0.13264099  0.14822200  0.14822200  1
  H  H7  1  0.86735897  0.85177802  0.85177800  1
