# generated using pymatgen
data_SiP3O16
_symmetry_space_group_name_H-M   'P 1'
_cell_length_a   4.80639601
_cell_length_b   4.80639601
_cell_length_c   12.10629654
_cell_angle_alpha   90.00000000
_cell_angle_beta   90.00000000
_cell_angle_gamma   120.00000000
_symmetry_Int_Tables_number   1
_chemical_formula_structural   SiP3O16
_chemical_formula_sum   'Si1 P3 O16'
_cell_volume   242.20384860
_cell_formula_units_Z   1
loop_
 _symmetry_equiv_pos_site_id
 _symmetry_equiv_pos_as_xyz
  1  'x, y, z'
loop_
 _atom_site_type_symbol
 _atom_site_label
 _atom_site_symmetry_multiplicity
 _atom_site_fract_x
 _atom_site_fract_y
 _atom_site_fract_z
 _atom_site_occupancy
  Si  Si0  1  0.00000000  0.00000000  0.00000000  1
  P  P1  1  0.00000000  0.00000000  0.50000002  1
  P  P2  1  0.66666666  0.33333333  0.11994800  1
  P  P3  1  0.33333333  0.66666666  0.88005203  1
  O  O4  1  0.33333333  0.66666666  0.61994802  1
  O  O5  1  0.66666666  0.33333333  0.38005201  1
  O  O6  1  0.07424600  0.32981800  0.91364703  1
  O  O7  1  0.25557200  0.92575399  0.91364703  1
  O  O8  1  0.92575400  0.67018199  0.41364702  1
  O  O9  1  0.74442800  0.07424600  0.08635300  1
  O  O10  1  0.66666666  0.33333333  0.25000001  1
  O  O11  1  0.32981800  0.25557200  0.41364702  1
  O  O12  1  0.25557200  0.92575399  0.58635302  1
  O  O13  1  0.32981800  0.25557200  0.08635300  1
  O  O14  1  0.67018200  0.74442799  0.91364703  1
  O  O15  1  0.74442800  0.07424600  0.41364702  1
  O  O16  1  0.07424600  0.32981800  0.58635302  1
  O  O17  1  0.67018200  0.74442799  0.58635302  1
  O  O18  1  0.92575400  0.67018199  0.08635300  1
  O  O19  1  0.33333333  0.66666666  0.75000003  1
