# generated using pymatgen
data_Pr5(SbO4)3
_symmetry_space_group_name_H-M   'P 1'
_cell_length_a   5.53526878
_cell_length_b   5.68817616
_cell_length_c   7.92101479
_cell_angle_alpha   90.00000000
_cell_angle_beta   90.00000000
_cell_angle_gamma   89.52186584
_symmetry_Int_Tables_number   1
_chemical_formula_structural   Pr5(SbO4)3
_chemical_formula_sum   'Pr5 Sb3 O12'
_cell_volume   249.38909177
_cell_formula_units_Z   1
loop_
 _symmetry_equiv_pos_site_id
 _symmetry_equiv_pos_as_xyz
  1  'x, y, z'
loop_
 _atom_site_type_symbol
 _atom_site_label
 _atom_site_symmetry_multiplicity
 _atom_site_fract_x
 _atom_site_fract_y
 _atom_site_fract_z
 _atom_site_occupancy
  Pr  Pr0  1  0.98939304  0.04183000  0.50000001  1
  Pr  Pr1  1  0.99737001  0.50200199  0.24770401  1
  Pr  Pr2  1  0.50223295  0.99931298  0.75086902  1
  Pr  Pr3  1  0.99737001  0.50200199  0.75229602  1
  Sb  Sb4  1  0.50223295  0.99931298  0.24913101  1
  Pr  Pr5  1  0.49046399  0.45546799  0.00000000  1
  Sb  Sb6  1  0.01215094  0.95564498  0.00000000  1
  Sb  Sb7  1  0.51186698  0.54491599  0.50000001  1
  O  O8  1  0.19606199  0.20007700  0.20159801  1
  O  O9  1  0.29858697  0.70340599  0.79982902  1
  O  O10  1  0.79710498  0.79403999  0.70425102  1
  O  O11  1  0.70095701  0.29677700  0.30167701  1
  O  O12  1  0.79710498  0.79403999  0.29574901  1
  O  O13  1  0.70095701  0.29677700  0.69832302  1
  O  O14  1  0.19606199  0.20007700  0.79840202  1
  O  O15  1  0.29858697  0.70340599  0.20017101  1
  O  O16  1  0.59875402  0.03302200  0.00000000  1
  O  O17  1  0.89946900  0.52560199  0.00000000  1
  O  O18  1  0.41504095  0.97763698  0.50000001  1
  O  O19  1  0.09823297  0.47464899  0.50000001  1
