# generated using pymatgen
data_Ba3DyNb3W2O11
_symmetry_space_group_name_H-M   'P 1'
_cell_length_a   3.96835208
_cell_length_b   3.96835208
_cell_length_c   15.87641525
_cell_angle_alpha   90.00000000
_cell_angle_beta   90.00000000
_cell_angle_gamma   90.00000000
_symmetry_Int_Tables_number   1
_chemical_formula_structural   Ba3DyNb3W2O11
_chemical_formula_sum   'Ba3 Dy1 Nb3 W2 O11'
_cell_volume   250.01890148
_cell_formula_units_Z   1
loop_
 _symmetry_equiv_pos_site_id
 _symmetry_equiv_pos_as_xyz
  1  'x, y, z'
loop_
 _atom_site_type_symbol
 _atom_site_label
 _atom_site_symmetry_multiplicity
 _atom_site_fract_x
 _atom_site_fract_y
 _atom_site_fract_z
 _atom_site_occupancy
  Dy  Dy0  1  0.00000000  0.00000000  0.00000000  1
  Ba  Ba1  1  0.00000000  0.00000000  0.25092000  1
  Ba  Ba2  1  0.00000000  0.00000000  0.49999999  1
  Ba  Ba3  1  0.00000000  0.00000000  0.74907999  1
  Nb  Nb4  1  0.49999999  0.49999999  0.12817500  1
  Nb  Nb5  1  0.49999999  0.49999999  0.37543899  1
  W  W6  1  0.49999999  0.49999999  0.62456099  1
  Nb  Nb7  1  0.49999999  0.49999999  0.87182499  1
  W  W8  1  -0.00000000  0.49999999  0.12973800  1
  O  O9  1  -0.00000000  0.49999999  0.37519199  1
  O  O10  1  -0.00000000  0.49999999  0.62480799  1
  O  O11  1  -0.00000000  0.49999999  0.87026199  1
  O  O12  1  0.49999999  0.49999999  0.00000000  1
  O  O13  1  0.49999999  0.49999999  0.25143300  1
  O  O14  1  0.49999999  0.49999999  0.49999999  1
  O  O15  1  0.49999999  0.49999999  0.74856699  1
  O  O16  1  0.49999999  0.00000000  0.12973800  1
  O  O17  1  0.49999999  0.00000000  0.37519199  1
  O  O18  1  0.49999999  0.00000000  0.62480799  1
  O  O19  1  0.49999999  0.00000000  0.87026199  1
