# generated using pymatgen
data_Al4AsS5
_symmetry_space_group_name_H-M   'P 1'
_cell_length_a   3.66709208
_cell_length_b   3.66709208
_cell_length_c   12.75038910
_cell_angle_alpha   90.00000000
_cell_angle_beta   90.00000000
_cell_angle_gamma   120.00000000
_symmetry_Int_Tables_number   1
_chemical_formula_structural   Al4AsS5
_chemical_formula_sum   'Al4 As1 S5'
_cell_volume   148.49016893
_cell_formula_units_Z   1
loop_
 _symmetry_equiv_pos_site_id
 _symmetry_equiv_pos_as_xyz
  1  'x, y, z'
loop_
 _atom_site_type_symbol
 _atom_site_label
 _atom_site_symmetry_multiplicity
 _atom_site_fract_x
 _atom_site_fract_y
 _atom_site_fract_z
 _atom_site_occupancy
  Al  Al0  1  0.00000000  0.00000000  0.00000000  1
  Al  Al1  1  0.00000000  0.00000000  0.50000000  1
  Al  Al2  1  0.66666666  0.33333334  0.74999999  1
  Al  Al3  1  0.33333334  0.66666669  0.25000000  1
  As  As4  1  0.66666666  0.33333334  0.92096399  1
  S  S5  1  0.66666666  0.33333334  0.57903600  1
  S  S6  1  0.00000000  0.00000000  0.74999999  1
  S  S7  1  0.00000000  0.00000000  0.25000000  1
  S  S8  1  0.33333334  0.66666669  0.07903600  1
  S  S9  1  0.33333334  0.66666669  0.42096400  1
