# generated using pymatgen
data_Na3NO4
_symmetry_space_group_name_H-M   'P 1'
_cell_length_a   4.00756979
_cell_length_b   5.64564085
_cell_length_c   5.64564085
_cell_angle_alpha   92.41495514
_cell_angle_beta   90.00000000
_cell_angle_gamma   90.00000000
_symmetry_Int_Tables_number   1
_chemical_formula_structural   Na3NO4
_chemical_formula_sum   'Na3 N1 O4'
_cell_volume   127.62087111
_cell_formula_units_Z   1
loop_
 _symmetry_equiv_pos_site_id
 _symmetry_equiv_pos_as_xyz
  1  'x, y, z'
loop_
 _atom_site_type_symbol
 _atom_site_label
 _atom_site_symmetry_multiplicity
 _atom_site_fract_x
 _atom_site_fract_y
 _atom_site_fract_z
 _atom_site_occupancy
  Na  Na0  1  -0.00000000  0.47859301  0.52140701  1
  Na  Na1  1  -0.00000000  0.00547100  0.99452901  1
  Na  Na2  1  0.50000003  0.99972701  0.00027300  1
  N  N3  1  -0.00000000  0.25296500  0.74703501  1
  O  O4  1  -0.00000000  0.74949501  0.74208001  1
  O  O5  1  -0.00000000  0.25792000  0.25050500  1
  O  O6  1  0.50000003  0.50747701  0.49252301  1
  O  O7  1  -0.00000000  0.74835101  0.25164901  1
