# generated using pymatgen
data_Sr2MgAlN4
_symmetry_space_group_name_H-M   'P 1'
_cell_length_a   6.13145590
_cell_length_b   6.71355677
_cell_length_c   8.24499226
_cell_angle_alpha   88.29416656
_cell_angle_beta   86.26235199
_cell_angle_gamma   62.82902145
_symmetry_Int_Tables_number   1
_chemical_formula_structural   Sr2MgAlN4
_chemical_formula_sum   'Sr4 Mg2 Al2 N8'
_cell_volume   301.30053417
_cell_formula_units_Z   2
loop_
 _symmetry_equiv_pos_site_id
 _symmetry_equiv_pos_as_xyz
  1  'x, y, z'
loop_
 _atom_site_type_symbol
 _atom_site_label
 _atom_site_symmetry_multiplicity
 _atom_site_fract_x
 _atom_site_fract_y
 _atom_site_fract_z
 _atom_site_occupancy
  Sr  Sr0  1  0.14813800  0.18324900  0.56736599  1
  Sr  Sr1  1  0.66861301  0.18324900  0.93263400  1
  Sr  Sr2  1  0.85186201  0.81675101  0.43263399  1
  Sr  Sr3  1  0.33138701  0.81675101  0.06736597  1
  Mg  Mg4  1  0.04564300  0.40097600  0.13878998  1
  Mg  Mg5  1  0.95435701  0.59902401  0.86120999  1
  Al  Al6  1  0.44661901  0.59902401  0.63878998  1
  Al  Al7  1  0.55338101  0.40097600  0.36121000  1
  N  N8  1  0.86567901  0.26864200  0.25000001  1
  N  N9  1  0.67912701  0.64174601  0.74999998  1
  N  N10  1  0.13432100  0.73135801  0.74999996  1
  N  N11  1  0.32087300  0.35825400  0.24999999  1
  N  N12  1  0.41980401  0.71298201  0.42149197  1
  N  N13  1  0.86721401  0.71298201  0.07850800  1
  N  N14  1  0.58019601  0.28701800  0.57850800  1
  N  N15  1  0.13278600  0.28701800  0.92149198  1
