# generated using pymatgen
data_Ba4WN3O10
_symmetry_space_group_name_H-M   'P 1'
_cell_length_a   5.84402323
_cell_length_b   6.31633854
_cell_length_c   8.50979328
_cell_angle_alpha   101.67634583
_cell_angle_beta   90.00000000
_cell_angle_gamma   90.00000000
_symmetry_Int_Tables_number   1
_chemical_formula_structural   Ba4WN3O10
_chemical_formula_sum   'Ba4 W1 N3 O10'
_cell_volume   307.62027509
_cell_formula_units_Z   1
loop_
 _symmetry_equiv_pos_site_id
 _symmetry_equiv_pos_as_xyz
  1  'x, y, z'
loop_
 _atom_site_type_symbol
 _atom_site_label
 _atom_site_symmetry_multiplicity
 _atom_site_fract_x
 _atom_site_fract_y
 _atom_site_fract_z
 _atom_site_occupancy
  Ba  Ba0  1  0.70273897  0.65751402  0.68744802  1
  Ba  Ba1  1  0.20273899  0.34248601  0.31255201  1
  Ba  Ba2  1  0.71081597  0.81304602  0.22467403  1
  Ba  Ba3  1  0.21081599  0.18695401  0.77532601  1
  O  O4  1  0.88015797  0.44484101  0.47334602  1
  N  N5  1  0.38015799  0.55515902  0.52665402  1
  N  N6  1  0.41734898  0.93090603  0.76557403  1
  W  W7  1  0.91734896  0.06909400  0.23442600  1
  O  O8  1  0.94824896  0.97686803  0.76322503  1
  O  O9  1  0.44824898  0.02313200  0.23677500  1
  N  N10  1  0.00435300  0.44285601  0.78657302  1
  O  O11  1  0.50435298  0.55714402  0.21342702  1
  O  O12  1  0.70581197  0.75897902  0.98426603  1
  O  O13  1  0.20581199  0.24102101  0.01573401  1
  O  O14  1  0.71295397  0.85829602  0.46533403  1
  O  O15  1  0.21295399  0.14170400  0.53466600  1
  O  O16  1  0.49392898  0.37140501  0.78183401  1
  O  O17  1  0.99392896  0.62859502  0.21816602  1
