# generated using pymatgen
data_MgCd3Hg2
_symmetry_space_group_name_H-M   'P 1'
_cell_length_a   4.36581612
_cell_length_b   4.36581564
_cell_length_c   7.05234814
_cell_angle_alpha   90.00000000
_cell_angle_beta   90.00000000
_cell_angle_gamma   120.00000000
_symmetry_Int_Tables_number   1
_chemical_formula_structural   MgCd3Hg2
_chemical_formula_sum   'Mg1 Cd3 Hg2'
_cell_volume   116.41131810
_cell_formula_units_Z   1
loop_
 _symmetry_equiv_pos_site_id
 _symmetry_equiv_pos_as_xyz
  1  'x, y, z'
loop_
 _atom_site_type_symbol
 _atom_site_label
 _atom_site_symmetry_multiplicity
 _atom_site_fract_x
 _atom_site_fract_y
 _atom_site_fract_z
 _atom_site_occupancy
  Mg  Mg0  1  0.00000000  0.00000000  0.49999999  1
  Cd  Cd1  1  0.33333327  0.66666662  0.35566799  1
  Cd  Cd2  1  0.66666662  0.33333331  0.64433199  1
  Cd  Cd3  1  0.00000000  0.00000000  0.00000000  1
  Hg  Hg4  1  0.33333327  0.66666662  0.74078899  1
  Hg  Hg5  1  0.66666662  0.33333331  0.25921099  1
