# generated using pymatgen
data_Cs6I2BrO5
_symmetry_space_group_name_H-M   'P 1'
_cell_length_a   7.27489901
_cell_length_b   7.27489901
_cell_length_c   7.27489901
_cell_angle_alpha   109.47122192
_cell_angle_beta   109.47122192
_cell_angle_gamma   109.47122192
_symmetry_Int_Tables_number   1
_chemical_formula_structural   Cs6I2BrO5
_chemical_formula_sum   'Cs6 I2 Br1 O5'
_cell_volume   296.38689312
_cell_formula_units_Z   1
loop_
 _symmetry_equiv_pos_site_id
 _symmetry_equiv_pos_as_xyz
  1  'x, y, z'
loop_
 _atom_site_type_symbol
 _atom_site_label
 _atom_site_symmetry_multiplicity
 _atom_site_fract_x
 _atom_site_fract_y
 _atom_site_fract_z
 _atom_site_occupancy
  Cs  Cs0  1  0.25000003  0.41928103  0.16928103  1
  Cs  Cs1  1  0.66928104  0.25000002  0.91928105  1
  Cs  Cs2  1  0.41928106  0.66928104  0.75000007  1
  Cs  Cs3  1  0.83071907  0.75000005  0.58071908  1
  Cs  Cs4  1  0.08071906  0.83071905  0.25000005  1
  Cs  Cs5  1  0.75000003  0.08071901  0.33071903  1
  I  I6  1  0.06794001  0.06794000  0.56794002  1
  O  O7  1  0.50000004  0.43206003  0.50000005  1
  O  O8  1  0.43206008  1.00000006  1.00000009  1
  O  O9  1  1.00000006  0.50000003  0.93206007  1
  O  O10  1  0.53490305  0.53490303  0.03490304  1
  Br  Br11  1  0.50000008  0.96509706  0.50000008  1
  I  I12  1  0.00000003  0.50000003  0.46509704  1
  O  O13  1  0.96509709  1.00000006  1.00000010  1
