# generated using pymatgen
data_MgGaSe2
_symmetry_space_group_name_H-M   'P 1'
_cell_length_a   6.08465004
_cell_length_b   6.08465004
_cell_length_c   7.42081451
_cell_angle_alpha   114.20306396
_cell_angle_beta   114.20306396
_cell_angle_gamma   90.00000000
_symmetry_Int_Tables_number   1
_chemical_formula_structural   MgGaSe2
_chemical_formula_sum   'Mg2 Ga2 Se4'
_cell_volume   223.84970811
_cell_formula_units_Z   2
loop_
 _symmetry_equiv_pos_site_id
 _symmetry_equiv_pos_as_xyz
  1  'x, y, z'
loop_
 _atom_site_type_symbol
 _atom_site_label
 _atom_site_symmetry_multiplicity
 _atom_site_fract_x
 _atom_site_fract_y
 _atom_site_fract_z
 _atom_site_occupancy
  Mg  Mg0  1  0.24999997  0.74999998  0.49999996  1
  Mg  Mg1  1  0.49999997  0.49999999  -0.00000004  1
  Ga  Ga2  1  0.74999998  0.24999999  0.49999997  1
  Ga  Ga3  1  0.00000000  0.00000000  0.00000000  1
  Se  Se4  1  0.37499996  0.88378698  0.24999995  1
  Se  Se5  1  0.63378696  0.62499998  0.74999996  1
  Se  Se6  1  0.11621299  0.12500000  0.75000000  1
  Se  Se7  1  0.87499997  0.36621299  0.24999996  1
