# generated using pymatgen
data_RbCaVBiO6
_symmetry_space_group_name_H-M   'P 1'
_cell_length_a   5.61555004
_cell_length_b   5.61564350
_cell_length_c   5.70455742
_cell_angle_alpha   89.99475098
_cell_angle_beta   60.51469421
_cell_angle_gamma   60.00038147
_symmetry_Int_Tables_number   1
_chemical_formula_structural   RbCaVBiO6
_chemical_formula_sum   'Rb1 Ca1 V1 Bi1 O6'
_cell_volume   128.19046527
_cell_formula_units_Z   1
loop_
 _symmetry_equiv_pos_site_id
 _symmetry_equiv_pos_as_xyz
  1  'x, y, z'
loop_
 _atom_site_type_symbol
 _atom_site_label
 _atom_site_symmetry_multiplicity
 _atom_site_fract_x
 _atom_site_fract_y
 _atom_site_fract_z
 _atom_site_occupancy
  V  V0  1  0.43803396  0.78099399  0.34293506  1
  Ca  Ca1  1  0.43803998  0.28099200  0.84293002  1
  Rb  Rb2  1  0.99714097  0.50145399  0.50428403  1
  Bi  Bi3  1  0.99712100  0.00145400  0.00428299  1
  O  O4  1  0.47125195  0.96479299  0.64060508  1
  O  O5  1  0.92339899  0.11181900  0.64058700  1
  O  O6  1  0.32418297  0.56393899  0.64059104  1
  O  O7  1  0.92334897  0.46479300  0.14060602  1
  O  O8  1  0.47128900  0.06393900  0.14059100  1
  O  O9  1  0.32419397  0.61181899  0.14058605  1
