# generated using pymatgen
data_TaFe3Si2OsC
_symmetry_space_group_name_H-M   'P 1'
_cell_length_a   4.38511992
_cell_length_b   4.38511992
_cell_length_c   5.63867474
_cell_angle_alpha   112.88253784
_cell_angle_beta   112.88253784
_cell_angle_gamma   90.00000000
_symmetry_Int_Tables_number   1
_chemical_formula_structural   TaFe3Si2OsC
_chemical_formula_sum   'Ta1 Fe3 Si2 Os1 C1'
_cell_volume   90.56154812
_cell_formula_units_Z   1
loop_
 _symmetry_equiv_pos_site_id
 _symmetry_equiv_pos_as_xyz
  1  'x, y, z'
loop_
 _atom_site_type_symbol
 _atom_site_label
 _atom_site_symmetry_multiplicity
 _atom_site_fract_x
 _atom_site_fract_y
 _atom_site_fract_z
 _atom_site_occupancy
  Ta  Ta0  1  0.27221603  0.77221603  0.54443201  1
  Fe  Fe1  1  0.52221603  0.52221602  0.04443203  1
  Fe  Fe2  1  0.75419203  0.25419201  0.50838401  1
  Fe  Fe3  1  0.00419200  0.00419200  0.00838400  1
  Si  Si4  1  0.98607904  0.48607902  0.97215801  1
  Si  Si5  1  0.76741304  0.76741303  0.53482602  1
  Os  Os6  1  0.51741302  0.01741300  0.03482601  1
  C  C7  1  0.23607901  0.23607901  0.47215800  1
