# generated using pymatgen
data_AlSi2BWC15
_symmetry_space_group_name_H-M   'P 1'
_cell_length_a   5.26901293
_cell_length_b   6.70607805
_cell_length_c   8.49099255
_cell_angle_alpha   107.59346008
_cell_angle_beta   90.00000000
_cell_angle_gamma   90.00000000
_symmetry_Int_Tables_number   1
_chemical_formula_structural   AlSi2BWC15
_chemical_formula_sum   'Al1 Si2 B1 W1 C15'
_cell_volume   285.99064775
_cell_formula_units_Z   1
loop_
 _symmetry_equiv_pos_site_id
 _symmetry_equiv_pos_as_xyz
  1  'x, y, z'
loop_
 _atom_site_type_symbol
 _atom_site_label
 _atom_site_symmetry_multiplicity
 _atom_site_fract_x
 _atom_site_fract_y
 _atom_site_fract_z
 _atom_site_occupancy
  W  W0  1  0.99454601  0.28376299  0.63674501  1
  Al  Al1  1  0.49454601  0.71623699  0.36325499  1
  Si  Si2  1  0.49918401  0.78833299  0.88423500  1
  Si  Si3  1  0.99918401  0.21166700  0.11576500  1
  C  C4  1  0.98983301  0.75115799  0.11728398  1
  B  B5  1  0.51075401  0.24994100  0.38057200  1
  C  C6  1  0.48983301  0.24884200  0.88271602  1
  C  C7  1  0.01075400  0.75005899  0.61942800  1
  C  C8  1  0.03333200  0.58191399  0.15429399  1
  C  C9  1  0.23442700  0.68624399  0.65020600  1
  C  C10  1  0.73442701  0.31375599  0.34979400  1
  C  C11  1  0.31222200  0.30944299  0.31654600  1
  C  C12  1  0.81222201  0.69055699  0.68345400  1
  C  C13  1  0.67785801  0.13907700  0.91408802  1
  C  C14  1  0.53333201  0.41808599  0.84570601  1
  C  C15  1  0.26025900  0.17583300  0.88281102  1
  C  C16  1  0.48758401  0.14041700  0.48185901  1
  C  C17  1  0.17785800  0.86092298  0.08591198  1
  C  C18  1  0.76025901  0.82416698  0.11718898  1
  C  C19  1  0.98758401  0.85958298  0.51814099  1
