# generated using pymatgen
data_LiWO3
_symmetry_space_group_name_H-M   'P 1'
_cell_length_a   5.01145411
_cell_length_b   5.44605875
_cell_length_c   7.41955280
_cell_angle_alpha   89.99777222
_cell_angle_beta   91.07843781
_cell_angle_gamma   89.99745941
_symmetry_Int_Tables_number   1
_chemical_formula_structural   LiWO3
_chemical_formula_sum   'Li4 W4 O12'
_cell_volume   202.46356212
_cell_formula_units_Z   4
loop_
 _symmetry_equiv_pos_site_id
 _symmetry_equiv_pos_as_xyz
  1  'x, y, z'
loop_
 _atom_site_type_symbol
 _atom_site_label
 _atom_site_symmetry_multiplicity
 _atom_site_fract_x
 _atom_site_fract_y
 _atom_site_fract_z
 _atom_site_occupancy
  Li  Li0  1  0.97100822  0.08443588  0.75225949  1
  Li  Li1  1  0.52898975  0.58443421  0.74772381  1
  Li  Li2  1  0.47101104  0.41556596  0.25227617  1
  Li  Li3  1  0.02899162  0.91556150  0.24773865  1
  W  W4  1  0.99999924  0.50000048  0.49999988  1
  W  W5  1  0.50000077  0.99999988  0.00000023  1
  W  W6  1  0.99999970  0.50000092  0.00000061  1
  W  W7  1  0.50000097  0.99999962  0.50000014  1
  O  O8  1  0.85726405  0.55590014  0.25917952  1
  O  O9  1  0.64274491  0.05590375  0.24082495  1
  O  O10  1  0.35725453  0.94409701  0.75917526  1
  O  O11  1  0.14273501  0.44409999  0.74082069  1
  O  O12  1  0.80604458  0.82118234  0.57125777  1
  O  O13  1  0.80774309  0.81911381  0.93038663  1
  O  O14  1  0.69397349  0.32118606  0.92875391  1
  O  O15  1  0.69224597  0.31910299  0.56961287  1
  O  O16  1  0.30775400  0.68089692  0.43038791  1
  O  O17  1  0.30602610  0.67881397  0.07124537  1
  O  O18  1  0.19225797  0.18088735  0.06961359  1
  O  O19  1  0.19395545  0.17881710  0.42874224  1
