# generated using pymatgen
data_Na4Zr3TiO12
_symmetry_space_group_name_H-M   'P 1'
_cell_length_a   5.44420719
_cell_length_b   5.59806824
_cell_length_c   7.75018549
_cell_angle_alpha   90.00000000
_cell_angle_beta   90.03688812
_cell_angle_gamma   90.00000000
_symmetry_Int_Tables_number   1
_chemical_formula_structural   Na4Zr3TiO12
_chemical_formula_sum   'Na4 Zr3 Ti1 O12'
_cell_volume   236.20269023
_cell_formula_units_Z   1
loop_
 _symmetry_equiv_pos_site_id
 _symmetry_equiv_pos_as_xyz
  1  'x, y, z'
loop_
 _atom_site_type_symbol
 _atom_site_label
 _atom_site_symmetry_multiplicity
 _atom_site_fract_x
 _atom_site_fract_y
 _atom_site_fract_z
 _atom_site_occupancy
  Na  Na0  1  0.51255398  0.44619898  0.74939700  1
  Na  Na1  1  0.98744597  0.94619896  0.75060299  1
  Na  Na2  1  0.48744598  0.55380098  0.25060299  1
  Na  Na3  1  0.01255400  0.05380100  0.24939700  1
  Zr  Zr4  1  0.49999998  0.00000000  -0.00000001  1
  Ti  Ti5  1  -0.00000000  0.49999998  0.50000001  1
  Zr  Zr6  1  0.49999998  0.00000000  0.49999999  1
  Zr  Zr7  1  -0.00000000  0.49999998  1.00000002  1
  O  O8  1  0.78477497  0.19984099  0.95583099  1
  O  O9  1  0.71522497  0.69984097  0.54416899  1
  O  O10  1  0.21522499  0.80015897  0.04416900  1
  O  O11  1  0.28477499  0.30015899  0.45583100  1
  O  O12  1  0.80174797  0.21600299  0.54650999  1
  O  O13  1  0.69825198  0.71600297  0.95349000  1
  O  O14  1  0.19825199  0.78399697  0.45349000  1
  O  O15  1  0.30174799  0.28399699  0.04650999  1
  O  O16  1  0.91484997  0.47823698  0.25772998  1
  O  O17  1  0.58514998  0.97823696  0.24226999  1
  O  O18  1  0.08515000  0.52176298  0.74227001  1
  O  O19  1  0.41484999  0.02176300  0.75773000  1
