# generated using pymatgen
data_Be4RuC6O
_symmetry_space_group_name_H-M   'P 1'
_cell_length_a   4.89815903
_cell_length_b   4.89815903
_cell_length_c   4.89815903
_cell_angle_alpha   90.00000000
_cell_angle_beta   90.00000000
_cell_angle_gamma   90.00000000
_symmetry_Int_Tables_number   1
_chemical_formula_structural   Be4RuC6O
_chemical_formula_sum   'Be4 Ru1 C6 O1'
_cell_volume   117.51644454
_cell_formula_units_Z   1
loop_
 _symmetry_equiv_pos_site_id
 _symmetry_equiv_pos_as_xyz
  1  'x, y, z'
loop_
 _atom_site_type_symbol
 _atom_site_label
 _atom_site_symmetry_multiplicity
 _atom_site_fract_x
 _atom_site_fract_y
 _atom_site_fract_z
 _atom_site_occupancy
  Ru  Ru0  1  -0.00000000  0.50000000  0.50000000  1
  Be  Be1  1  0.50000000  0.50000000  0.00000000  1
  Be  Be2  1  0.50000000  0.00000000  0.50000000  1
  Be  Be3  1  0.00000000  0.00000000  0.00000000  1
  Be  Be4  1  0.41121200  0.08878800  0.91121199  1
  C  C5  1  0.08878800  0.91121199  0.41121200  1
  C  C6  1  0.91121199  0.41121200  0.08878800  1
  C  C7  1  0.58878800  0.58878800  0.58878800  1
  C  C8  1  0.41121200  0.41121200  0.41121200  1
  C  C9  1  0.08878800  0.58878800  0.91121199  1
  C  C10  1  0.91121199  0.08878800  0.58878800  1
  O  O11  1  0.58878800  0.91121199  0.08878800  1
