# generated using pymatgen
data_As2SeS2
_symmetry_space_group_name_H-M   'P 1'
_cell_length_a   5.17902040
_cell_length_b   5.17902040
_cell_length_c   5.17901993
_cell_angle_alpha   86.89669800
_cell_angle_beta   86.89669800
_cell_angle_gamma   86.89669037
_symmetry_Int_Tables_number   1
_chemical_formula_structural   As2SeS2
_chemical_formula_sum   'As2 Se1 S2'
_cell_volume   138.32308808
_cell_formula_units_Z   1
loop_
 _symmetry_equiv_pos_site_id
 _symmetry_equiv_pos_as_xyz
  1  'x, y, z'
loop_
 _atom_site_type_symbol
 _atom_site_label
 _atom_site_symmetry_multiplicity
 _atom_site_fract_x
 _atom_site_fract_y
 _atom_site_fract_z
 _atom_site_occupancy
  As  As0  1  0.11092299  0.11092300  0.11092300  1
  As  As1  1  0.47748197  0.47748199  0.47748201  1
  S  S2  1  0.14274498  0.62553098  0.14274501  1
  Se  Se3  1  0.62553098  0.14274500  0.14274501  1
  S  S4  1  0.14274499  0.14274500  0.62553101  1
