# generated using pymatgen
data_Y2Ga2SiC3
_symmetry_space_group_name_H-M   'P 1'
_cell_length_a   3.68432999
_cell_length_b   6.55056000
_cell_length_c   6.70136976
_cell_angle_alpha   115.77547455
_cell_angle_beta   90.00000000
_cell_angle_gamma   90.00000000
_symmetry_Int_Tables_number   1
_chemical_formula_structural   Y2Ga2SiC3
_chemical_formula_sum   'Y2 Ga2 Si1 C3'
_cell_volume   145.64200692
_cell_formula_units_Z   1
loop_
 _symmetry_equiv_pos_site_id
 _symmetry_equiv_pos_as_xyz
  1  'x, y, z'
loop_
 _atom_site_type_symbol
 _atom_site_label
 _atom_site_symmetry_multiplicity
 _atom_site_fract_x
 _atom_site_fract_y
 _atom_site_fract_z
 _atom_site_occupancy
  Y  Y0  1  0.25000000  0.06358000  0.76553002  1
  Y  Y1  1  0.75000000  0.93641998  0.23446997  1
  Ga  Ga2  1  0.25000000  0.47221999  0.30663999  1
  Ga  Ga3  1  0.75000000  0.52777999  0.69336000  1
  C  C4  1  0.75000000  0.87404998  0.81105999  1
  Si  Si5  1  0.75000000  0.18422000  0.59275001  1
  C  C6  1  0.25000000  0.81577999  0.40724998  1
  C  C7  1  0.25000000  0.12595000  0.18894000  1
