# generated using pymatgen
data_SrPS2
_symmetry_space_group_name_H-M   'P 1'
_cell_length_a   4.48076010
_cell_length_b   6.10387993
_cell_length_c   6.43035030
_cell_angle_alpha   90.00000000
_cell_angle_beta   110.38991547
_cell_angle_gamma   90.00000000
_symmetry_Int_Tables_number   1
_chemical_formula_structural   SrPS2
_chemical_formula_sum   'Sr2 P2 S4'
_cell_volume   164.85077692
_cell_formula_units_Z   2
loop_
 _symmetry_equiv_pos_site_id
 _symmetry_equiv_pos_as_xyz
  1  'x, y, z'
loop_
 _atom_site_type_symbol
 _atom_site_label
 _atom_site_symmetry_multiplicity
 _atom_site_fract_x
 _atom_site_fract_y
 _atom_site_fract_z
 _atom_site_occupancy
  Sr  Sr0  1  0.70360997  0.25000000  0.40721998  1
  Sr  Sr1  1  0.29638999  0.75000001  0.59278001  1
  P  P2  1  0.00275000  0.75000001  0.00550000  1
  P  P3  1  0.99724995  0.25000000  0.99449998  1
  S  S4  1  0.11230999  0.49474001  0.22462000  1
  S  S5  1  0.88768996  0.50526001  0.77537998  1
  S  S6  1  0.88768996  0.99474001  0.77537998  1
  S  S7  1  0.11230999  0.00526000  0.22462000  1
