# generated using pymatgen
data_Na3AsAuO4
_symmetry_space_group_name_H-M   'P 1'
_cell_length_a   4.77209091
_cell_length_b   5.90748453
_cell_length_c   6.39442539
_cell_angle_alpha   114.90361786
_cell_angle_beta   111.90096283
_cell_angle_gamma   90.00894165
_symmetry_Int_Tables_number   1
_chemical_formula_structural   Na3AsAuO4
_chemical_formula_sum   'Na3 As1 Au1 O4'
_cell_volume   149.03288218
_cell_formula_units_Z   1
loop_
 _symmetry_equiv_pos_site_id
 _symmetry_equiv_pos_as_xyz
  1  'x, y, z'
loop_
 _atom_site_type_symbol
 _atom_site_label
 _atom_site_symmetry_multiplicity
 _atom_site_fract_x
 _atom_site_fract_y
 _atom_site_fract_z
 _atom_site_occupancy
  Na  Na0  1  0.37022399  0.09860000  0.74044197  1
  Na  Na1  1  0.16463898  0.46481400  0.32934196  1
  Na  Na2  1  0.58916796  0.84667299  0.17810294  1
  As  As3  1  0.15164997  0.83560999  0.30332193  1
  Au  Au4  1  0.61547498  0.26315700  0.23092998  1
  O  O5  1  0.81979498  0.06529500  0.63955898  1
  O  O6  1  0.37147697  0.73004499  0.74317193  1
  O  O7  1  0.60433397  0.47143200  0.20871397  1
  O  O8  1  0.93568898  0.18022300  0.87141597  1
