# generated using pymatgen
data_Ba7YAl2Si5Sb
_symmetry_space_group_name_H-M   'P 1'
_cell_length_a   8.18526363
_cell_length_b   8.18526363
_cell_length_c   8.18526363
_cell_angle_alpha   92.00302124
_cell_angle_beta   92.00302124
_cell_angle_gamma   92.00302887
_symmetry_Int_Tables_number   1
_chemical_formula_structural   Ba7YAl2Si5Sb
_chemical_formula_sum   'Ba7 Y1 Al2 Si5 Sb1'
_cell_volume   547.37139855
_cell_formula_units_Z   1
loop_
 _symmetry_equiv_pos_site_id
 _symmetry_equiv_pos_as_xyz
  1  'x, y, z'
loop_
 _atom_site_type_symbol
 _atom_site_label
 _atom_site_symmetry_multiplicity
 _atom_site_fract_x
 _atom_site_fract_y
 _atom_site_fract_z
 _atom_site_occupancy
  Ba  Ba0  1  0.00070899  0.52560198  0.45505999  1
  Ba  Ba1  1  0.52560197  0.45505998  0.00070902  1
  Ba  Ba2  1  0.45505998  0.00070900  0.52560199  1
  Ba  Ba3  1  0.50070897  0.95505996  0.02560202  1
  Ba  Ba4  1  0.95505996  0.02560200  0.50070900  1
  Ba  Ba5  1  0.02560199  0.50070898  0.95505997  1
  Al  Al6  1  0.00169400  0.00169400  0.00169400  1
  Ba  Ba7  1  0.50169397  0.50169398  0.50169400  1
  Si  Si8  1  0.15910598  0.82927897  0.19921401  1
  Y  Y9  1  0.31783598  0.31783599  0.31783600  1
  Sb  Sb10  1  0.65910597  0.69921397  0.32927901  1
  Al  Al11  1  0.82927897  0.19921399  0.15910601  1
  Si  Si12  1  0.19921399  0.15910599  0.82927897  1
  Si  Si13  1  0.32927898  0.65910597  0.69921399  1
  Si  Si14  1  0.69921397  0.32927899  0.65910599  1
  Si  Si15  1  0.81783596  0.81783597  0.81783600  1
