# generated using pymatgen
data_Li5MnVCu4O9
_symmetry_space_group_name_H-M   'P 1'
_cell_length_a   2.91665792
_cell_length_b   6.53438950
_cell_length_c   9.78479004
_cell_angle_alpha   101.17650604
_cell_angle_beta   90.00000000
_cell_angle_gamma   102.89573669
_symmetry_Int_Tables_number   1
_chemical_formula_structural   Li5MnVCu4O9
_chemical_formula_sum   'Li5 Mn1 V1 Cu4 O9'
_cell_volume   178.15057438
_cell_formula_units_Z   1
loop_
 _symmetry_equiv_pos_site_id
 _symmetry_equiv_pos_as_xyz
  1  'x, y, z'
loop_
 _atom_site_type_symbol
 _atom_site_label
 _atom_site_symmetry_multiplicity
 _atom_site_fract_x
 _atom_site_fract_y
 _atom_site_fract_z
 _atom_site_occupancy
  Li  Li0  1  0.19323205  0.38646401  0.60131700  1
  Li  Li1  1  0.80676809  0.61353602  0.39868301  1
  Li  Li2  1  0.59775704  0.19551401  0.79155798  1
  Li  Li3  1  0.00000000  0.00000000  0.00000000  1
  Li  Li4  1  0.40224310  0.80448603  0.20844203  1
  Mn  Mn5  1  0.50000001  0.00000000  0.49999998  1
  V  V6  1  0.90527011  0.81054003  0.69435101  1
  Cu  Cu7  1  0.09473002  0.18946001  0.30564900  1
  Cu  Cu8  1  0.70198506  0.40397002  0.10158601  1
  Cu  Cu9  1  0.29801507  0.59603002  0.89841400  1
  O  O10  1  0.35451609  0.70903203  0.56775401  1
  Cu  Cu11  1  0.96004513  0.92009004  0.34356303  1
  O  O12  1  0.76021708  0.52043402  0.75590800  1
  O  O13  1  0.15591704  0.31183401  0.96119598  1
  O  O14  1  0.55766503  0.11533000  0.16489900  1
  O  O15  1  0.03995501  0.07991000  0.65643698  1
  O  O16  1  0.64548405  0.29096801  0.43224600  1
  O  O17  1  0.44233511  0.88467003  0.83510101  1
  O  O18  1  0.84408310  0.68816603  0.03880403  1
  O  O19  1  0.23978306  0.47956602  0.24409201  1
