# generated using pymatgen
data_NaB2HC
_symmetry_space_group_name_H-M   'P 1'
_cell_length_a   4.64186478
_cell_length_b   4.64186478
_cell_length_c   4.64186525
_cell_angle_alpha   74.26838684
_cell_angle_beta   74.26838684
_cell_angle_gamma   74.26838684
_symmetry_Int_Tables_number   1
_chemical_formula_structural   NaB2HC
_chemical_formula_sum   'Na1 B2 H1 C1'
_cell_volume   90.53278428
_cell_formula_units_Z   1
loop_
 _symmetry_equiv_pos_site_id
 _symmetry_equiv_pos_as_xyz
  1  'x, y, z'
loop_
 _atom_site_type_symbol
 _atom_site_label
 _atom_site_symmetry_multiplicity
 _atom_site_fract_x
 _atom_site_fract_y
 _atom_site_fract_z
 _atom_site_occupancy
  Na  Na0  1  0.49999995  0.50000000  0.50000006  1
  B  B1  1  0.00000000  0.00000000  0.00000000  1
  C  C2  1  -0.00000002  0.22639800  0.77360200  1
  B  B3  1  0.77360190  1.00000001  0.22639812  1
  H  H4  1  0.22639793  0.77360200  0.00000007  1
