# generated using pymatgen
data_TaTi2Fe2(SiN4)3
_symmetry_space_group_name_H-M   'P 1'
_cell_length_a   5.31684732
_cell_length_b   6.68029022
_cell_length_c   6.68029022
_cell_angle_alpha   84.63978577
_cell_angle_beta   76.98941040
_cell_angle_gamma   76.98941040
_symmetry_Int_Tables_number   1
_chemical_formula_structural   TaTi2Fe2(SiN4)3
_chemical_formula_sum   'Ta1 Ti2 Fe2 Si3 N12'
_cell_volume   225.01692523
_cell_formula_units_Z   1
loop_
 _symmetry_equiv_pos_site_id
 _symmetry_equiv_pos_as_xyz
  1  'x, y, z'
loop_
 _atom_site_type_symbol
 _atom_site_label
 _atom_site_symmetry_multiplicity
 _atom_site_fract_x
 _atom_site_fract_y
 _atom_site_fract_z
 _atom_site_occupancy
  Ta  Ta0  1  0.50000003  0.29970299  0.70029701  1
  Ti  Ti1  1  0.50000008  0.90660597  0.09339402  1
  Ti  Ti2  1  0.00000001  0.09535200  0.90464798  1
  Si  Si3  1  1.00000008  0.74562097  0.25437904  1
  Fe  Fe4  1  0.49968204  0.38314499  0.20040702  1
  Si  Si5  1  0.50031807  0.79959297  0.61685500  1
  Fe  Fe6  1  0.99265207  0.61669998  0.80444003  1
  Si  Si7  1  0.00734802  0.19555999  0.38329999  1
  N  N8  1  0.60193903  0.20943499  0.02860503  1
  N  N9  1  0.39806108  0.97139496  0.79056499  1
  N  N10  1  0.89457908  0.79180897  0.97610202  1
  N  N11  1  0.10542100  0.02389800  0.20819100  1
  N  N12  1  0.38970506  0.61977298  0.13233101  1
  N  N13  1  0.61029508  0.86766897  0.38022702  1
  N  N14  1  0.07667503  0.38402799  0.88931998  1
  N  N15  1  0.92332502  0.11068000  0.61597203  1
  N  N16  1  0.73580704  0.36487499  0.33634403  1
  N  N17  1  0.26419306  0.66365597  0.63512499  1
  N  N18  1  0.75783806  0.62503398  0.67453202  1
  N  N19  1  0.24216203  0.32546799  0.37496600  1
