# generated using pymatgen
data_K3SO
_symmetry_space_group_name_H-M   'P 1'
_cell_length_a   6.66721201
_cell_length_b   6.67746973
_cell_length_c   6.67746973
_cell_angle_alpha   60.08837891
_cell_angle_beta   60.05080414
_cell_angle_gamma   60.05080414
_symmetry_Int_Tables_number   1
_chemical_formula_structural   K3SO
_chemical_formula_sum   'K6 S2 O2'
_cell_volume   210.51152390
_cell_formula_units_Z   2
loop_
 _symmetry_equiv_pos_site_id
 _symmetry_equiv_pos_as_xyz
  1  'x, y, z'
loop_
 _atom_site_type_symbol
 _atom_site_label
 _atom_site_symmetry_multiplicity
 _atom_site_fract_x
 _atom_site_fract_y
 _atom_site_fract_z
 _atom_site_occupancy
  K  K0  1  0.25000000  0.28374801  0.21625200  1
  K  K1  1  0.75000000  0.71625202  0.78374802  1
  K  K2  1  0.76730900  0.23269101  0.73269102  1
  K  K3  1  0.73269100  0.76730902  0.26730900  1
  K  K4  1  0.23269100  0.76730902  0.26730900  1
  K  K5  1  0.26730900  0.23269101  0.73269102  1
  S  S6  1  0.75000000  0.24868801  0.25131201  1
  S  S7  1  0.25000000  0.75131202  0.74868801  1
  O  O8  1  0.50000000  1.00000002  1.00000002  1
  O  O9  1  0.00000000  0.50000001  0.50000001  1
