# generated using pymatgen
data_DyIN
_symmetry_space_group_name_H-M   'P 1'
_cell_length_a   4.51946592
_cell_length_b   4.51946545
_cell_length_c   5.04995823
_cell_angle_alpha   90.00000000
_cell_angle_beta   90.00000000
_cell_angle_gamma   120.00000000
_symmetry_Int_Tables_number   1
_chemical_formula_structural   DyIN
_chemical_formula_sum   'Dy1 I1 N1'
_cell_volume   89.32902711
_cell_formula_units_Z   1
loop_
 _symmetry_equiv_pos_site_id
 _symmetry_equiv_pos_as_xyz
  1  'x, y, z'
loop_
 _atom_site_type_symbol
 _atom_site_label
 _atom_site_symmetry_multiplicity
 _atom_site_fract_x
 _atom_site_fract_y
 _atom_site_fract_z
 _atom_site_occupancy
  Dy  Dy0  1  0.78079098  0.78079102  0.66666664  1
  I  I1  1  -0.00000001  0.21920901  0.33333332  1
  N  N2  1  0.21920900  0.00000000  0.99999995  1
