# generated using pymatgen
data_MoW3(Se3S)2
_symmetry_space_group_name_H-M   'P 1'
_cell_length_a   3.25156188
_cell_length_b   3.25156260
_cell_length_c   36.90118027
_cell_angle_alpha   90.00000000
_cell_angle_beta   90.00000000
_cell_angle_gamma   119.99999237
_symmetry_Int_Tables_number   1
_chemical_formula_structural   MoW3(Se3S)2
_chemical_formula_sum   'Mo1 W3 Se6 S2'
_cell_volume   337.87422658
_cell_formula_units_Z   1
loop_
 _symmetry_equiv_pos_site_id
 _symmetry_equiv_pos_as_xyz
  1  'x, y, z'
loop_
 _atom_site_type_symbol
 _atom_site_label
 _atom_site_symmetry_multiplicity
 _atom_site_fract_x
 _atom_site_fract_y
 _atom_site_fract_z
 _atom_site_occupancy
  W  W0  1  0.66666668  0.33333333  0.90605697  1
  Mo  Mo1  1  0.33333333  0.66666666  0.09394300  1
  W  W2  1  0.66666668  0.33333333  0.28180599  1
  W  W3  1  0.33333333  0.66666666  0.71819398  1
  Se  Se4  1  0.66666668  0.33333333  0.04788000  1
  Se  Se5  1  0.33333333  0.66666666  0.95211997  1
  Se  Se6  1  0.33333333  0.66666666  0.85998297  1
  Se  Se7  1  0.66666668  0.33333333  0.14001700  1
  Se  Se8  1  0.66666668  0.33333333  0.67613198  1
  S  S9  1  0.33333333  0.66666666  0.32386799  1
  S  S10  1  0.33333333  0.66666666  0.23974899  1
  Se  Se11  1  0.66666668  0.33333333  0.76025097  1
