# generated using pymatgen
data_Li4In4Te5Se
_symmetry_space_group_name_H-M   'P 1'
_cell_length_a   4.01519585
_cell_length_b   6.95085621
_cell_length_c   14.37672138
_cell_angle_alpha   87.12873840
_cell_angle_beta   81.97285461
_cell_angle_gamma   73.21223450
_symmetry_Int_Tables_number   1
_chemical_formula_structural   Li4In4Te5Se
_chemical_formula_sum   'Li4 In4 Te5 Se1'
_cell_volume   380.35626948
_cell_formula_units_Z   1
loop_
 _symmetry_equiv_pos_site_id
 _symmetry_equiv_pos_as_xyz
  1  'x, y, z'
loop_
 _atom_site_type_symbol
 _atom_site_label
 _atom_site_symmetry_multiplicity
 _atom_site_fract_x
 _atom_site_fract_y
 _atom_site_fract_z
 _atom_site_occupancy
  Li  Li0  1  0.00000000  0.00000000  0.00000000  1
  Li  Li1  1  0.00000005  0.50000000  0.50000001  1
  Li  Li2  1  0.64537403  0.07961000  0.62964200  1
  Li  Li3  1  0.35462611  0.92039000  0.37035802  1
  In  In4  1  0.23072305  0.41466700  0.12388701  1
  In  In5  1  0.76927709  0.58533300  0.87611301  1
  In  In6  1  0.01050207  0.64983200  0.32916401  1
  In  In7  1  0.98949807  0.35016800  0.67083601  1
  Te  Te8  1  0.65668405  0.22888700  0.45774500  1
  Te  Te9  1  0.34331610  0.77111300  0.54225501  1
  Te  Te10  1  0.60540610  0.73987800  0.04931002  1
  Te  Te11  1  0.39459404  0.26012200  0.95069000  1
  Se  Se12  1  0.83705605  0.15201400  0.17387401  1
  Te  Te13  1  0.16294410  0.84798600  0.82612601  1
