# generated using pymatgen
data_Li4ClOF
_symmetry_space_group_name_H-M   'P 1'
_cell_length_a   6.56871605
_cell_length_b   6.56871605
_cell_length_c   7.22330809
_cell_angle_alpha   62.95508194
_cell_angle_beta   62.95508194
_cell_angle_gamma   59.99999619
_symmetry_Int_Tables_number   1
_chemical_formula_structural   Li4ClOF
_chemical_formula_sum   'Li8 Cl2 O2 F2'
_cell_volume   229.72072404
_cell_formula_units_Z   2
loop_
 _symmetry_equiv_pos_site_id
 _symmetry_equiv_pos_as_xyz
  1  'x, y, z'
loop_
 _atom_site_type_symbol
 _atom_site_label
 _atom_site_symmetry_multiplicity
 _atom_site_fract_x
 _atom_site_fract_y
 _atom_site_fract_z
 _atom_site_occupancy
  Li  Li0  1  0.66666666  0.66666669  0.00000001  1
  Li  Li1  1  0.33338799  0.33338801  0.99983601  1
  Li  Li2  1  0.54201898  0.87701203  0.36859501  1
  Li  Li3  1  0.21237398  0.54201902  0.36859501  1
  Li  Li4  1  0.87701201  0.21237401  0.36859501  1
  Li  Li5  1  0.12298797  0.78762603  0.63140501  1
  Li  Li6  1  0.78762600  0.45798102  0.63140501  1
  Li  Li7  1  0.45798101  0.12298800  0.63140501  1
  Cl  Cl8  1  0.74299601  0.07795500  0.76226501  1
  O  O9  1  0.07795499  0.41678402  0.76226501  1
  O  O10  1  0.41678398  0.74299603  0.76226501  1
  F  F11  1  0.58321600  0.25700401  0.23773500  1
  F  F12  1  0.92204500  0.58321602  0.23773501  1
  Cl  Cl13  1  0.25700397  0.92204503  0.23773501  1
