# generated using pymatgen
data_NaLiInGaAsS2O11
_symmetry_space_group_name_H-M   'P 1'
_cell_length_a   7.17211819
_cell_length_b   7.22298145
_cell_length_c   7.22298145
_cell_angle_alpha   60.68074417
_cell_angle_beta   60.23266983
_cell_angle_gamma   60.23266983
_symmetry_Int_Tables_number   1
_chemical_formula_structural   NaLiInGaAsS2O11
_chemical_formula_sum   'Na1 Li1 In1 Ga1 As1 S2 O11'
_cell_volume   266.86047111
_cell_formula_units_Z   1
loop_
 _symmetry_equiv_pos_site_id
 _symmetry_equiv_pos_as_xyz
  1  'x, y, z'
loop_
 _atom_site_type_symbol
 _atom_site_label
 _atom_site_symmetry_multiplicity
 _atom_site_fract_x
 _atom_site_fract_y
 _atom_site_fract_z
 _atom_site_occupancy
  Li  Li0  1  0.87220497  0.87779500  0.37779497  1
  Na  Na1  1  0.12779500  0.12220500  0.62220499  1
  Ga  Ga2  1  0.49999998  0.50000000  0.49999998  1
  In  In3  1  0.50000000  0.00000000  -0.00000002  1
  As  As4  1  0.99999998  0.50000000  -0.00000003  1
  S  S5  1  0.49999998  0.50000000  -0.00000001  1
  O  O6  1  0.80329598  0.44670400  0.94670397  1
  O  O7  1  0.42476697  0.82523300  0.32523299  1
  O  O8  1  0.42731797  0.79749800  0.94386999  1
  O  O9  1  0.83131298  0.44387100  0.29749897  1
  O  O10  1  0.42731698  0.44387000  0.29749899  1
  O  O11  1  0.83131397  0.79749900  0.94386997  1
  O  O12  1  0.19670398  0.55329600  0.05329600  1
  S  S13  1  0.57523299  0.17476700  0.67476698  1
  O  O14  1  0.57268199  0.20250200  0.05612998  1
  O  O15  1  0.16868698  0.55612900  0.70250099  1
  O  O16  1  0.57268298  0.55613000  0.70250098  1
  O  O17  1  0.16868599  0.20250100  0.05613000  1
