# generated using pymatgen
data_ZnIn2Ge
_symmetry_space_group_name_H-M   'P 1'
_cell_length_a   4.26105976
_cell_length_b   4.26105976
_cell_length_c   8.10166836
_cell_angle_alpha   74.75338745
_cell_angle_beta   74.75338745
_cell_angle_gamma   60.00000000
_symmetry_Int_Tables_number   1
_chemical_formula_structural   ZnIn2Ge
_chemical_formula_sum   'Zn1 In2 Ge1'
_cell_volume   121.37624713
_cell_formula_units_Z   1
loop_
 _symmetry_equiv_pos_site_id
 _symmetry_equiv_pos_as_xyz
  1  'x, y, z'
loop_
 _atom_site_type_symbol
 _atom_site_label
 _atom_site_symmetry_multiplicity
 _atom_site_fract_x
 _atom_site_fract_y
 _atom_site_fract_z
 _atom_site_occupancy
  In  In0  1  0.00000000  0.00000000  0.00000000  1
  Zn  Zn1  1  0.49999999  0.50000002  0.50000002  1
  In  In2  1  0.76718399  0.76718404  0.69844803  1
  Ge  Ge3  1  0.23281600  0.23281601  0.30155201  1
