# generated using pymatgen
data_K2LiZnF4
_symmetry_space_group_name_H-M   'P 1'
_cell_length_a   4.15101290
_cell_length_b   4.15101290
_cell_length_c   8.48455620
_cell_angle_alpha   90.00000000
_cell_angle_beta   90.00000000
_cell_angle_gamma   90.00000000
_symmetry_Int_Tables_number   1
_chemical_formula_structural   K2LiZnF4
_chemical_formula_sum   'K2 Li1 Zn1 F4'
_cell_volume   146.19660791
_cell_formula_units_Z   1
loop_
 _symmetry_equiv_pos_site_id
 _symmetry_equiv_pos_as_xyz
  1  'x, y, z'
loop_
 _atom_site_type_symbol
 _atom_site_label
 _atom_site_symmetry_multiplicity
 _atom_site_fract_x
 _atom_site_fract_y
 _atom_site_fract_z
 _atom_site_occupancy
  K  K0  1  -0.00000000  0.50000001  0.15173700  1
  K  K1  1  0.50000001  0.00000000  0.84826298  1
  Li  Li2  1  0.50000001  0.00000000  0.41506699  1
  Zn  Zn3  1  -0.00000000  0.50000001  0.58493299  1
  F  F4  1  -0.00000000  0.50000001  0.81979798  1
  F  F5  1  0.50000001  0.00000000  0.18020200  1
  F  F6  1  0.00000000  0.00000000  0.49999999  1
  F  F7  1  0.50000001  0.50000001  0.49999999  1
