# generated using pymatgen
data_HfFeSiP2S3
_symmetry_space_group_name_H-M   'P 1'
_cell_length_a   4.94815540
_cell_length_b   4.94815540
_cell_length_c   4.94815540
_cell_angle_alpha   98.24469757
_cell_angle_beta   98.24469757
_cell_angle_gamma   98.24470520
_symmetry_Int_Tables_number   1
_chemical_formula_structural   HfFeSiP2S3
_chemical_formula_sum   'Hf1 Fe1 Si1 P2 S3'
_cell_volume   116.98592150
_cell_formula_units_Z   1
loop_
 _symmetry_equiv_pos_site_id
 _symmetry_equiv_pos_as_xyz
  1  'x, y, z'
loop_
 _atom_site_type_symbol
 _atom_site_label
 _atom_site_symmetry_multiplicity
 _atom_site_fract_x
 _atom_site_fract_y
 _atom_site_fract_z
 _atom_site_occupancy
  Hf  Hf0  1  0.50000002  0.50000000  0.50000003  1
  Fe  Fe1  1  0.00000000  0.00000000  0.00000000  1
  Si  Si2  1  0.73500003  0.73500001  0.07477203  1
  P  P3  1  0.73500000  0.07477200  0.73500003  1
  P  P4  1  0.26500004  0.92522801  0.26500003  1
  S  S5  1  0.26500001  0.26500000  0.92522803  1
  S  S6  1  0.92522801  0.26500000  0.26500003  1
  S  S7  1  0.07477203  0.73500001  0.73500003  1
