# generated using pymatgen
data_Ba2Ti4PdBr9
_symmetry_space_group_name_H-M   'P 1'
_cell_length_a   6.27905321
_cell_length_b   7.40717316
_cell_length_c   9.10410690
_cell_angle_alpha   90.00000000
_cell_angle_beta   103.32945251
_cell_angle_gamma   90.00000000
_symmetry_Int_Tables_number   1
_chemical_formula_structural   Ba2Ti4PdBr9
_chemical_formula_sum   'Ba2 Ti4 Pd1 Br9'
_cell_volume   412.02526528
_cell_formula_units_Z   1
loop_
 _symmetry_equiv_pos_site_id
 _symmetry_equiv_pos_as_xyz
  1  'x, y, z'
loop_
 _atom_site_type_symbol
 _atom_site_label
 _atom_site_symmetry_multiplicity
 _atom_site_fract_x
 _atom_site_fract_y
 _atom_site_fract_z
 _atom_site_occupancy
  Ba  Ba0  1  0.25791199  0.24999999  0.04629199  1
  Ba  Ba1  1  0.74208797  0.74999998  0.95370802  1
  Ti  Ti2  1  0.88168296  0.74999998  0.39167199  1
  Ti  Ti3  1  0.11831699  0.24999999  0.60832802  1
  Ti  Ti4  1  0.49999998  0.49999999  0.50000001  1
  Ti  Ti5  1  0.49999998  0.00000000  0.50000001  1
  Br  Br6  1  0.26865099  0.74999998  0.36477601  1
  Pd  Pd7  1  0.73134897  0.24999999  0.63522400  1
  Br  Br8  1  0.28769999  0.74999998  0.10586300  1
  Br  Br9  1  0.71229997  0.24999999  0.89413702  1
  Br  Br10  1  0.95908796  0.24999999  0.34191598  1
  Br  Br11  1  0.04091200  0.74999998  0.65808403  1
  Br  Br12  1  0.68189097  0.01046800  0.28360799  1
  Br  Br13  1  0.31810899  0.51046799  0.71639202  1
  Br  Br14  1  0.31810899  0.98953198  0.71639202  1
  Br  Br15  1  0.68189097  0.48953199  0.28360799  1
