# generated using pymatgen
data_BeH4CO10
_symmetry_space_group_name_H-M   'P 1'
_cell_length_a   4.94102812
_cell_length_b   5.02302313
_cell_length_c   5.41648293
_cell_angle_alpha   90.00000000
_cell_angle_beta   90.00000000
_cell_angle_gamma   90.00000000
_symmetry_Int_Tables_number   1
_chemical_formula_structural   BeH4CO10
_chemical_formula_sum   'Be1 H4 C1 O10'
_cell_volume   134.43114004
_cell_formula_units_Z   1
loop_
 _symmetry_equiv_pos_site_id
 _symmetry_equiv_pos_as_xyz
  1  'x, y, z'
loop_
 _atom_site_type_symbol
 _atom_site_label
 _atom_site_symmetry_multiplicity
 _atom_site_fract_x
 _atom_site_fract_y
 _atom_site_fract_z
 _atom_site_occupancy
  Be  Be0  1  0.17886900  0.99229197  0.00000000  1
  C  C1  1  0.82113098  0.49229199  0.50000001  1
  H  H2  1  0.71985798  0.39699499  0.31417000  1
  H  H3  1  0.84760998  0.89650498  0.34666600  1
  H  H4  1  0.71985798  0.39699499  0.68583001  1
  H  H5  1  0.28014199  0.89699498  0.81417001  1
  O  O6  1  0.28014199  0.89699498  0.18583000  1
  O  O7  1  0.06703800  0.45612499  0.50000001  1
  O  O8  1  0.93296198  0.95612498  0.00000000  1
  O  O9  1  0.15239000  0.39650499  0.15333400  1
  O  O10  1  0.43706599  0.34835299  0.00000000  1
  O  O11  1  0.56293399  0.84835298  0.50000001  1
  O  O12  1  0.84760998  0.89650498  0.65333401  1
  O  O13  1  0.15239000  0.39650499  0.84666601  1
  O  O14  1  0.76589298  0.80522898  0.50000001  1
  O  O15  1  0.23410699  0.30522899  -0.00000000  1
