# generated using pymatgen
data_Li2P3S7
_symmetry_space_group_name_H-M   'P 1'
_cell_length_a   5.13355064
_cell_length_b   5.97126484
_cell_length_c   6.95760489
_cell_angle_alpha   112.94498444
_cell_angle_beta   108.85882568
_cell_angle_gamma   96.11064911
_symmetry_Int_Tables_number   1
_chemical_formula_structural   Li2P3S7
_chemical_formula_sum   'Li2 P3 S7'
_cell_volume   179.12440206
_cell_formula_units_Z   1
loop_
 _symmetry_equiv_pos_site_id
 _symmetry_equiv_pos_as_xyz
  1  'x, y, z'
loop_
 _atom_site_type_symbol
 _atom_site_label
 _atom_site_symmetry_multiplicity
 _atom_site_fract_x
 _atom_site_fract_y
 _atom_site_fract_z
 _atom_site_occupancy
  Li  Li0  1  0.88708603  0.13708600  0.27417204  1
  Li  Li1  1  0.11291401  0.86291398  0.72582800  1
  P  P2  1  0.34650602  0.59650599  0.19301201  1
  P  P3  1  0.65349403  0.40349399  0.80698802  1
  S  S4  1  0.22832901  0.55109699  0.39972601  1
  P  P5  1  0.49644602  0.67551498  0.93483801  1
  S  S6  1  0.50355402  0.32448499  0.06516202  1
  S  S7  1  0.67139703  0.84862898  0.39972602  1
  S  S8  1  0.06160801  0.74067698  0.06516200  1
  S  S9  1  0.77167103  0.44890299  0.60027403  1
  S  S10  1  0.32860301  0.15137100  0.60027401  1
  S  S11  1  0.93839204  0.25932299  0.93483803  1
