# generated using pymatgen
data_Tl5AgClF9
_symmetry_space_group_name_H-M   'P 1'
_cell_length_a   6.55376196
_cell_length_b   6.55376196
_cell_length_c   6.83666992
_cell_angle_alpha   90.00000000
_cell_angle_beta   90.00000000
_cell_angle_gamma   90.00000000
_symmetry_Int_Tables_number   1
_chemical_formula_structural   Tl5AgClF9
_chemical_formula_sum   'Tl5 Ag1 Cl1 F9'
_cell_volume   293.64725055
_cell_formula_units_Z   1
loop_
 _symmetry_equiv_pos_site_id
 _symmetry_equiv_pos_as_xyz
  1  'x, y, z'
loop_
 _atom_site_type_symbol
 _atom_site_label
 _atom_site_symmetry_multiplicity
 _atom_site_fract_x
 _atom_site_fract_y
 _atom_site_fract_z
 _atom_site_occupancy
  Tl  Tl0  1  0.65461500  0.34538500  0.73511101  1
  Tl  Tl1  1  0.65461500  0.34538500  0.26488900  1
  Tl  Tl2  1  0.84538501  0.84538501  0.76488901  1
  Tl  Tl3  1  0.15461500  0.15461500  0.76488901  1
  Tl  Tl4  1  -0.00000000  0.50000000  0.00000000  1
  Ag  Ag5  1  0.50000000  0.00000000  0.50000001  1
  Cl  Cl6  1  0.84538501  0.84538501  0.23511100  1
  F  F7  1  0.34538500  0.65461500  0.73511101  1
  F  F8  1  0.15461500  0.15461500  0.23511100  1
  F  F9  1  0.50000000  0.00000000  -0.00000000  1
  F  F10  1  0.34538500  0.65461500  0.26488900  1
  F  F11  1  -0.00000000  0.50000000  0.50000001  1
  F  F12  1  0.83969001  0.16031000  -0.00000000  1
  F  F13  1  0.66031000  0.66031000  0.50000001  1
  F  F14  1  0.16031000  0.83969001  0.00000000  1
  F  F15  1  0.33969000  0.33969000  0.50000001  1
