# generated using pymatgen
data_PmZrCl4
_symmetry_space_group_name_H-M   'P 1'
_cell_length_a   4.86077499
_cell_length_b   4.92391777
_cell_length_c   6.89256620
_cell_angle_alpha   90.00000000
_cell_angle_beta   90.00000000
_cell_angle_gamma   90.00000000
_symmetry_Int_Tables_number   1
_chemical_formula_structural   PmZrCl4
_chemical_formula_sum   'Pm1 Zr1 Cl4'
_cell_volume   164.96706806
_cell_formula_units_Z   1
loop_
 _symmetry_equiv_pos_site_id
 _symmetry_equiv_pos_as_xyz
  1  'x, y, z'
loop_
 _atom_site_type_symbol
 _atom_site_label
 _atom_site_symmetry_multiplicity
 _atom_site_fract_x
 _atom_site_fract_y
 _atom_site_fract_z
 _atom_site_occupancy
  Pm  Pm0  1  0.73808800  0.00000000  0.49999999  1
  Zr  Zr1  1  0.26191200  0.50000002  0.00000000  1
  Cl  Cl2  1  0.74806400  0.50000002  0.25326099  1
  Cl  Cl3  1  0.25193600  0.00000000  0.75326098  1
  Cl  Cl4  1  0.74806400  0.50000002  0.74673898  1
  Cl  Cl5  1  0.25193600  0.00000000  0.24673899  1
