# generated using pymatgen
data_Na2RhO
_symmetry_space_group_name_H-M   'P 1'
_cell_length_a   3.33292937
_cell_length_b   3.33292937
_cell_length_c   5.88324833
_cell_angle_alpha   73.54537964
_cell_angle_beta   73.54537964
_cell_angle_gamma   60.00001144
_symmetry_Int_Tables_number   1
_chemical_formula_structural   Na2RhO
_chemical_formula_sum   'Na2 Rh1 O1'
_cell_volume   53.48488149
_cell_formula_units_Z   1
loop_
 _symmetry_equiv_pos_site_id
 _symmetry_equiv_pos_as_xyz
  1  'x, y, z'
loop_
 _atom_site_type_symbol
 _atom_site_label
 _atom_site_symmetry_multiplicity
 _atom_site_fract_x
 _atom_site_fract_y
 _atom_site_fract_z
 _atom_site_occupancy
  Na  Na0  1  0.00000000  0.00000000  0.00000000  1
  Na  Na1  1  0.50000002  0.50000001  0.50000001  1
  Rh  Rh2  1  0.23550201  0.23550200  0.29349400  1
  O  O3  1  0.76449803  0.76449801  0.70650601  1
