# generated using pymatgen
data_BMo6AsW
_symmetry_space_group_name_H-M   'P 1'
_cell_length_a   3.76416397
_cell_length_b   6.63236189
_cell_length_c   6.63236189
_cell_angle_alpha   120.00000000
_cell_angle_beta   90.00000000
_cell_angle_gamma   90.00000000
_symmetry_Int_Tables_number   1
_chemical_formula_structural   BMo6AsW
_chemical_formula_sum   'B1 Mo6 As1 W1'
_cell_volume   143.39552401
_cell_formula_units_Z   1
loop_
 _symmetry_equiv_pos_site_id
 _symmetry_equiv_pos_as_xyz
  1  'x, y, z'
loop_
 _atom_site_type_symbol
 _atom_site_label
 _atom_site_symmetry_multiplicity
 _atom_site_fract_x
 _atom_site_fract_y
 _atom_site_fract_z
 _atom_site_occupancy
  Mo  Mo0  1  0.50000000  0.33333334  0.66666668  1
  Mo  Mo1  1  0.50000000  0.66666668  0.33333334  1
  B  B2  1  0.00000000  0.00000000  0.00000000  1
  Mo  Mo3  1  0.50000000  0.77229801  1.00000002  1
  Mo  Mo4  1  0.50000000  0.22770200  0.22770200  1
  As  As5  1  0.50000000  0.00000000  0.77229802  1
  W  W6  1  -0.00000000  0.33749301  0.00000000  1
  Mo  Mo7  1  -0.00000000  0.66250701  0.66250701  1
  Mo  Mo8  1  1.00000001  0.00000000  0.33749301  1
