# generated using pymatgen
data_Rb3CaSCl3
_symmetry_space_group_name_H-M   'P 1'
_cell_length_a   5.12368393
_cell_length_b   5.12368393
_cell_length_c   10.16294861
_cell_angle_alpha   90.00000000
_cell_angle_beta   90.00000000
_cell_angle_gamma   90.00000000
_symmetry_Int_Tables_number   1
_chemical_formula_structural   Rb3CaSCl3
_chemical_formula_sum   'Rb3 Ca1 S1 Cl3'
_cell_volume   266.79911928
_cell_formula_units_Z   1
loop_
 _symmetry_equiv_pos_site_id
 _symmetry_equiv_pos_as_xyz
  1  'x, y, z'
loop_
 _atom_site_type_symbol
 _atom_site_label
 _atom_site_symmetry_multiplicity
 _atom_site_fract_x
 _atom_site_fract_y
 _atom_site_fract_z
 _atom_site_occupancy
  Rb  Rb0  1  0.50000001  0.00000000  0.83183503  1
  Rb  Rb1  1  -0.00000000  0.50000001  0.16816501  1
  Ca  Ca2  1  0.50000001  0.50000001  0.50000002  1
  Rb  Rb3  1  0.00000000  0.00000000  0.50000002  1
  Cl  Cl4  1  -0.00000000  0.50000001  0.80046303  1
  Cl  Cl5  1  0.50000001  0.00000000  0.19953701  1
  Cl  Cl6  1  0.50000001  0.00000000  0.58783102  1
  S  S7  1  -0.00000000  0.50000001  0.41216902  1
