# generated using pymatgen
data_Li5V(SO)6
_symmetry_space_group_name_H-M   'P 1'
_cell_length_a   4.97794724
_cell_length_b   4.97794724
_cell_length_c   10.05393791
_cell_angle_alpha   90.00000000
_cell_angle_beta   90.00000000
_cell_angle_gamma   90.00000000
_symmetry_Int_Tables_number   1
_chemical_formula_structural   Li5V(SO)6
_chemical_formula_sum   'Li5 V1 S6 O6'
_cell_volume   249.13616599
_cell_formula_units_Z   1
loop_
 _symmetry_equiv_pos_site_id
 _symmetry_equiv_pos_as_xyz
  1  'x, y, z'
loop_
 _atom_site_type_symbol
 _atom_site_label
 _atom_site_symmetry_multiplicity
 _atom_site_fract_x
 _atom_site_fract_y
 _atom_site_fract_z
 _atom_site_occupancy
  Li  Li0  1  0.49999998  0.49999998  0.33451100  1
  Li  Li1  1  0.49999998  0.49999998  0.66548901  1
  Li  Li2  1  0.00000000  0.00000000  0.16548900  1
  Li  Li3  1  0.00000000  0.00000000  0.83451101  1
  Li  Li4  1  0.49999998  0.49999998  0.00000000  1
  V  V5  1  0.00000000  0.00000000  0.50000000  1
  S  S6  1  0.68351897  0.68351897  0.14651100  1
  S  S7  1  0.68351897  0.68351897  0.85348901  1
  S  S8  1  0.72130097  0.72130097  0.50000000  1
  O  O9  1  0.77869896  0.22130099  0.00000000  1
  O  O10  1  0.81648096  0.18351899  0.35348900  1
  O  O11  1  0.81648096  0.18351899  0.64651101  1
  S  S12  1  0.18351899  0.81648096  0.35348900  1
  O  O13  1  0.18351899  0.81648096  0.64651101  1
  O  O14  1  0.22130099  0.77869896  0.00000000  1
  S  S15  1  0.27869899  0.27869899  0.50000000  1
  S  S16  1  0.31648099  0.31648099  0.14651100  1
  O  O17  1  0.31648099  0.31648099  0.85348901  1
