# generated using pymatgen
data_Sr5B(H2O5)2
_symmetry_space_group_name_H-M   'P 1'
_cell_length_a   5.77338123
_cell_length_b   5.77338123
_cell_length_c   8.04646206
_cell_angle_alpha   90.00000000
_cell_angle_beta   90.00000000
_cell_angle_gamma   90.51080322
_symmetry_Int_Tables_number   1
_chemical_formula_structural   Sr5B(H2O5)2
_chemical_formula_sum   'Sr5 B1 H4 O10'
_cell_volume   268.19345859
_cell_formula_units_Z   1
loop_
 _symmetry_equiv_pos_site_id
 _symmetry_equiv_pos_as_xyz
  1  'x, y, z'
loop_
 _atom_site_type_symbol
 _atom_site_label
 _atom_site_symmetry_multiplicity
 _atom_site_fract_x
 _atom_site_fract_y
 _atom_site_fract_z
 _atom_site_occupancy
  Sr  Sr0  1  0.00000000  0.00000000  0.00000000  1
  Sr  Sr1  1  0.00000000  0.00000000  0.50000000  1
  Sr  Sr2  1  0.31717005  0.68283001  0.74999999  1
  Sr  Sr3  1  0.68283003  0.31717000  0.25000000  1
  B  B4  1  0.20983504  0.60058501  0.05873400  1
  Sr  Sr5  1  0.60058502  0.20983500  0.94126599  1
  H  H6  1  0.60058502  0.20983500  0.55873400  1
  H  H7  1  0.20983504  0.60058501  0.44126600  1
  O  O8  1  0.39941505  0.79016501  0.44126600  1
  H  H9  1  0.79016503  0.39941500  0.94126599  1
  H  H10  1  0.39941505  0.79016501  0.05873400  1
  O  O11  1  0.79016503  0.39941500  0.55873400  1
  O  O12  1  0.27725102  0.21969300  0.74999999  1
  O  O13  1  0.21969302  0.27725100  0.25000000  1
  O  O14  1  0.78030705  0.72274901  0.74999999  1
  O  O15  1  0.72274906  0.78030701  0.25000000  1
  O  O16  1  0.25535005  0.74465001  0.99966099  1
  O  O17  1  0.25535005  0.74465001  0.50033900  1
  O  O18  1  0.74465002  0.25535000  0.49966100  1
  O  O19  1  0.74465002  0.25535000  0.00033900  1
