# generated using pymatgen
data_LiAsO4
_symmetry_space_group_name_H-M   'P 1'
_cell_length_a   4.50075817
_cell_length_b   4.50075722
_cell_length_c   6.56745720
_cell_angle_alpha   90.00000000
_cell_angle_beta   90.00000000
_cell_angle_gamma   120.00000763
_symmetry_Int_Tables_number   1
_chemical_formula_structural   LiAsO4
_chemical_formula_sum   'Li2 As2 O8'
_cell_volume   115.21237111
_cell_formula_units_Z   2
loop_
 _symmetry_equiv_pos_site_id
 _symmetry_equiv_pos_as_xyz
  1  'x, y, z'
loop_
 _atom_site_type_symbol
 _atom_site_label
 _atom_site_symmetry_multiplicity
 _atom_site_fract_x
 _atom_site_fract_y
 _atom_site_fract_z
 _atom_site_occupancy
  Li  Li0  1  0.00000000  0.00000000  0.49999998  1
  Li  Li1  1  0.33333336  0.66666670  0.12230400  1
  As  As2  1  0.66666666  0.33333335  0.87769597  1
  As  As3  1  0.00000000  0.00000000  0.00000000  1
  O  O4  1  0.67745702  0.83872905  0.85593397  1
  O  O5  1  0.16127204  0.83872905  0.85593397  1
  O  O6  1  0.16127201  0.32254402  0.85593397  1
  O  O7  1  0.32254300  0.16127101  0.14406600  1
  O  O8  1  0.83872798  0.16127101  0.14406600  1
  O  O9  1  0.83872801  0.67745604  0.14406600  1
  O  O10  1  0.33333336  0.66666670  0.41438099  1
  O  O11  1  0.66666666  0.33333335  0.58561898  1
