# generated using pymatgen
data_In
_symmetry_space_group_name_H-M   'P 1'
_cell_length_a   4.16203785
_cell_length_b   5.34899187
_cell_length_c   10.13425159
_cell_angle_alpha   90.00000000
_cell_angle_beta   90.00000000
_cell_angle_gamma   90.00000000
_symmetry_Int_Tables_number   1
_chemical_formula_structural   In
_chemical_formula_sum   In6
_cell_volume   225.61587009
_cell_formula_units_Z   6
loop_
 _symmetry_equiv_pos_site_id
 _symmetry_equiv_pos_as_xyz
  1  'x, y, z'
loop_
 _atom_site_type_symbol
 _atom_site_label
 _atom_site_symmetry_multiplicity
 _atom_site_fract_x
 _atom_site_fract_y
 _atom_site_fract_z
 _atom_site_occupancy
  In  In0  1  0.50000002  0.50000001  0.88948504  1
  In  In1  1  0.00000000  0.00000000  0.11051500  1
  In  In2  1  0.50000002  0.00000000  0.93675504  1
  In  In3  1  -0.00000000  0.50000001  0.06324500  1
  In  In4  1  0.50000002  0.00000000  0.32941901  1
  In  In5  1  -0.00000000  0.50000001  0.67058103  1
