# generated using pymatgen
data_CsI2ClO2
_symmetry_space_group_name_H-M   'P 1'
_cell_length_a   3.95297503
_cell_length_b   3.95297503
_cell_length_c   8.70466232
_cell_angle_alpha   90.00000000
_cell_angle_beta   90.00000000
_cell_angle_gamma   90.00000000
_symmetry_Int_Tables_number   1
_chemical_formula_structural   CsI2ClO2
_chemical_formula_sum   'Cs1 I2 Cl1 O2'
_cell_volume   136.01915465
_cell_formula_units_Z   1
loop_
 _symmetry_equiv_pos_site_id
 _symmetry_equiv_pos_as_xyz
  1  'x, y, z'
loop_
 _atom_site_type_symbol
 _atom_site_label
 _atom_site_symmetry_multiplicity
 _atom_site_fract_x
 _atom_site_fract_y
 _atom_site_fract_z
 _atom_site_occupancy
  I  I0  1  0.50000000  0.00000000  0.86426497  1
  Cs  Cs1  1  -0.00000000  0.50000000  0.13573499  1
  Cl  Cl2  1  -0.00000000  0.50000000  0.67390697  1
  I  I3  1  0.50000000  0.00000000  0.32609299  1
  O  O4  1  0.00000000  0.00000000  0.00000000  1
  O  O5  1  0.50000000  0.50000000  0.00000000  1
