# generated using pymatgen
data_K2ZnSi3O8
_symmetry_space_group_name_H-M   'P 1'
_cell_length_a   5.19846201
_cell_length_b   5.22727585
_cell_length_c   8.80271435
_cell_angle_alpha   89.83647919
_cell_angle_beta   89.67115021
_cell_angle_gamma   60.18217468
_symmetry_Int_Tables_number   1
_chemical_formula_structural   K2ZnSi3O8
_chemical_formula_sum   'K2 Zn1 Si3 O8'
_cell_volume   207.53182122
_cell_formula_units_Z   1
loop_
 _symmetry_equiv_pos_site_id
 _symmetry_equiv_pos_as_xyz
  1  'x, y, z'
loop_
 _atom_site_type_symbol
 _atom_site_label
 _atom_site_symmetry_multiplicity
 _atom_site_fract_x
 _atom_site_fract_y
 _atom_site_fract_z
 _atom_site_occupancy
  K  K0  1  0.96409698  0.99717301  0.49393295  1
  K  K1  1  0.96127000  0.00282700  0.99393296  1
  Zn  Zn2  1  0.29521399  0.33946900  0.30805698  1
  Si  Si3  1  0.63468299  0.66053100  0.80805695  1
  Si  Si4  1  0.63091399  0.66952500  0.19781197  1
  Si  Si5  1  0.30043899  0.33047500  0.69781196  1
  O  O6  1  0.35563399  0.66643700  0.24359797  1
  O  O7  1  0.02207099  0.33356300  0.74359796  1
  O  O8  1  0.61588098  0.94746601  0.25081496  1
  O  O9  1  0.56334700  0.05253400  0.75081497  1
  O  O10  1  0.31228999  0.34529000  0.52892597  1
  O  O11  1  0.65757999  0.65471000  0.02892598  1
  O  O12  1  0.30505499  0.59047100  0.76385895  1
  O  O13  1  0.89552599  0.40952900  0.26385898  1
