# generated using pymatgen
data_Li2VNiF3
_symmetry_space_group_name_H-M   'P 1'
_cell_length_a   5.06644535
_cell_length_b   5.48480940
_cell_length_c   6.03277349
_cell_angle_alpha   116.59976959
_cell_angle_beta   90.03520203
_cell_angle_gamma   90.04277039
_symmetry_Int_Tables_number   1
_chemical_formula_structural   Li2VNiF3
_chemical_formula_sum   'Li4 V2 Ni2 F6'
_cell_volume   149.89766583
_cell_formula_units_Z   2
loop_
 _symmetry_equiv_pos_site_id
 _symmetry_equiv_pos_as_xyz
  1  'x, y, z'
loop_
 _atom_site_type_symbol
 _atom_site_label
 _atom_site_symmetry_multiplicity
 _atom_site_fract_x
 _atom_site_fract_y
 _atom_site_fract_z
 _atom_site_occupancy
  Li  Li0  1  0.99072501  0.13311900  0.58597894  1
  Li  Li1  1  0.52867101  0.07595600  0.30859597  1
  Li  Li2  1  0.52766799  0.63928099  0.59030695  1
  Li  Li3  1  0.99304200  0.57029099  0.31097193  1
  V  V4  1  0.98537398  0.98786599  0.00909192  1
  V  V5  1  0.53605099  0.48886899  0.00925596  1
  Ni  Ni6  1  0.80294499  0.77178199  0.13225494  1
  Ni  Ni7  1  0.71838400  0.26952200  0.12850195  1
  F  F8  1  0.65818000  0.31817500  0.64294895  1
  F  F9  1  0.17045800  0.20820200  0.34756698  1
  F  F10  1  0.31806798  0.73755499  0.88916596  1
  F  F11  1  0.20366300  0.23525700  0.88652598  1
  F  F12  1  0.86296299  0.81557699  0.64295593  1
  F  F13  1  0.34975498  0.70564299  0.34705996  1
