# generated using pymatgen
data_Y2AuF3
_symmetry_space_group_name_H-M   'P 1'
_cell_length_a   3.51913190
_cell_length_b   5.13893700
_cell_length_c   5.13893700
_cell_angle_alpha   90.00000000
_cell_angle_beta   90.00000000
_cell_angle_gamma   90.00000000
_symmetry_Int_Tables_number   1
_chemical_formula_structural   Y2AuF3
_chemical_formula_sum   'Y2 Au1 F3'
_cell_volume   92.93560516
_cell_formula_units_Z   1
loop_
 _symmetry_equiv_pos_site_id
 _symmetry_equiv_pos_as_xyz
  1  'x, y, z'
loop_
 _atom_site_type_symbol
 _atom_site_label
 _atom_site_symmetry_multiplicity
 _atom_site_fract_x
 _atom_site_fract_y
 _atom_site_fract_z
 _atom_site_occupancy
  Y  Y0  1  0.00000000  0.00000000  0.00000000  1
  Y  Y1  1  0.50000001  0.50000000  0.50000000  1
  Au  Au2  1  1.00000003  0.30729400  0.30729400  1
  F  F3  1  1.00000003  0.69270600  0.69270600  1
  F  F4  1  0.50000001  0.19270600  0.80729400  1
  F  F5  1  0.50000001  0.80729400  0.19270600  1
