# generated using pymatgen
data_In2Te3SeO14
_symmetry_space_group_name_H-M   'P 1'
_cell_length_a   5.00024700
_cell_length_b   6.94551611
_cell_length_c   8.79615402
_cell_angle_alpha   90.00000000
_cell_angle_beta   90.00000000
_cell_angle_gamma   90.00000000
_symmetry_Int_Tables_number   1
_chemical_formula_structural   In2Te3SeO14
_chemical_formula_sum   'In2 Te3 Se1 O14'
_cell_volume   305.48423759
_cell_formula_units_Z   1
loop_
 _symmetry_equiv_pos_site_id
 _symmetry_equiv_pos_as_xyz
  1  'x, y, z'
loop_
 _atom_site_type_symbol
 _atom_site_label
 _atom_site_symmetry_multiplicity
 _atom_site_fract_x
 _atom_site_fract_y
 _atom_site_fract_z
 _atom_site_occupancy
  In  In0  1  0.17333500  0.82086499  0.80299300  1
  Te  Te1  1  0.67333500  0.17913500  0.69700700  1
  Te  Te2  1  0.17333500  0.82086499  0.19700700  1
  In  In3  1  0.67333500  0.17913500  0.30299300  1
  Te  Te4  1  0.69526800  0.51070799  0.00000000  1
  Se  Se5  1  0.19526800  0.48929199  0.50000000  1
  O  O6  1  0.32455300  0.05824200  0.71115400  1
  O  O7  1  0.27314300  0.93277099  0.00000000  1
  O  O8  1  0.32455300  0.05824200  0.28884600  1
  O  O9  1  0.54646200  0.55758799  0.14042100  1
  O  O10  1  0.82455300  0.94175799  0.78884600  1
  O  O11  1  0.54646200  0.55758799  0.85957900  1
  O  O12  1  0.82455300  0.94175799  0.21115400  1
  O  O13  1  0.04646200  0.44241199  0.64042100  1
  O  O14  1  0.04646200  0.44241199  0.35957900  1
  O  O15  1  0.77314300  0.06722900  0.50000000  1
  O  O16  1  0.27456400  0.69494599  0.50000000  1
  O  O17  1  0.95332500  0.63528099  0.00000000  1
  O  O18  1  0.77456400  0.30505400  0.00000000  1
  O  O19  1  0.45332500  0.36471899  0.50000000  1
