# generated using pymatgen
data_Cs2BaWI3Br2N(Cl2O)2
_symmetry_space_group_name_H-M   'P 1'
_cell_length_a   3.97181106
_cell_length_b   3.97181106
_cell_length_c   15.72054577
_cell_angle_alpha   90.00000000
_cell_angle_beta   90.00000000
_cell_angle_gamma   90.00000000
_symmetry_Int_Tables_number   1
_chemical_formula_structural   Cs2BaWI3Br2N(Cl2O)2
_chemical_formula_sum   'Cs2 Ba1 W1 I3 Br2 N1 Cl4 O2'
_cell_volume   247.99605945
_cell_formula_units_Z   1
loop_
 _symmetry_equiv_pos_site_id
 _symmetry_equiv_pos_as_xyz
  1  'x, y, z'
loop_
 _atom_site_type_symbol
 _atom_site_label
 _atom_site_symmetry_multiplicity
 _atom_site_fract_x
 _atom_site_fract_y
 _atom_site_fract_z
 _atom_site_occupancy
  Ba  Ba0  1  0.49999999  0.49999999  0.50000001  1
  Cs  Cs1  1  0.49999999  0.49999999  0.85589301  1
  Cs  Cs2  1  0.49999999  0.49999999  0.14410700  1
  I  I3  1  0.00000000  0.00000000  0.00000000  1
  W  W4  1  0.00000000  0.00000000  0.27988600  1
  I  I5  1  0.00000000  0.00000000  0.72011401  1
  I  I6  1  0.00000000  0.00000000  0.60614501  1
  N  N7  1  0.00000000  0.00000000  0.39385501  1
  O  O8  1  0.49999999  0.00000000  0.74578701  1
  Br  Br9  1  -0.00000000  0.49999999  0.74578701  1
  Br  Br10  1  0.49999999  0.00000000  0.25421300  1
  O  O11  1  -0.00000000  0.49999999  0.25421300  1
  Cl  Cl12  1  -0.00000000  0.49999999  0.00000000  1
  Cl  Cl13  1  0.49999999  0.00000000  -0.00000000  1
  Cl  Cl14  1  0.00000000  0.00000000  0.12565900  1
  Cl  Cl15  1  0.00000000  0.00000000  0.87434101  1
