# generated using pymatgen
data_Hf9AlGe6
_symmetry_space_group_name_H-M   'P 1'
_cell_length_a   3.99819303
_cell_length_b   7.91159010
_cell_length_c   11.35508633
_cell_angle_alpha   90.00000000
_cell_angle_beta   90.00000000
_cell_angle_gamma   90.00000000
_symmetry_Int_Tables_number   1
_chemical_formula_structural   Hf9AlGe6
_chemical_formula_sum   'Hf9 Al1 Ge6'
_cell_volume   359.18482146
_cell_formula_units_Z   1
loop_
 _symmetry_equiv_pos_site_id
 _symmetry_equiv_pos_as_xyz
  1  'x, y, z'
loop_
 _atom_site_type_symbol
 _atom_site_label
 _atom_site_symmetry_multiplicity
 _atom_site_fract_x
 _atom_site_fract_y
 _atom_site_fract_z
 _atom_site_occupancy
  Hf  Hf0  1  0.50000000  0.43361099  0.16964500  1
  Hf  Hf1  1  0.50000000  0.06638900  0.66964498  1
  Hf  Hf2  1  0.50000000  0.56638899  0.83035498  1
  Hf  Hf3  1  0.50000000  0.93361099  0.33035499  1
  Hf  Hf4  1  -0.00000000  0.49999999  0.49999999  1
  Hf  Hf5  1  0.00000000  0.00000000  0.00000000  1
  Hf  Hf6  1  -0.00000000  0.34974300  0.70157798  1
  Ge  Ge7  1  -0.00000000  0.15025700  0.20157799  1
  Ge  Ge8  1  0.00000000  0.00000000  0.49999999  1
  Hf  Hf9  1  0.50000000  0.81351999  0.07461500  1
  Ge  Ge10  1  -0.00000000  0.49999999  0.00000000  1
  Ge  Ge11  1  -0.00000000  0.65025699  0.29842199  1
  Ge  Ge12  1  0.50000000  0.31352000  0.42538499  1
  Al  Al13  1  0.50000000  0.68647999  0.57461498  1
  Hf  Hf14  1  0.50000000  0.18648000  0.92538497  1
  Ge  Ge15  1  -0.00000000  0.84974299  0.79842198  1
