# generated using pymatgen
data_CsBr
_symmetry_space_group_name_H-M   'P 1'
_cell_length_a   7.24391460
_cell_length_b   7.24391460
_cell_length_c   7.24391460
_cell_angle_alpha   105.25631714
_cell_angle_beta   105.25631714
_cell_angle_gamma   118.27635956
_symmetry_Int_Tables_number   1
_chemical_formula_structural   CsBr
_chemical_formula_sum   'Cs4 Br4'
_cell_volume   287.36097449
_cell_formula_units_Z   4
loop_
 _symmetry_equiv_pos_site_id
 _symmetry_equiv_pos_as_xyz
  1  'x, y, z'
loop_
 _atom_site_type_symbol
 _atom_site_label
 _atom_site_symmetry_multiplicity
 _atom_site_fract_x
 _atom_site_fract_y
 _atom_site_fract_z
 _atom_site_occupancy
  Cs  Cs0  1  0.25000000  0.25000000  1.00000000  1
  Cs  Cs1  1  0.74999999  0.74999999  0.00000007  1
  Cs  Cs2  1  0.74999999  0.25000000  0.50000003  1
  Cs  Cs3  1  0.25000000  0.74999999  0.50000003  1
  Br  Br4  1  0.82480299  0.32480300  0.14960605  1
  Br  Br5  1  0.67519699  0.82480199  0.50000005  1
  Br  Br6  1  0.32480300  0.17519800  0.50000001  1
  Br  Br7  1  0.17519700  0.67519699  0.85039402  1
