# generated using pymatgen
data_KNa6OF9
_symmetry_space_group_name_H-M   'P 1'
_cell_length_a   3.91119599
_cell_length_b   3.91119599
_cell_length_c   15.28115749
_cell_angle_alpha   97.35256195
_cell_angle_beta   97.35256195
_cell_angle_gamma   90.00000000
_symmetry_Int_Tables_number   1
_chemical_formula_structural   KNa6OF9
_chemical_formula_sum   'K1 Na6 O1 F9'
_cell_volume   229.90248718
_cell_formula_units_Z   1
loop_
 _symmetry_equiv_pos_site_id
 _symmetry_equiv_pos_as_xyz
  1  'x, y, z'
loop_
 _atom_site_type_symbol
 _atom_site_label
 _atom_site_symmetry_multiplicity
 _atom_site_fract_x
 _atom_site_fract_y
 _atom_site_fract_z
 _atom_site_occupancy
  Na  Na0  1  0.29225600  0.29225600  0.58451200  1
  Na  Na1  1  0.70774401  0.70774400  0.41548800  1
  Na  Na2  1  0.42844401  0.42844400  0.85688799  1
  Na  Na3  1  0.57155601  0.57155600  0.14311201  1
  Na  Na4  1  0.13990900  0.13990900  0.27981800  1
  Na  Na5  1  0.86009101  0.86009100  0.72018200  1
  K  K6  1  0.00000000  0.00000000  0.00000000  1
  F  F7  1  0.80140601  0.80140600  0.60281200  1
  O  O8  1  0.19859400  0.19859400  0.39718800  1
  F  F9  1  0.37349501  0.87349500  0.74699000  1
  F  F10  1  0.87349501  0.37349500  0.74699000  1
  F  F11  1  0.62650500  0.12650500  0.25301000  1
  F  F12  1  0.12650501  0.62650500  0.25301000  1
  F  F13  1  0.93575201  0.93575201  0.87150400  1
  F  F14  1  0.00000000  0.50000000  0.00000000  1
  F  F15  1  0.50000000  0.00000000  0.00000000  1
  F  F16  1  0.06424800  0.06424800  0.12849600  1
