# generated using pymatgen
data_Na2VBi(O4F)2
_symmetry_space_group_name_H-M   'P 1'
_cell_length_a   5.45050240
_cell_length_b   5.45050240
_cell_length_c   7.43976307
_cell_angle_alpha   69.98009491
_cell_angle_beta   69.98009491
_cell_angle_gamma   71.99384308
_symmetry_Int_Tables_number   1
_chemical_formula_structural   Na2VBi(O4F)2
_chemical_formula_sum   'Na2 V1 Bi1 O8 F2'
_cell_volume   190.44990654
_cell_formula_units_Z   1
loop_
 _symmetry_equiv_pos_site_id
 _symmetry_equiv_pos_as_xyz
  1  'x, y, z'
loop_
 _atom_site_type_symbol
 _atom_site_label
 _atom_site_symmetry_multiplicity
 _atom_site_fract_x
 _atom_site_fract_y
 _atom_site_fract_z
 _atom_site_occupancy
  Na  Na0  1  0.54150398  0.45849600  0.74999995  1
  Na  Na1  1  0.45849598  0.54150400  0.24999997  1
  Bi  Bi2  1  0.00000000  0.00000000  0.49999999  1
  V  V3  1  0.00000000  0.00000000  0.00000000  1
  O  O4  1  0.20502899  0.23923200  0.38643198  1
  F  F5  1  0.76076797  0.79497099  0.11356795  1
  O  O6  1  0.79497097  0.76076799  0.61356794  1
  F  F7  1  0.23923199  0.20502900  0.88643196  1
  O  O8  1  0.05801998  0.94197999  0.24999997  1
  O  O9  1  0.94197999  0.05802000  0.74999995  1
  O  O10  1  0.27250198  0.70531799  0.97393595  1
  O  O11  1  0.29468198  0.72749799  0.52606396  1
  O  O12  1  0.72749798  0.29468200  0.02606397  1
  O  O13  1  0.70531798  0.27250200  0.47393596  1
