# generated using pymatgen
data_CsK2AlN2
_symmetry_space_group_name_H-M   'P 1'
_cell_length_a   4.34457493
_cell_length_b   4.34457493
_cell_length_c   10.18105221
_cell_angle_alpha   77.68032837
_cell_angle_beta   77.68032837
_cell_angle_gamma   59.99998856
_symmetry_Int_Tables_number   1
_chemical_formula_structural   CsK2AlN2
_chemical_formula_sum   'Cs1 K2 Al1 N2'
_cell_volume   161.29466375
_cell_formula_units_Z   1
loop_
 _symmetry_equiv_pos_site_id
 _symmetry_equiv_pos_as_xyz
  1  'x, y, z'
loop_
 _atom_site_type_symbol
 _atom_site_label
 _atom_site_symmetry_multiplicity
 _atom_site_fract_x
 _atom_site_fract_y
 _atom_site_fract_z
 _atom_site_occupancy
  K  K0  1  0.74845202  0.74845198  0.75464402  1
  K  K1  1  0.25154801  0.25154799  0.24535601  1
  Al  Al2  1  0.50000001  0.49999998  0.50000001  1
  Cs  Cs3  1  0.00000000  0.00000000  0.00000000  1
  N  N4  1  0.43882101  0.43882099  0.68353702  1
  N  N5  1  0.56117901  0.56117898  0.31646300  1
