# generated using pymatgen
data_LiLa3PbSe3S4
_symmetry_space_group_name_H-M   'P 1'
_cell_length_a   4.13310289
_cell_length_b   4.13310289
_cell_length_c   14.33616543
_cell_angle_alpha   90.00000000
_cell_angle_beta   90.00000000
_cell_angle_gamma   90.00000000
_symmetry_Int_Tables_number   1
_chemical_formula_structural   LiLa3PbSe3S4
_chemical_formula_sum   'Li1 La3 Pb1 Se3 S4'
_cell_volume   244.89811265
_cell_formula_units_Z   1
loop_
 _symmetry_equiv_pos_site_id
 _symmetry_equiv_pos_as_xyz
  1  'x, y, z'
loop_
 _atom_site_type_symbol
 _atom_site_label
 _atom_site_symmetry_multiplicity
 _atom_site_fract_x
 _atom_site_fract_y
 _atom_site_fract_z
 _atom_site_occupancy
  La  La0  1  0.00000000  0.00000000  0.08287400  1
  Li  Li1  1  0.00000000  0.00000000  0.58723798  1
  La  La2  1  0.50000001  0.50000001  0.41857999  1
  La  La3  1  0.50000001  0.50000001  0.91424597  1
  Se  Se4  1  0.00000000  0.00000000  0.31417399  1
  Se  Se5  1  0.00000000  0.00000000  0.81656598  1
  Se  Se6  1  0.50000001  0.50000001  0.18053699  1
  S  S7  1  0.50000001  0.50000001  0.68368698  1
  S  S8  1  0.50000001  0.00000000  0.99852797  1
  S  S9  1  0.50000001  0.00000000  0.50252098  1
  S  S10  1  -0.00000000  0.50000001  0.99852797  1
  Pb  Pb11  1  -0.00000000  0.50000001  0.50252098  1
