# generated using pymatgen
data_AlCu2AgBr8
_symmetry_space_group_name_H-M   'P 1'
_cell_length_a   5.55590200
_cell_length_b   5.55590200
_cell_length_c   10.08405972
_cell_angle_alpha   90.00000000
_cell_angle_beta   90.00000000
_cell_angle_gamma   90.00000000
_symmetry_Int_Tables_number   1
_chemical_formula_structural   AlCu2AgBr8
_chemical_formula_sum   'Al1 Cu2 Ag1 Br8'
_cell_volume   311.27523006
_cell_formula_units_Z   1
loop_
 _symmetry_equiv_pos_site_id
 _symmetry_equiv_pos_as_xyz
  1  'x, y, z'
loop_
 _atom_site_type_symbol
 _atom_site_label
 _atom_site_symmetry_multiplicity
 _atom_site_fract_x
 _atom_site_fract_y
 _atom_site_fract_z
 _atom_site_occupancy
  Al  Al0  1  -0.00000000  0.50000000  0.25000001  1
  Cu  Cu1  1  0.50000000  0.00000000  0.75000002  1
  Cu  Cu2  1  0.00000000  0.00000000  0.00000000  1
  Ag  Ag3  1  0.00000000  0.00000000  0.50000001  1
  Br  Br4  1  0.27298800  0.22647900  0.87254702  1
  Br  Br5  1  0.72701200  0.77352100  0.87254702  1
  Br  Br6  1  0.22647900  0.27298800  0.37254701  1
  Br  Br7  1  0.27298800  0.77352100  0.62745302  1
  Br  Br8  1  0.72701200  0.22647900  0.62745302  1
  Br  Br9  1  0.22647900  0.72701200  0.12745300  1
  Br  Br10  1  0.77352100  0.27298800  0.12745300  1
  Br  Br11  1  0.77352100  0.72701200  0.37254701  1
