# generated using pymatgen
data_NbAlRe3SiTe9W
_symmetry_space_group_name_H-M   'P 1'
_cell_length_a   6.02782583
_cell_length_b   7.45776749
_cell_length_c   12.16199970
_cell_angle_alpha   84.25223541
_cell_angle_beta   75.65180969
_cell_angle_gamma   66.16333771
_symmetry_Int_Tables_number   1
_chemical_formula_structural   NbAlRe3SiTe9W
_chemical_formula_sum   'Nb1 Al1 Re3 Si1 Te9 W1'
_cell_volume   484.49729526
_cell_formula_units_Z   1
loop_
 _symmetry_equiv_pos_site_id
 _symmetry_equiv_pos_as_xyz
  1  'x, y, z'
loop_
 _atom_site_type_symbol
 _atom_site_label
 _atom_site_symmetry_multiplicity
 _atom_site_fract_x
 _atom_site_fract_y
 _atom_site_fract_z
 _atom_site_occupancy
  Nb  Nb0  1  0.68202102  0.00000000  0.63595798  1
  Al  Al1  1  0.31797901  0.00000000  0.36404199  1
  Te  Te2  1  0.06797905  0.49999998  0.86404197  1
  Re  Re3  1  0.43202106  0.49999998  0.13595799  1
  Si  Si4  1  0.50000001  0.00000000  -0.00000000  1
  Re  Re5  1  0.25000006  0.49999998  0.49999998  1
  Re  Re6  1  0.00000000  0.00000000  0.00000000  1
  W  W7  1  0.75000007  0.49999998  0.49999998  1
  Te  Te8  1  0.29663708  0.70462097  0.61673997  1
  Te  Te9  1  0.66337704  0.20462099  0.88325997  1
  Te  Te10  1  0.08662303  0.29537899  0.61673998  1
  Te  Te11  1  0.61799805  0.29537899  0.38325998  1
  Te  Te12  1  0.99874210  0.70462097  0.38325998  1
  Te  Te13  1  0.13200202  0.20462099  0.11673999  1
  Te  Te14  1  0.45336309  0.79537896  0.88325996  1
  Te  Te15  1  0.75125810  0.79537896  0.11673998  1
