# generated using pymatgen
data_Cs5Tl3Se4
_symmetry_space_group_name_H-M   'P 1'
_cell_length_a   5.23426580
_cell_length_b   8.53212833
_cell_length_c   9.79099560
_cell_angle_alpha   90.00000000
_cell_angle_beta   90.00000000
_cell_angle_gamma   90.00000000
_symmetry_Int_Tables_number   1
_chemical_formula_structural   Cs5Tl3Se4
_chemical_formula_sum   'Cs5 Tl3 Se4'
_cell_volume   437.26025881
_cell_formula_units_Z   1
loop_
 _symmetry_equiv_pos_site_id
 _symmetry_equiv_pos_as_xyz
  1  'x, y, z'
loop_
 _atom_site_type_symbol
 _atom_site_label
 _atom_site_symmetry_multiplicity
 _atom_site_fract_x
 _atom_site_fract_y
 _atom_site_fract_z
 _atom_site_occupancy
  Cs  Cs0  1  0.75000003  0.97827296  0.68112303  1
  Cs  Cs1  1  0.25000001  0.02172700  0.31887701  1
  Cs  Cs2  1  0.75000003  0.47827298  0.81887703  1
  Cs  Cs3  1  0.25000001  0.52172698  0.18112301  1
  Tl  Tl4  1  0.75000003  0.85116997  0.06919400  1
  Cs  Cs5  1  0.25000001  0.14882999  0.93080604  1
  Tl  Tl6  1  0.75000003  0.35116999  0.43080602  1
  Tl  Tl7  1  0.25000001  0.64882997  0.56919402  1
  Se  Se8  1  0.75000003  0.73740297  0.38881302  1
  Se  Se9  1  0.25000001  0.26259699  0.61118703  1
  Se  Se10  1  0.75000003  0.23740299  0.11118700  1
  Se  Se11  1  0.25000001  0.76259697  0.88881304  1
