# generated using pymatgen
data_Ba2SnS3
_symmetry_space_group_name_H-M   'P 1'
_cell_length_a   4.62872887
_cell_length_b   7.87823009
_cell_length_c   8.64717293
_cell_angle_alpha   90.00000000
_cell_angle_beta   90.00000000
_cell_angle_gamma   90.00000000
_symmetry_Int_Tables_number   1
_chemical_formula_structural   Ba2SnS3
_chemical_formula_sum   'Ba4 Sn2 S6'
_cell_volume   315.32946010
_cell_formula_units_Z   2
loop_
 _symmetry_equiv_pos_site_id
 _symmetry_equiv_pos_as_xyz
  1  'x, y, z'
loop_
 _atom_site_type_symbol
 _atom_site_label
 _atom_site_symmetry_multiplicity
 _atom_site_fract_x
 _atom_site_fract_y
 _atom_site_fract_z
 _atom_site_occupancy
  Ba  Ba0  1  0.25000001  0.01551700  0.18326500  1
  Ba  Ba1  1  0.25000001  0.51551699  0.31673500  1
  Ba  Ba2  1  0.75000002  0.48448299  0.68326501  1
  Ba  Ba3  1  0.75000002  0.98448299  0.81673501  1
  Sn  Sn4  1  0.75000002  0.35773000  0.06261400  1
  Sn  Sn5  1  0.25000001  0.64226999  0.93738601  1
  S  S6  1  0.75000002  0.85772999  0.43738600  1
  S  S7  1  0.25000001  0.14227000  0.56261400  1
  S  S8  1  0.75000002  0.22090200  0.39007700  1
  S  S9  1  0.25000001  0.27909800  0.89007701  1
  S  S10  1  0.25000001  0.77909799  0.60992301  1
  S  S11  1  0.75000002  0.72090199  0.10992300  1
