# generated using pymatgen
data_NaLaY5HoO6
_symmetry_space_group_name_H-M   'P 1'
_cell_length_a   5.94339609
_cell_length_b   6.25901413
_cell_length_c   6.60110426
_cell_angle_alpha   116.02861786
_cell_angle_beta   90.00000000
_cell_angle_gamma   90.00000000
_symmetry_Int_Tables_number   1
_chemical_formula_structural   NaLaY5HoO6
_chemical_formula_sum   'Na1 La1 Y5 Ho1 O6'
_cell_volume   220.65385513
_cell_formula_units_Z   1
loop_
 _symmetry_equiv_pos_site_id
 _symmetry_equiv_pos_as_xyz
  1  'x, y, z'
loop_
 _atom_site_type_symbol
 _atom_site_label
 _atom_site_symmetry_multiplicity
 _atom_site_fract_x
 _atom_site_fract_y
 _atom_site_fract_z
 _atom_site_occupancy
  Ho  Ho0  1  0.68640799  0.86881496  0.13038495  1
  Na  Na1  1  0.81359199  0.36881498  0.13038498  1
  Y  Y2  1  0.18640800  0.63118497  0.86961497  1
  La  La3  1  0.31359200  0.13118499  0.86961500  1
  Y  Y4  1  0.35145099  0.57730797  0.33665597  1
  Y  Y5  1  0.85145099  0.92269196  0.66334395  1
  Y  Y6  1  0.14854900  0.07730800  0.33665600  1
  Y  Y7  1  0.64854899  0.42269198  0.66334398  1
  O  O8  1  0.49999999  0.49999998  0.99999998  1
  O  O9  1  0.00000000  0.00000000  0.00000000  1
  O  O10  1  0.01631800  0.72462697  0.32611396  1
  O  O11  1  0.51631799  0.77537297  0.67388596  1
  O  O12  1  0.48368199  0.22462699  0.32611399  1
  O  O13  1  0.98368198  0.27537299  0.67388599  1
