# generated using pymatgen
data_Cs2IBr2O
_symmetry_space_group_name_H-M   'P 1'
_cell_length_a   3.94650531
_cell_length_b   3.94650531
_cell_length_c   11.06656742
_cell_angle_alpha   79.72880554
_cell_angle_beta   79.72880554
_cell_angle_gamma   60.00001144
_symmetry_Int_Tables_number   1
_chemical_formula_structural   Cs2IBr2O
_chemical_formula_sum   'Cs2 I1 Br2 O1'
_cell_volume   146.07066528
_cell_formula_units_Z   1
loop_
 _symmetry_equiv_pos_site_id
 _symmetry_equiv_pos_as_xyz
  1  'x, y, z'
loop_
 _atom_site_type_symbol
 _atom_site_label
 _atom_site_symmetry_multiplicity
 _atom_site_fract_x
 _atom_site_fract_y
 _atom_site_fract_z
 _atom_site_occupancy
  Cs  Cs0  1  0.28979300  0.28979300  0.13062100  1
  Cs  Cs1  1  0.71020701  0.71020700  0.86937898  1
  Br  Br2  1  0.11095800  0.11095800  0.66712598  1
  I  I3  1  0.88904201  0.88904200  0.33287401  1
  Br  Br4  1  0.36001301  0.36001300  0.91996097  1
  O  O5  1  0.63998701  0.63998700  0.08003901  1
