# generated using pymatgen
data_LaTlF5
_symmetry_space_group_name_H-M   'P 1'
_cell_length_a   3.80346990
_cell_length_b   5.68309927
_cell_length_c   5.68309927
_cell_angle_alpha   73.71632385
_cell_angle_beta   70.44996643
_cell_angle_gamma   70.44996643
_symmetry_Int_Tables_number   1
_chemical_formula_structural   LaTlF5
_chemical_formula_sum   'La1 Tl1 F5'
_cell_volume   107.10759759
_cell_formula_units_Z   1
loop_
 _symmetry_equiv_pos_site_id
 _symmetry_equiv_pos_as_xyz
  1  'x, y, z'
loop_
 _atom_site_type_symbol
 _atom_site_label
 _atom_site_symmetry_multiplicity
 _atom_site_fract_x
 _atom_site_fract_y
 _atom_site_fract_z
 _atom_site_occupancy
  La  La0  1  0.50000002  0.49999997  0.50000002  1
  Tl  Tl1  1  0.00000000  0.00000000  0.00000000  1
  F  F2  1  0.50000002  0.77163696  0.22836305  1
  F  F3  1  0.50000001  0.22836299  0.77163700  1
  F  F4  1  0.28302702  0.71697296  0.71697302  1
  F  F5  1  0.71697302  0.28302698  0.28302702  1
  F  F6  1  0.00000001  0.49999997  0.50000001  1
