# generated using pymatgen
data_CrCuSiGeAs4P
_symmetry_space_group_name_H-M   'P 1'
_cell_length_a   4.99743605
_cell_length_b   4.99743652
_cell_length_c   5.30831480
_cell_angle_alpha   90.00000000
_cell_angle_beta   90.00000000
_cell_angle_gamma   120.00000000
_symmetry_Int_Tables_number   1
_chemical_formula_structural   CrCuSiGeAs4P
_chemical_formula_sum   'Cr1 Si1 Cu1 Ge1 As4 P1'
_cell_volume   114.81055947
_cell_formula_units_Z   1
loop_
 _symmetry_equiv_pos_site_id
 _symmetry_equiv_pos_as_xyz
  1  'x, y, z'
loop_
 _atom_site_type_symbol
 _atom_site_label
 _atom_site_symmetry_multiplicity
 _atom_site_fract_x
 _atom_site_fract_y
 _atom_site_fract_z
 _atom_site_occupancy
  Cr  Cr0  1  0.66666668  0.33333333  1.00000004  1
  Ge  Ge1  1  0.33333337  0.66666667  0.50000002  1
  Si  Si2  1  0.00000000  0.00000000  0.50000002  1
  Cu  Cu3  1  0.66389503  0.70644400  0.29903001  1
  As  As4  1  0.04254904  0.70644400  0.70097003  1
  As  As5  1  0.66389505  0.95745100  0.70097003  1
  As  As6  1  0.29355602  0.33610500  0.70097003  1
  P  P7  1  0.04254902  0.33610500  0.29903001  1
  As  As8  1  0.29355605  0.95745100  0.29903001  1
