# generated using pymatgen
data_GeWSeN5
_symmetry_space_group_name_H-M   'P 1'
_cell_length_a   5.50466394
_cell_length_b   5.50466394
_cell_length_c   5.65941381
_cell_angle_alpha   60.90047073
_cell_angle_beta   60.90047073
_cell_angle_gamma   60.00000000
_symmetry_Int_Tables_number   1
_chemical_formula_structural   GeWSeN5
_chemical_formula_sum   'Ge1 W1 Se1 N5'
_cell_volume   122.88444212
_cell_formula_units_Z   1
loop_
 _symmetry_equiv_pos_site_id
 _symmetry_equiv_pos_as_xyz
  1  'x, y, z'
loop_
 _atom_site_type_symbol
 _atom_site_label
 _atom_site_symmetry_multiplicity
 _atom_site_fract_x
 _atom_site_fract_y
 _atom_site_fract_z
 _atom_site_occupancy
  Se  Se0  1  0.50000003  0.50000001  0.50000000  1
  Ge  Ge1  1  0.00000000  0.00000000  0.00000000  1
  N  N2  1  0.87305104  0.68946301  0.22147999  1
  N  N3  1  0.21600603  0.87305102  0.22147999  1
  N  N4  1  0.31053703  0.78399401  0.77852000  1
  N  N5  1  0.78399402  0.12694900  0.77852000  1
  W  W6  1  0.12694901  0.31053701  0.77852000  1
  N  N7  1  0.68946302  0.21600600  0.22148000  1
