# generated using pymatgen
data_CsKSiSb2MoO12
_symmetry_space_group_name_H-M   'P 1'
_cell_length_a   6.57377386
_cell_length_b   6.57377386
_cell_length_c   7.63772583
_cell_angle_alpha   90.00000000
_cell_angle_beta   90.00000000
_cell_angle_gamma   90.00000000
_symmetry_Int_Tables_number   1
_chemical_formula_structural   CsKSiSb2MoO12
_chemical_formula_sum   'Cs1 K1 Si1 Sb2 Mo1 O12'
_cell_volume   330.06052408
_cell_formula_units_Z   1
loop_
 _symmetry_equiv_pos_site_id
 _symmetry_equiv_pos_as_xyz
  1  'x, y, z'
loop_
 _atom_site_type_symbol
 _atom_site_label
 _atom_site_symmetry_multiplicity
 _atom_site_fract_x
 _atom_site_fract_y
 _atom_site_fract_z
 _atom_site_occupancy
  K  K0  1  0.00000000  0.00000000  0.50000001  1
  Cs  Cs1  1  0.50000001  0.50000001  0.50000001  1
  Sb  Sb2  1  0.50000001  0.00000000  0.09075200  1
  Sb  Sb3  1  -0.00000000  0.50000001  0.90924802  1
  Si  Si4  1  0.50000001  0.50000001  -0.00000000  1
  Mo  Mo5  1  0.00000000  0.00000000  0.00000000  1
  O  O6  1  -0.00000000  0.50000001  0.56739201  1
  O  O7  1  0.50000001  0.00000000  0.43260801  1
  O  O8  1  0.18687700  0.00000000  0.12380600  1
  O  O9  1  0.50000001  0.31312301  0.12380600  1
  O  O10  1  0.50000001  0.00000000  0.86784602  1
  O  O11  1  0.81312302  0.00000000  0.12380600  1
  O  O12  1  0.31312301  0.50000001  0.87619402  1
  O  O13  1  0.68687701  0.50000001  0.87619402  1
  O  O14  1  -0.00000000  0.18687700  0.87619402  1
  O  O15  1  0.50000001  0.68687701  0.12380600  1
  O  O16  1  -0.00000000  0.50000001  0.13215400  1
  O  O17  1  -0.00000000  0.81312302  0.87619402  1
