# generated using pymatgen
data_LiLaGa(PO)2
_symmetry_space_group_name_H-M   'P 1'
_cell_length_a   5.71762609
_cell_length_b   5.88053322
_cell_length_c   6.83347797
_cell_angle_alpha   90.00000000
_cell_angle_beta   114.73071289
_cell_angle_gamma   90.00000000
_symmetry_Int_Tables_number   1
_chemical_formula_structural   LiLaGa(PO)2
_chemical_formula_sum   'Li2 La2 Ga2 P4 O4'
_cell_volume   208.68726482
_cell_formula_units_Z   2
loop_
 _symmetry_equiv_pos_site_id
 _symmetry_equiv_pos_as_xyz
  1  'x, y, z'
loop_
 _atom_site_type_symbol
 _atom_site_label
 _atom_site_symmetry_multiplicity
 _atom_site_fract_x
 _atom_site_fract_y
 _atom_site_fract_z
 _atom_site_occupancy
  La  La0  1  0.89564798  0.48520098  0.79129598  1
  La  La1  1  0.10435200  0.98520096  0.20870400  1
  Li  Li2  1  0.60743899  0.51638398  0.21487799  1
  Li  Li3  1  0.39256099  0.01638400  0.78512199  1
  Ga  Ga4  1  0.24493099  0.50497298  0.48986199  1
  Ga  Ga5  1  0.75506898  0.00497300  0.51013799  1
  P  P6  1  0.97199098  0.25811699  0.45462498  1
  P  P7  1  0.02800900  0.75811697  0.54537500  1
  O  O8  1  0.51736599  0.75811697  0.54537499  1
  P  P9  1  0.48263399  0.25811699  0.45462499  1
  O  O10  1  0.91640798  0.06531000  0.83281598  1
  O  O11  1  0.56603399  0.91189797  0.13206799  1
  O  O12  1  0.08359200  0.56530998  0.16718400  1
  P  P13  1  0.43396599  0.41189798  0.86793199  1
