# generated using pymatgen
data_K4SrB2PO6
_symmetry_space_group_name_H-M   'P 1'
_cell_length_a   6.57442331
_cell_length_b   6.57442331
_cell_length_c   6.57442331
_cell_angle_alpha   109.47122192
_cell_angle_beta   109.47122192
_cell_angle_gamma   109.47122192
_symmetry_Int_Tables_number   1
_chemical_formula_structural   K4SrB2PO6
_chemical_formula_sum   'K4 Sr1 B2 P1 O6'
_cell_volume   218.75152047
_cell_formula_units_Z   1
loop_
 _symmetry_equiv_pos_site_id
 _symmetry_equiv_pos_as_xyz
  1  'x, y, z'
loop_
 _atom_site_type_symbol
 _atom_site_label
 _atom_site_symmetry_multiplicity
 _atom_site_fract_x
 _atom_site_fract_y
 _atom_site_fract_z
 _atom_site_occupancy
  Sr  Sr0  1  0.00000000  0.00000000  0.00000000  1
  K  K1  1  1.00000005  1.00000002  0.50000007  1
  K  K2  1  0.50000003  0.50000001  0.50000003  1
  K  K3  1  0.49999999  0.00000000  0.00000001  1
  K  K4  1  0.00000003  0.50000001  0.00000003  1
  B  B5  1  0.50000003  0.50000001  0.00000004  1
  P  P6  1  0.49999999  0.00000000  0.50000000  1
  B  B7  1  0.00000003  0.50000001  0.50000002  1
  O  O8  1  0.32245500  0.00000000  0.32245500  1
  O  O9  1  0.67754499  0.00000000  0.67754500  1
  O  O10  1  0.32245502  0.32245501  0.00000003  1
  O  O11  1  0.67754504  0.67754501  0.00000005  1
  O  O12  1  1.00000003  0.67754501  0.67754505  1
  O  O13  1  0.00000002  0.32245501  0.32245501  1
