# generated using pymatgen
data_Na5LiO6
_symmetry_space_group_name_H-M   'P 1'
_cell_length_a   5.11079168
_cell_length_b   6.09415054
_cell_length_c   6.36036253
_cell_angle_alpha   61.37183380
_cell_angle_beta   89.51843262
_cell_angle_gamma   88.99333954
_symmetry_Int_Tables_number   1
_chemical_formula_structural   Na5LiO6
_chemical_formula_sum   'Na5 Li1 O6'
_cell_volume   173.85445287
_cell_formula_units_Z   1
loop_
 _symmetry_equiv_pos_site_id
 _symmetry_equiv_pos_as_xyz
  1  'x, y, z'
loop_
 _atom_site_type_symbol
 _atom_site_label
 _atom_site_symmetry_multiplicity
 _atom_site_fract_x
 _atom_site_fract_y
 _atom_site_fract_z
 _atom_site_occupancy
  Na  Na0  1  0.51993297  0.83450698  0.68164603  1
  Na  Na1  1  0.01327397  0.48746099  0.66537501  1
  Na  Na2  1  0.51993399  0.51614999  0.31836002  1
  Na  Na3  1  0.01327599  0.15283300  0.33462500  1
  Na  Na4  1  0.04883295  0.84235098  0.00000903  1
  Li  Li5  1  0.53823401  0.18457100  0.99993001  1
  O  O6  1  0.98561499  0.83215698  0.73153304  1
  O  O7  1  0.49210000  0.42810499  0.71493402  1
  O  O8  1  0.98561701  0.56368799  0.26846604  1
  O  O9  1  0.49209101  0.14302600  0.28511801  1
  O  O10  1  0.40299497  0.89593998  0.99999903  1
  O  O11  1  0.90409503  0.11921100  0.00000602  1
