# generated using pymatgen
data_K2Li3VO8
_symmetry_space_group_name_H-M   'P 1'
_cell_length_a   5.21854401
_cell_length_b   5.23984289
_cell_length_c   8.84935951
_cell_angle_alpha   89.36448669
_cell_angle_beta   89.60867310
_cell_angle_gamma   60.21119690
_symmetry_Int_Tables_number   1
_chemical_formula_structural   K2Li3VO8
_chemical_formula_sum   'K2 Li3 V1 O8'
_cell_volume   209.99221203
_cell_formula_units_Z   1
loop_
 _symmetry_equiv_pos_site_id
 _symmetry_equiv_pos_as_xyz
  1  'x, y, z'
loop_
 _atom_site_type_symbol
 _atom_site_label
 _atom_site_symmetry_multiplicity
 _atom_site_fract_x
 _atom_site_fract_y
 _atom_site_fract_z
 _atom_site_occupancy
  K  K0  1  0.99687399  0.00259300  0.74108100  1
  K  K1  1  0.99806297  0.99946197  0.24095002  1
  V  V2  1  0.66032098  0.67043598  0.54680702  1
  Li  Li3  1  0.32518999  0.33643299  0.04692901  1
  Li  Li4  1  0.65877198  0.67196298  0.92881602  1
  Li  Li5  1  0.32696999  0.33518899  0.42918501  1
  O  O6  1  0.39472297  0.98588198  0.99260503  1
  O  O7  1  0.98357497  0.61888298  0.97974502  1
  O  O8  1  0.61159498  0.40111499  0.98890601  1
  O  O9  1  0.59997099  0.01522600  0.48231500  1
  O  O10  1  0.01318499  0.38347199  0.49705101  1
  O  O11  1  0.38178698  0.60294798  0.48175101  1
  O  O12  1  0.64303398  0.68466898  0.74469102  1
  O  O13  1  0.30884299  0.34112899  0.24456701  1
