# generated using pymatgen
data_LaYLuAlO8
_symmetry_space_group_name_H-M   'P 1'
_cell_length_a   6.21416378
_cell_length_b   6.21416378
_cell_length_c   6.21416378
_cell_angle_alpha   106.21121979
_cell_angle_beta   106.21121979
_cell_angle_gamma   116.20867157
_symmetry_Int_Tables_number   1
_chemical_formula_structural   LaYLuAlO8
_chemical_formula_sum   'La1 Y1 Lu1 Al1 O8'
_cell_volume   182.78768598
_cell_formula_units_Z   1
loop_
 _symmetry_equiv_pos_site_id
 _symmetry_equiv_pos_as_xyz
  1  'x, y, z'
loop_
 _atom_site_type_symbol
 _atom_site_label
 _atom_site_symmetry_multiplicity
 _atom_site_fract_x
 _atom_site_fract_y
 _atom_site_fract_z
 _atom_site_occupancy
  La  La0  1  0.74999998  0.24999999  0.49999998  1
  Al  Al1  1  0.24999994  0.74999996  0.49999996  1
  Y  Y2  1  0.49999996  0.49999998  0.99999997  1
  Lu  Lu3  1  0.00000000  0.00000000  0.00000000  1
  O  O4  1  0.08176194  0.76262496  0.68086296  1
  O  O5  1  0.50885497  0.33000598  0.17884898  1
  O  O6  1  0.15115797  0.33000698  0.82115198  1
  O  O7  1  0.08176197  0.40089898  0.31913798  1
  O  O8  1  0.66999396  0.49114498  0.82115097  1
  O  O9  1  0.23737593  0.91823896  0.31913796  1
  O  O10  1  0.59910093  0.91823796  0.68086295  1
  O  O11  1  0.66999393  0.84884296  0.17884895  1
