# generated using pymatgen
data_CeSe2
_symmetry_space_group_name_H-M   'P 1'
_cell_length_a   6.96464014
_cell_length_b   7.09232712
_cell_length_c   7.10560656
_cell_angle_alpha   90.00000000
_cell_angle_beta   77.46393585
_cell_angle_gamma   90.00000000
_symmetry_Int_Tables_number   1
_chemical_formula_structural   CeSe2
_chemical_formula_sum   'Ce4 Se8'
_cell_volume   342.61740108
_cell_formula_units_Z   4
loop_
 _symmetry_equiv_pos_site_id
 _symmetry_equiv_pos_as_xyz
  1  'x, y, z'
loop_
 _atom_site_type_symbol
 _atom_site_label
 _atom_site_symmetry_multiplicity
 _atom_site_fract_x
 _atom_site_fract_y
 _atom_site_fract_z
 _atom_site_occupancy
  Ce  Ce0  1  0.28800999  0.44792099  0.30324501  1
  Ce  Ce1  1  0.71198999  0.94792098  0.19675500  1
  Ce  Ce2  1  0.71198999  0.55207899  0.69675501  1
  Ce  Ce3  1  0.28800999  0.05207900  0.80324501  1
  Se  Se4  1  0.05892500  0.16633200  0.16870800  1
  Se  Se5  1  0.94107498  0.66633199  0.33129201  1
  Se  Se6  1  0.94107498  0.83366799  0.83129201  1
  Se  Se7  1  0.05892500  0.33366799  0.66870801  1
  Se  Se8  1  0.43550599  0.74339499  0.01446600  1
  Se  Se9  1  0.56449399  0.24339500  0.48553401  1
  Se  Se10  1  0.56449399  0.25660500  0.98553402  1
  Se  Se11  1  0.43550599  0.75660499  0.51446601  1
