# generated using pymatgen
data_K4NaMg(FeO6)2
_symmetry_space_group_name_H-M   'P 1'
_cell_length_a   5.71543789
_cell_length_b   5.71543789
_cell_length_c   9.90805435
_cell_angle_alpha   73.23638916
_cell_angle_beta   73.23638916
_cell_angle_gamma   60.00000381
_symmetry_Int_Tables_number   1
_chemical_formula_structural   K4NaMg(FeO6)2
_chemical_formula_sum   'K4 Na1 Mg1 Fe2 O12'
_cell_volume   264.29505455
_cell_formula_units_Z   1
loop_
 _symmetry_equiv_pos_site_id
 _symmetry_equiv_pos_as_xyz
  1  'x, y, z'
loop_
 _atom_site_type_symbol
 _atom_site_label
 _atom_site_symmetry_multiplicity
 _atom_site_fract_x
 _atom_site_fract_y
 _atom_site_fract_z
 _atom_site_occupancy
  K  K0  1  0.71950200  0.71950198  0.84149396  1
  K  K1  1  0.28049800  0.28049799  0.15850598  1
  K  K2  1  0.87212300  0.87212297  0.38363095  1
  K  K3  1  0.12787700  0.12787700  0.61636899  1
  Mg  Mg4  1  0.59699900  0.59699898  0.20900296  1
  Na  Na5  1  0.40300100  0.40300099  0.79099698  1
  Fe  Fe6  1  0.50000000  0.49999998  0.49999997  1
  Fe  Fe7  1  0.00000000  0.00000000  0.00000000  1
  O  O8  1  0.19048300  0.19048299  0.88709799  1
  O  O9  1  0.19048301  0.73193598  0.88709797  1
  O  O10  1  0.73193599  0.19048299  0.88709798  1
  O  O11  1  0.26806401  0.80951697  0.11290197  1
  O  O12  1  0.60885199  0.16498499  0.61731098  1
  O  O13  1  0.60885200  0.60885198  0.61731097  1
  O  O14  1  0.16498501  0.60885198  0.61731098  1
  O  O15  1  0.83501499  0.39114799  0.38268896  1
  O  O16  1  0.39114801  0.83501497  0.38268896  1
  O  O17  1  0.39114800  0.39114799  0.38268898  1
  O  O18  1  0.80951699  0.26806399  0.11290197  1
  O  O19  1  0.80951700  0.80951697  0.11290195  1
