# generated using pymatgen
data_Sr6EuSi(S3O)3
_symmetry_space_group_name_H-M   'P 1'
_cell_length_a   6.55130816
_cell_length_b   6.55506420
_cell_length_c   9.28037739
_cell_angle_alpha   89.95130920
_cell_angle_beta   90.00000000
_cell_angle_gamma   90.00000000
_symmetry_Int_Tables_number   1
_chemical_formula_structural   Sr6EuSi(S3O)3
_chemical_formula_sum   'Sr6 Eu1 Si1 S9 O3'
_cell_volume   398.53866152
_cell_formula_units_Z   1
loop_
 _symmetry_equiv_pos_site_id
 _symmetry_equiv_pos_as_xyz
  1  'x, y, z'
loop_
 _atom_site_type_symbol
 _atom_site_label
 _atom_site_symmetry_multiplicity
 _atom_site_fract_x
 _atom_site_fract_y
 _atom_site_fract_z
 _atom_site_occupancy
  Sr  Sr0  1  0.99999998  0.00000000  0.50000000  1
  Sr  Sr1  1  0.49999999  0.49999998  1.00000001  1
  Sr  Sr2  1  0.52797399  0.99826297  0.25122303  1
  Sr  Sr3  1  0.47202599  0.00173700  0.74877700  1
  Sr  Sr4  1  0.02797400  0.50173698  0.24877701  1
  Sr  Sr5  1  0.97202598  0.49826298  0.75122301  1
  Eu  Eu6  1  0.00000000  0.00000000  0.00000000  1
  Si  Si7  1  0.49999999  0.49999998  0.50000001  1
  S  S8  1  0.81714098  0.73797898  0.03345902  1
  S  S9  1  0.18285900  0.26202099  0.96654100  1
  S  S10  1  0.31714099  0.76202098  0.46654102  1
  S  S11  1  0.68285898  0.23797899  0.53345901  1
  O  O12  1  0.98356798  0.06581500  0.22334900  1
  S  S13  1  0.01643200  0.93418497  0.77665103  1
  S  S14  1  0.48356799  0.43418499  0.27665101  1
  S  S15  1  0.51643199  0.56581498  0.72334901  1
  O  O16  1  0.26512099  0.82087097  0.03550002  1
  O  O17  1  0.73487898  0.17912899  0.96450000  1
  S  S18  1  0.76512098  0.67912898  0.46450002  1
  S  S19  1  0.23487899  0.32087099  0.53550001  1
