# generated using pymatgen
data_Ba3TeO6
_symmetry_space_group_name_H-M   'P 1'
_cell_length_a   6.29716110
_cell_length_b   6.29716110
_cell_length_c   6.45292568
_cell_angle_alpha   119.20465851
_cell_angle_beta   119.20466614
_cell_angle_gamma   90.00000000
_symmetry_Int_Tables_number   1
_chemical_formula_structural   Ba3TeO6
_chemical_formula_sum   'Ba3 Te1 O6'
_cell_volume   185.20325701
_cell_formula_units_Z   1
loop_
 _symmetry_equiv_pos_site_id
 _symmetry_equiv_pos_as_xyz
  1  'x, y, z'
loop_
 _atom_site_type_symbol
 _atom_site_label
 _atom_site_symmetry_multiplicity
 _atom_site_fract_x
 _atom_site_fract_y
 _atom_site_fract_z
 _atom_site_occupancy
  Ba  Ba0  1  0.49999998  0.49999999  -0.00000001  1
  Ba  Ba1  1  0.74999997  0.25000000  0.49999998  1
  Ba  Ba2  1  0.24999998  0.74999999  0.50000000  1
  Te  Te3  1  0.00000000  0.00000000  0.00000000  1
  O  O4  1  0.78547497  0.21452500  0.99999997  1
  O  O5  1  0.21452499  0.78547499  1.00000000  1
  O  O6  1  0.78547497  0.78547499  -0.00000001  1
  O  O7  1  0.21452499  0.21452500  0.99999999  1
  O  O8  1  0.22641099  0.22641000  0.45282099  1
  O  O9  1  0.77358897  0.77358999  0.54717898  1
