# generated using pymatgen
data_SrNdGdMoO3
_symmetry_space_group_name_H-M   'P 1'
_cell_length_a   4.03499794
_cell_length_b   4.08943176
_cell_length_c   6.99404240
_cell_angle_alpha   106.99876404
_cell_angle_beta   106.76576233
_cell_angle_gamma   90.00000000
_symmetry_Int_Tables_number   1
_chemical_formula_structural   SrNdGdMoO3
_chemical_formula_sum   'Sr1 Nd1 Gd1 Mo1 O3'
_cell_volume   105.22505056
_cell_formula_units_Z   1
loop_
 _symmetry_equiv_pos_site_id
 _symmetry_equiv_pos_as_xyz
  1  'x, y, z'
loop_
 _atom_site_type_symbol
 _atom_site_label
 _atom_site_symmetry_multiplicity
 _atom_site_fract_x
 _atom_site_fract_y
 _atom_site_fract_z
 _atom_site_occupancy
  Nd  Nd0  1  0.35523401  0.35523402  0.71046803  1
  Sr  Sr1  1  0.64476603  0.64476603  0.28953202  1
  Mo  Mo2  1  0.00000000  0.00000000  0.00000000  1
  Gd  Gd3  1  1.00000004  0.50000003  1.00000005  1
  O  O4  1  0.16082301  0.16082301  0.32164601  1
  O  O5  1  0.83917703  0.83917704  0.67835403  1
  O  O6  1  0.50000003  1.00000005  0.00000001  1
