# generated using pymatgen
data_NiPO2
_symmetry_space_group_name_H-M   'P 1'
_cell_length_a   2.70097303
_cell_length_b   4.64187622
_cell_length_c   4.64187622
_cell_angle_alpha   90.00000000
_cell_angle_beta   90.00000000
_cell_angle_gamma   90.00000000
_symmetry_Int_Tables_number   1
_chemical_formula_structural   NiPO2
_chemical_formula_sum   'Ni2 P2 O4'
_cell_volume   58.19790607
_cell_formula_units_Z   2
loop_
 _symmetry_equiv_pos_site_id
 _symmetry_equiv_pos_as_xyz
  1  'x, y, z'
loop_
 _atom_site_type_symbol
 _atom_site_label
 _atom_site_symmetry_multiplicity
 _atom_site_fract_x
 _atom_site_fract_y
 _atom_site_fract_z
 _atom_site_occupancy
  Ni  Ni0  1  -0.00000000  0.67341397  0.32658598  1
  P  P1  1  0.49999999  0.82658596  0.82658596  1
  P  P2  1  0.49999999  0.17341399  0.17341399  1
  Ni  Ni3  1  -0.00000000  0.32658598  0.67341397  1
  O  O4  1  -0.00000000  0.31135299  0.31135299  1
  O  O5  1  0.49999999  0.81135296  0.18864699  1
  O  O6  1  0.49999999  0.18864699  0.81135296  1
  O  O7  1  -0.00000000  0.68864697  0.68864697  1
