# generated using pymatgen
data_CsYCl2
_symmetry_space_group_name_H-M   'P 1'
_cell_length_a   4.11950207
_cell_length_b   4.11950254
_cell_length_c   16.08495712
_cell_angle_alpha   90.00000000
_cell_angle_beta   90.00000000
_cell_angle_gamma   119.99999237
_symmetry_Int_Tables_number   1
_chemical_formula_structural   CsYCl2
_chemical_formula_sum   'Cs2 Y2 Cl4'
_cell_volume   236.39597254
_cell_formula_units_Z   2
loop_
 _symmetry_equiv_pos_site_id
 _symmetry_equiv_pos_as_xyz
  1  'x, y, z'
loop_
 _atom_site_type_symbol
 _atom_site_label
 _atom_site_symmetry_multiplicity
 _atom_site_fract_x
 _atom_site_fract_y
 _atom_site_fract_z
 _atom_site_occupancy
  Cs  Cs0  1  0.66666663  0.33333332  0.75000004  1
  Cs  Cs1  1  0.33333328  0.66666664  0.25000001  1
  Y  Y2  1  0.00000000  0.00000000  0.00000000  1
  Y  Y3  1  0.00000000  0.00000000  0.50000003  1
  Cl  Cl4  1  0.66666663  0.33333332  0.40830602  1
  Cl  Cl5  1  0.33333328  0.66666664  0.90830605  1
  Cl  Cl6  1  0.33333328  0.66666664  0.59169403  1
  Cl  Cl7  1  0.66666663  0.33333332  0.09169401  1
