# generated using pymatgen
data_K2YAsS6
_symmetry_space_group_name_H-M   'P 1'
_cell_length_a   6.77240038
_cell_length_b   6.78363848
_cell_length_c   6.81486750
_cell_angle_alpha   76.85096741
_cell_angle_beta   76.82485962
_cell_angle_gamma   103.12081146
_symmetry_Int_Tables_number   1
_chemical_formula_structural   K2YAsS6
_chemical_formula_sum   'K2 Y1 As1 S6'
_cell_volume   283.72295616
_cell_formula_units_Z   1
loop_
 _symmetry_equiv_pos_site_id
 _symmetry_equiv_pos_as_xyz
  1  'x, y, z'
loop_
 _atom_site_type_symbol
 _atom_site_label
 _atom_site_symmetry_multiplicity
 _atom_site_fract_x
 _atom_site_fract_y
 _atom_site_fract_z
 _atom_site_occupancy
  K  K0  1  0.99999996  0.50000000  0.00000007  1
  K  K1  1  0.99999991  0.99999999  0.50000010  1
  Y  Y2  1  0.50000000  0.00000000  0.00000002  1
  As  As3  1  0.00000000  0.00000000  0.00000000  1
  S  S4  1  0.77372193  0.77519699  0.94239807  1
  S  S5  1  0.22627798  0.22480300  0.05760202  1
  S  S6  1  0.06629493  0.77782599  0.22207906  1
  S  S7  1  0.93370498  0.22217400  0.77792104  1
  S  S8  1  0.77897300  0.06632200  0.22280303  1
  S  S9  1  0.22102692  0.93367799  0.77719707  1
