# generated using pymatgen
data_ZrCr(AsSe4)2
_symmetry_space_group_name_H-M   'P 1'
_cell_length_a   6.66990995
_cell_length_b   6.79280710
_cell_length_c   7.19998217
_cell_angle_alpha   91.82630157
_cell_angle_beta   104.14796448
_cell_angle_gamma   118.81264496
_symmetry_Int_Tables_number   1
_chemical_formula_structural   ZrCr(AsSe4)2
_chemical_formula_sum   'Zr1 Cr1 As2 Se8'
_cell_volume   272.82339251
_cell_formula_units_Z   1
loop_
 _symmetry_equiv_pos_site_id
 _symmetry_equiv_pos_as_xyz
  1  'x, y, z'
loop_
 _atom_site_type_symbol
 _atom_site_label
 _atom_site_symmetry_multiplicity
 _atom_site_fract_x
 _atom_site_fract_y
 _atom_site_fract_z
 _atom_site_occupancy
  Cr  Cr0  1  0.06423203  0.31616601  0.49084601  1
  Zr  Zr1  1  0.93576806  0.68383402  0.50915400  1
  As  As2  1  0.48674502  0.29089301  0.49678500  1
  As  As3  1  0.51325506  0.70910702  0.50321501  1
  Se  Se4  1  0.25534903  0.38640201  0.22383201  1
  Se  Se5  1  0.74465105  0.61359802  0.77616800  1
  Se  Se6  1  0.72589203  0.34274301  0.25542000  1
  Se  Se7  1  0.27410805  0.65725702  0.74458001  1
  Se  Se8  1  0.22038901  0.10654100  0.70845200  1
  Se  Se9  1  0.77961107  0.89345902  0.29154801  1
  Se  Se10  1  0.75078801  0.13443900  0.68247399  1
  Se  Se11  1  0.24921207  0.86556102  0.31752602  1
