# generated using pymatgen
data_Ba3Nb2W
_symmetry_space_group_name_H-M   'P 1'
_cell_length_a   3.55871010
_cell_length_b   3.55871058
_cell_length_c   25.34664536
_cell_angle_alpha   90.00000000
_cell_angle_beta   90.00000000
_cell_angle_gamma   119.99999237
_symmetry_Int_Tables_number   1
_chemical_formula_structural   Ba3Nb2W
_chemical_formula_sum   'Ba3 Nb2 W1'
_cell_volume   277.99464678
_cell_formula_units_Z   1
loop_
 _symmetry_equiv_pos_site_id
 _symmetry_equiv_pos_as_xyz
  1  'x, y, z'
loop_
 _atom_site_type_symbol
 _atom_site_label
 _atom_site_symmetry_multiplicity
 _atom_site_fract_x
 _atom_site_fract_y
 _atom_site_fract_z
 _atom_site_occupancy
  Ba  Ba0  1  0.66666664  0.33333333  0.92002899  1
  Ba  Ba1  1  0.33333330  0.66666667  0.22276500  1
  Ba  Ba2  1  0.33333330  0.66666667  0.07997100  1
  Nb  Nb3  1  0.66666664  0.33333333  0.77723499  1
  Nb  Nb4  1  0.66666664  0.33333333  0.15136700  1
  W  W5  1  0.33333330  0.66666667  0.84863299  1
