# generated using pymatgen
data_Rb3InTeW3O8
_symmetry_space_group_name_H-M   'P 1'
_cell_length_a   5.35312700
_cell_length_b   5.35312700
_cell_length_c   10.06038380
_cell_angle_alpha   90.00000000
_cell_angle_beta   90.00000000
_cell_angle_gamma   90.00000000
_symmetry_Int_Tables_number   1
_chemical_formula_structural   Rb3InTeW3O8
_chemical_formula_sum   'Rb3 In1 Te1 W3 O8'
_cell_volume   288.29004326
_cell_formula_units_Z   1
loop_
 _symmetry_equiv_pos_site_id
 _symmetry_equiv_pos_as_xyz
  1  'x, y, z'
loop_
 _atom_site_type_symbol
 _atom_site_label
 _atom_site_symmetry_multiplicity
 _atom_site_fract_x
 _atom_site_fract_y
 _atom_site_fract_z
 _atom_site_occupancy
  Rb  Rb0  1  0.50000000  0.50000000  0.50000001  1
  Rb  Rb1  1  0.50000000  0.50000000  0.00000000  1
  Rb  Rb2  1  0.00000000  0.00000000  0.25000001  1
  In  In3  1  0.00000000  0.00000000  0.75000002  1
  Te  Te4  1  0.74234900  0.25765100  0.25000001  1
  W  W5  1  0.25765100  0.74234900  0.25000001  1
  W  W6  1  0.74234900  0.74234900  0.75000002  1
  W  W7  1  0.25765100  0.25765100  0.75000002  1
  O  O8  1  0.17138000  0.19168500  0.38583901  1
  O  O9  1  0.82862000  0.80831500  0.38583901  1
  O  O10  1  0.17138000  0.80831500  0.88583902  1
  O  O11  1  0.82862000  0.19168500  0.88583902  1
  O  O12  1  0.19168500  0.82862000  0.61416101  1
  O  O13  1  0.80831500  0.17138000  0.61416101  1
  O  O14  1  0.80831500  0.82862000  0.11416100  1
  O  O15  1  0.19168500  0.17138000  0.11416100  1
