# generated using pymatgen
data_CaSc4Co2HO6
_symmetry_space_group_name_H-M   'P 1'
_cell_length_a   5.21665382
_cell_length_b   5.48352814
_cell_length_c   5.58477020
_cell_angle_alpha   117.96175385
_cell_angle_beta   90.01179504
_cell_angle_gamma   90.96712494
_symmetry_Int_Tables_number   1
_chemical_formula_structural   CaSc4Co2HO6
_chemical_formula_sum   'Ca1 Sc4 Co2 H1 O6'
_cell_volume   141.08021656
_cell_formula_units_Z   1
loop_
 _symmetry_equiv_pos_site_id
 _symmetry_equiv_pos_as_xyz
  1  'x, y, z'
loop_
 _atom_site_type_symbol
 _atom_site_label
 _atom_site_symmetry_multiplicity
 _atom_site_fract_x
 _atom_site_fract_y
 _atom_site_fract_z
 _atom_site_occupancy
  Sc  Sc0  1  0.91440201  0.47377601  0.20173396  1
  Ca  Ca1  1  0.87214298  0.99322902  0.79129898  1
  Sc  Sc2  1  0.55473098  0.73491701  0.99073599  1
  Sc  Sc3  1  0.44526900  0.26508300  0.00926398  1
  Sc  Sc4  1  0.12785700  0.00677100  0.20870099  1
  Co  Co5  1  0.08559798  0.52622401  0.79826601  1
  H  H6  1  0.65048101  0.28804000  0.50066897  1
  Co  Co7  1  0.34951898  0.71196001  0.49933100  1
  O  O8  1  0.76468102  0.06739200  0.16514096  1
  O  O9  1  0.74961301  0.35902801  0.84056297  1
  O  O10  1  0.71032299  0.65553101  0.52550898  1
  O  O11  1  0.28967699  0.34446901  0.47449099  1
  O  O12  1  0.25038698  0.64097201  0.15943700  1
  O  O13  1  0.23531896  0.93260801  0.83485901  1
