# generated using pymatgen
data_Ti9MnN4
_symmetry_space_group_name_H-M   'P 1'
_cell_length_a   6.35661554
_cell_length_b   6.35661554
_cell_length_c   6.35661554
_cell_angle_alpha   60.00000000
_cell_angle_beta   60.00000000
_cell_angle_gamma   60.00000000
_symmetry_Int_Tables_number   1
_chemical_formula_structural   Ti9MnN4
_chemical_formula_sum   'Ti9 Mn1 N4'
_cell_volume   181.61965180
_cell_formula_units_Z   1
loop_
 _symmetry_equiv_pos_site_id
 _symmetry_equiv_pos_as_xyz
  1  'x, y, z'
loop_
 _atom_site_type_symbol
 _atom_site_label
 _atom_site_symmetry_multiplicity
 _atom_site_fract_x
 _atom_site_fract_y
 _atom_site_fract_z
 _atom_site_occupancy
  Ti  Ti0  1  0.25000000  0.25000000  0.25000000  1
  Mn  Mn1  1  0.50000001  0.50000001  0.50000001  1
  Ti  Ti2  1  0.87500001  0.37500000  0.87500001  1
  Ti  Ti3  1  0.87500001  0.87500001  0.87500001  1
  Ti  Ti4  1  0.37500000  0.87500001  0.87500001  1
  Ti  Ti5  1  0.87500001  0.87500001  0.37500000  1
  Ti  Ti6  1  0.63202001  0.63202101  0.63202101  1
  Ti  Ti7  1  0.10393700  0.63202101  0.63202101  1
  Ti  Ti8  1  0.63202001  0.63202101  0.10393800  1
  N  N9  1  0.11798000  0.64606201  0.11797900  1
  N  N10  1  0.11798000  0.11797900  0.64606201  1
  N  N11  1  0.64606301  0.11797900  0.11797900  1
  Ti  Ti12  1  0.63202001  0.10393800  0.63202101  1
  N  N13  1  0.11798000  0.11797900  0.11797900  1
