# generated using pymatgen
data_CsKAl2ClF5
_symmetry_space_group_name_H-M   'P 1'
_cell_length_a   6.76573324
_cell_length_b   6.76573324
_cell_length_c   6.76573324
_cell_angle_alpha   60.00000000
_cell_angle_beta   60.00000000
_cell_angle_gamma   60.00000000
_symmetry_Int_Tables_number   1
_chemical_formula_structural   CsKAl2ClF5
_chemical_formula_sum   'Cs1 K1 Al2 Cl1 F5'
_cell_volume   218.99268769
_cell_formula_units_Z   1
loop_
 _symmetry_equiv_pos_site_id
 _symmetry_equiv_pos_as_xyz
  1  'x, y, z'
loop_
 _atom_site_type_symbol
 _atom_site_label
 _atom_site_symmetry_multiplicity
 _atom_site_fract_x
 _atom_site_fract_y
 _atom_site_fract_z
 _atom_site_occupancy
  K  K0  1  0.75000002  0.75000002  0.75000002  1
  Cs  Cs1  1  0.25000001  0.25000001  0.25000001  1
  Al  Al2  1  0.50000002  0.50000002  0.50000002  1
  Al  Al3  1  0.00000000  0.00000000  0.00000000  1
  F  F4  1  0.20341801  0.79658202  0.20341801  1
  F  F5  1  0.79658202  0.20341801  0.79658202  1
  Cl  Cl6  1  0.20341801  0.79658202  0.79658202  1
  F  F7  1  0.79658202  0.20341801  0.20341801  1
  F  F8  1  0.20341801  0.20341801  0.79658202  1
  F  F9  1  0.79658202  0.79658202  0.20341801  1
