# generated using pymatgen
data_Na2Li2CaMgF8
_symmetry_space_group_name_H-M   'P 1'
_cell_length_a   7.30580616
_cell_length_b   7.30580616
_cell_length_c   7.32385063
_cell_angle_alpha   60.08146667
_cell_angle_beta   60.08146667
_cell_angle_gamma   59.99999619
_symmetry_Int_Tables_number   1
_chemical_formula_structural   Na2Li2CaMgF8
_chemical_formula_sum   'Na2 Li2 Ca1 Mg1 F8'
_cell_volume   276.75433915
_cell_formula_units_Z   1
loop_
 _symmetry_equiv_pos_site_id
 _symmetry_equiv_pos_as_xyz
  1  'x, y, z'
loop_
 _atom_site_type_symbol
 _atom_site_label
 _atom_site_symmetry_multiplicity
 _atom_site_fract_x
 _atom_site_fract_y
 _atom_site_fract_z
 _atom_site_occupancy
  Mg  Mg0  1  0.00000000  0.00000000  0.00000000  1
  Ca  Ca1  1  0.37887800  0.37887801  0.86336603  1
  Na  Na2  1  0.62112200  0.62112202  0.13663404  1
  Na  Na3  1  0.49999998  1.00000003  0.50000005  1
  Li  Li4  1  0.00000000  0.00000000  0.50000001  1
  Li  Li5  1  -0.00000001  0.50000001  0.50000002  1
  F  F6  1  0.22624298  0.77340502  0.22694703  1
  F  F7  1  0.74873699  0.74873702  0.75378905  1
  F  F8  1  0.22659498  0.77375702  0.77305304  1
  F  F9  1  0.22659500  0.22659501  0.77305302  1
  F  F10  1  0.77375701  0.22659501  0.77305303  1
  F  F11  1  0.25126300  0.25126301  0.24621102  1
  F  F12  1  0.77340501  0.22624301  0.22694703  1
  F  F13  1  0.77340499  0.77340502  0.22694705  1
