# generated using pymatgen
data_ScF2
_symmetry_space_group_name_H-M   'P 1'
_cell_length_a   3.33273697
_cell_length_b   4.79496193
_cell_length_c   4.79494095
_cell_angle_alpha   90.00088501
_cell_angle_beta   89.99966431
_cell_angle_gamma   89.99966431
_symmetry_Int_Tables_number   1
_chemical_formula_structural   ScF2
_chemical_formula_sum   'Sc2 F4'
_cell_volume   76.62481965
_cell_formula_units_Z   2
loop_
 _symmetry_equiv_pos_site_id
 _symmetry_equiv_pos_as_xyz
  1  'x, y, z'
loop_
 _atom_site_type_symbol
 _atom_site_label
 _atom_site_symmetry_multiplicity
 _atom_site_fract_x
 _atom_site_fract_y
 _atom_site_fract_z
 _atom_site_occupancy
  Sc  Sc0  1  0.00000000  0.00000000  0.00000000  1
  Sc  Sc1  1  0.50000005  0.50000001  0.50000003  1
  F  F2  1  0.00000006  0.69901501  0.30098501  1
  F  F3  1  0.50000708  0.80099001  0.80099004  1
  F  F4  1  0.00000003  0.30098500  0.69901501  1
  F  F5  1  0.49999302  0.19901000  0.19901003  1
