# generated using pymatgen
data_Li3VP2O7F
_symmetry_space_group_name_H-M   'P 1'
_cell_length_a   4.62858486
_cell_length_b   5.30893040
_cell_length_c   7.61077070
_cell_angle_alpha   90.20554352
_cell_angle_beta   104.19551849
_cell_angle_gamma   104.40424347
_symmetry_Int_Tables_number   1
_chemical_formula_structural   Li3VP2O7F
_chemical_formula_sum   'Li3 V1 P2 O7 F1'
_cell_volume   175.19210611
_cell_formula_units_Z   1
loop_
 _symmetry_equiv_pos_site_id
 _symmetry_equiv_pos_as_xyz
  1  'x, y, z'
loop_
 _atom_site_type_symbol
 _atom_site_label
 _atom_site_symmetry_multiplicity
 _atom_site_fract_x
 _atom_site_fract_y
 _atom_site_fract_z
 _atom_site_occupancy
  Li  Li0  1  0.72596105  0.71746303  0.98674900  1
  Li  Li1  1  0.27403902  0.28253701  0.01325100  1
  Li  Li2  1  0.05439301  0.23816801  0.39434400  1
  V  V3  1  0.94560706  0.76183203  0.60565600  1
  P  P4  1  0.64701403  0.19381001  0.74320101  1
  P  P5  1  0.35298604  0.80619003  0.25679899  1
  O  O6  1  0.84047004  0.37711001  0.62945501  1
  O  O7  1  0.68682005  0.91437504  0.38113999  1
  O  O8  1  0.15953003  0.62289002  0.37054499  1
  O  O9  1  0.31318001  0.08562500  0.61886001  1
  O  O10  1  0.20498201  0.03802400  0.20250300  1
  O  O11  1  0.63776103  0.34309101  0.91364201  1
  O  O12  1  0.36223903  0.65690903  0.08635799  1
  F  F13  1  0.79501806  0.96197604  0.79749699  1
