# generated using pymatgen
data_BeAlAsH2
_symmetry_space_group_name_H-M   'P 1'
_cell_length_a   4.84364700
_cell_length_b   4.84364700
_cell_length_c   4.84364700
_cell_angle_alpha   109.47122192
_cell_angle_beta   109.47122192
_cell_angle_gamma   109.47122192
_symmetry_Int_Tables_number   1
_chemical_formula_structural   BeAlAsH2
_chemical_formula_sum   'Be1 Al1 As1 H2'
_cell_volume   87.47733493
_cell_formula_units_Z   1
loop_
 _symmetry_equiv_pos_site_id
 _symmetry_equiv_pos_as_xyz
  1  'x, y, z'
loop_
 _atom_site_type_symbol
 _atom_site_label
 _atom_site_symmetry_multiplicity
 _atom_site_fract_x
 _atom_site_fract_y
 _atom_site_fract_z
 _atom_site_occupancy
  Be  Be0  1  0.00000000  0.00000000  0.00000000  1
  Al  Al1  1  0.32659208  1.00000007  1.00000010  1
  As  As2  1  0.67340807  0.67340805  0.67340808  1
  H  H3  1  1.00000011  1.00000007  0.32659209  1
  H  H4  1  1.00000006  0.32659202  1.00000008  1
