# generated using pymatgen
data_TlIn3
_symmetry_space_group_name_H-M   'P 1'
_cell_length_a   4.40366888
_cell_length_b   4.40366888
_cell_length_c   7.62215710
_cell_angle_alpha   73.20950317
_cell_angle_beta   73.20950317
_cell_angle_gamma   59.99998856
_symmetry_Int_Tables_number   1
_chemical_formula_structural   TlIn3
_chemical_formula_sum   'Tl1 In3'
_cell_volume   120.67694409
_cell_formula_units_Z   1
loop_
 _symmetry_equiv_pos_site_id
 _symmetry_equiv_pos_as_xyz
  1  'x, y, z'
loop_
 _atom_site_type_symbol
 _atom_site_label
 _atom_site_symmetry_multiplicity
 _atom_site_fract_x
 _atom_site_fract_y
 _atom_site_fract_z
 _atom_site_occupancy
  In  In0  1  0.00008600  0.00008600  0.99974202  1
  In  In1  1  0.50005103  0.50005099  0.49984699  1
  Tl  Tl2  1  0.87494006  0.87493999  0.37517997  1
  In  In3  1  0.37492302  0.37492300  0.87523100  1
