# generated using pymatgen
data_Zn2InAgTe4
_symmetry_space_group_name_H-M   'P 1'
_cell_length_a   6.45231915
_cell_length_b   6.45231915
_cell_length_c   7.83331633
_cell_angle_alpha   114.32116699
_cell_angle_beta   114.32117462
_cell_angle_gamma   90.00000000
_symmetry_Int_Tables_number   1
_chemical_formula_structural   Zn2InAgTe4
_chemical_formula_sum   'Zn2 In1 Ag1 Te4'
_cell_volume   265.09305342
_cell_formula_units_Z   1
loop_
 _symmetry_equiv_pos_site_id
 _symmetry_equiv_pos_as_xyz
  1  'x, y, z'
loop_
 _atom_site_type_symbol
 _atom_site_label
 _atom_site_symmetry_multiplicity
 _atom_site_fract_x
 _atom_site_fract_y
 _atom_site_fract_z
 _atom_site_occupancy
  In  In0  1  0.25000005  0.75000002  0.50000009  1
  Zn  Zn1  1  0.50000004  0.50000001  0.00000007  1
  Zn  Zn2  1  0.00000000  0.00000000  0.00000000  1
  Ag  Ag3  1  0.75000002  0.25000001  0.50000007  1
  Te  Te4  1  0.35759103  0.34991501  0.23908405  1
  Te  Te5  1  0.88149307  0.88916902  0.23908413  1
  Te  Te6  1  0.11083105  0.64240901  0.76091607  1
  Te  Te7  1  0.65008501  0.11850700  0.76091605  1
