# generated using pymatgen
data_Hf2CrSe3
_symmetry_space_group_name_H-M   'P 1'
_cell_length_a   7.31767893
_cell_length_b   7.68243980
_cell_length_c   8.03896332
_cell_angle_alpha   61.45653534
_cell_angle_beta   90.00000000
_cell_angle_gamma   90.00000000
_symmetry_Int_Tables_number   1
_chemical_formula_structural   Hf2CrSe3
_chemical_formula_sum   'Hf4 Cr2 Se6'
_cell_volume   397.00138911
_cell_formula_units_Z   2
loop_
 _symmetry_equiv_pos_site_id
 _symmetry_equiv_pos_as_xyz
  1  'x, y, z'
loop_
 _atom_site_type_symbol
 _atom_site_label
 _atom_site_symmetry_multiplicity
 _atom_site_fract_x
 _atom_site_fract_y
 _atom_site_fract_z
 _atom_site_occupancy
  Hf  Hf0  1  0.77021801  0.81750303  0.67670201  1
  Hf  Hf1  1  0.77021801  0.49420502  0.32329800  1
  Hf  Hf2  1  0.27021800  0.50579502  0.67670201  1
  Hf  Hf3  1  0.27021800  0.18249701  0.32329801  1
  Cr  Cr4  1  0.41419400  0.97556304  -0.00000003  1
  Cr  Cr5  1  0.91419401  0.02443700  -0.00000000  1
  Se  Se6  1  0.68512701  0.79706803  -0.00000002  1
  Se  Se7  1  0.18512700  0.20293201  -0.00000001  1
  Se  Se8  1  0.16722200  0.86198803  0.68156200  1
  Se  Se9  1  0.16722200  0.54355002  0.31843800  1
  Se  Se10  1  0.66722201  0.13801201  0.31843801  1
  Se  Se11  1  0.66722201  0.45645002  0.68156202  1
