# generated using pymatgen
data_Y3Zr2Sc2O12
_symmetry_space_group_name_H-M   'P 1'
_cell_length_a   6.23137712
_cell_length_b   6.28890705
_cell_length_c   6.48686647
_cell_angle_alpha   100.48191833
_cell_angle_beta   99.86744690
_cell_angle_gamma   99.13372040
_symmetry_Int_Tables_number   1
_chemical_formula_structural   Y3Zr2Sc2O12
_chemical_formula_sum   'Y3 Zr2 Sc2 O12'
_cell_volume   241.49230098
_cell_formula_units_Z   1
loop_
 _symmetry_equiv_pos_site_id
 _symmetry_equiv_pos_as_xyz
  1  'x, y, z'
loop_
 _atom_site_type_symbol
 _atom_site_label
 _atom_site_symmetry_multiplicity
 _atom_site_fract_x
 _atom_site_fract_y
 _atom_site_fract_z
 _atom_site_occupancy
  Y  Y0  1  0.27887399  0.12684499  0.61928603  1
  Zr  Zr1  1  0.00000000  0.00000000  0.00000000  1
  Y  Y2  1  0.84079898  0.38500298  0.67823704  1
  Y  Y3  1  0.60453798  0.32447899  0.13437702  1
  Sc  Sc4  1  0.39546198  0.67552097  0.86562301  1
  Sc  Sc5  1  0.15920098  0.61499697  0.32176299  1
  Zr  Zr6  1  0.72112597  0.87315496  0.38071400  1
  O  O7  1  0.93113599  0.07527800  0.68271806  1
  O  O8  1  0.56557498  0.40609098  0.81827203  1
  O  O9  1  0.43442498  0.59390898  0.18172800  1
  O  O10  1  0.06886397  0.92472196  0.31728197  1
  O  O11  1  0.32322599  0.08245000  0.95237104  1
  O  O12  1  0.57765499  0.16903999  0.40706103  1
  O  O13  1  0.94397998  0.32805199  0.10820603  1
  O  O14  1  0.18420199  0.42875098  0.56952101  1
  O  O15  1  0.81579797  0.57124898  0.43047902  1
  O  O16  1  0.05601998  0.67194797  0.89179400  1
  O  O17  1  0.42234497  0.83095997  0.59293900  1
  O  O18  1  0.67677396  0.91754996  0.04762899  1
