# generated using pymatgen
data_Ti4BeAlReOs2C5
_symmetry_space_group_name_H-M   'P 1'
_cell_length_a   6.11774635
_cell_length_b   6.11774635
_cell_length_c   6.11774635
_cell_angle_alpha   60.00000000
_cell_angle_beta   60.00000000
_cell_angle_gamma   60.00000000
_symmetry_Int_Tables_number   1
_chemical_formula_structural   Ti4BeAlReOs2C5
_chemical_formula_sum   'Ti4 Be1 Al1 Re1 Os2 C5'
_cell_volume   161.90468000
_cell_formula_units_Z   1
loop_
 _symmetry_equiv_pos_site_id
 _symmetry_equiv_pos_as_xyz
  1  'x, y, z'
loop_
 _atom_site_type_symbol
 _atom_site_label
 _atom_site_symmetry_multiplicity
 _atom_site_fract_x
 _atom_site_fract_y
 _atom_site_fract_z
 _atom_site_occupancy
  Ti  Ti0  1  0.50000001  0.50000001  0.50000001  1
  Ti  Ti1  1  0.25000000  0.25000000  0.25000000  1
  Ti  Ti2  1  0.87500001  0.87500001  0.37500001  1
  Ti  Ti3  1  0.37500001  0.87500001  0.87500001  1
  Re  Re4  1  0.87500001  0.87500001  0.87500001  1
  Al  Al5  1  0.87500001  0.37500001  0.87500001  1
  C  C6  1  0.09362000  0.63546001  0.63546001  1
  Be  Be7  1  0.11454100  0.11454000  0.65637901  1
  Os  Os8  1  0.11454100  0.65637901  0.11454000  1
  Os  Os9  1  0.11454100  0.11454000  0.11454000  1
  C  C10  1  0.63545901  0.09362100  0.63546001  1
  C  C11  1  0.63545901  0.63546001  0.63546001  1
  C  C12  1  0.65638001  0.11454000  0.11454000  1
  C  C13  1  0.63545901  0.63546001  0.09362100  1
