# generated using pymatgen
data_AgSO4
_symmetry_space_group_name_H-M   'P 1'
_cell_length_a   3.19178796
_cell_length_b   4.55466795
_cell_length_c   4.61138105
_cell_angle_alpha   90.00000000
_cell_angle_beta   90.00000000
_cell_angle_gamma   90.00000000
_symmetry_Int_Tables_number   1
_chemical_formula_structural   AgSO4
_chemical_formula_sum   'Ag1 S1 O4'
_cell_volume   67.03811031
_cell_formula_units_Z   1
loop_
 _symmetry_equiv_pos_site_id
 _symmetry_equiv_pos_as_xyz
  1  'x, y, z'
loop_
 _atom_site_type_symbol
 _atom_site_label
 _atom_site_symmetry_multiplicity
 _atom_site_fract_x
 _atom_site_fract_y
 _atom_site_fract_z
 _atom_site_occupancy
  Ag  Ag0  1  0.00000000  0.00000000  0.00000000  1
  S  S1  1  0.50000001  0.50000001  0.49999999  1
  O  O2  1  -0.00000000  0.36239000  0.25916500  1
  O  O3  1  -0.00000000  0.63761001  0.74083499  1
  O  O4  1  0.50000001  0.13761000  0.75916499  1
  O  O5  1  0.50000001  0.86239001  0.24083500  1
