# generated using pymatgen
data_Cs4PbIBr5O
_symmetry_space_group_name_H-M   'P 1'
_cell_length_a   5.92085409
_cell_length_b   8.58608246
_cell_length_c   8.58608246
_cell_angle_alpha   120.00000000
_cell_angle_beta   90.00000000
_cell_angle_gamma   90.00000000
_symmetry_Int_Tables_number   1
_chemical_formula_structural   Cs4PbIBr5O
_chemical_formula_sum   'Cs4 Pb1 I1 Br5 O1'
_cell_volume   378.01157683
_cell_formula_units_Z   1
loop_
 _symmetry_equiv_pos_site_id
 _symmetry_equiv_pos_as_xyz
  1  'x, y, z'
loop_
 _atom_site_type_symbol
 _atom_site_label
 _atom_site_symmetry_multiplicity
 _atom_site_fract_x
 _atom_site_fract_y
 _atom_site_fract_z
 _atom_site_occupancy
  Cs  Cs0  1  0.49999999  0.00000000  0.64256102  1
  Cs  Cs1  1  0.49999999  0.64256098  1.00000007  1
  Cs  Cs2  1  0.49999999  0.35743899  0.35743903  1
  Cs  Cs3  1  0.00000000  0.00000000  0.30712301  1
  Pb  Pb4  1  0.99999998  0.30712299  1.00000005  1
  I  I5  1  0.99999998  0.69287698  0.69287706  1
  Br  Br6  1  0.81886299  0.33333333  0.66666671  1
  O  O7  1  0.18113700  0.33333333  0.66666671  1
  Br  Br8  1  0.18113700  0.66666665  0.33333338  1
  Br  Br9  1  0.81886299  0.66666665  0.33333338  1
  Br  Br10  1  0.32013000  0.00000000  -0.00000000  1
  Br  Br11  1  0.67986999  0.00000000  -0.00000000  1
