# generated using pymatgen
data_La2MnCo3(NiO3)2
_symmetry_space_group_name_H-M   'P 1'
_cell_length_a   5.52959394
_cell_length_b   5.52959394
_cell_length_c   5.52959442
_cell_angle_alpha   101.57625580
_cell_angle_beta   101.57625580
_cell_angle_gamma   101.57625580
_symmetry_Int_Tables_number   1
_chemical_formula_structural   La2MnCo3(NiO3)2
_chemical_formula_sum   'La2 Mn1 Co3 Ni2 O6'
_cell_volume   157.06985020
_cell_formula_units_Z   1
loop_
 _symmetry_equiv_pos_site_id
 _symmetry_equiv_pos_as_xyz
  1  'x, y, z'
loop_
 _atom_site_type_symbol
 _atom_site_label
 _atom_site_symmetry_multiplicity
 _atom_site_fract_x
 _atom_site_fract_y
 _atom_site_fract_z
 _atom_site_occupancy
  La  La0  1  0.49999994  0.49999996  0.49999994  1
  Mn  Mn1  1  0.65646197  0.00000000  0.34353797  1
  Co  Co2  1  -0.00000003  0.34353798  0.65646198  1
  La  La3  1  0.65646194  0.34353798  0.99999994  1
  Ni  Ni4  1  -0.00000005  0.65646195  0.34353795  1
  Co  Co5  1  0.34353791  0.99999993  0.65646191  1
  Co  Co6  1  0.34353793  0.65646195  -0.00000006  1
  Ni  Ni7  1  0.00000000  0.00000000  0.00000000  1
  O  O8  1  0.09139494  0.71991095  0.71991094  1
  O  O9  1  0.71991096  0.09139499  0.71991096  1
  O  O10  1  0.28008896  0.28008898  0.90860497  1
  O  O11  1  0.90860493  0.28008898  0.28008893  1
  O  O12  1  0.28008892  0.90860494  0.28008892  1
  O  O13  1  0.71991091  0.71991095  0.09139491  1
