# generated using pymatgen
data_In3Ga2(SnS4)3
_symmetry_space_group_name_H-M   'P 1'
_cell_length_a   6.95960617
_cell_length_b   7.53990698
_cell_length_c   10.66516399
_cell_angle_alpha   90.00000000
_cell_angle_beta   90.00000000
_cell_angle_gamma   105.24533844
_symmetry_Int_Tables_number   1
_chemical_formula_structural   In3Ga2(SnS4)3
_chemical_formula_sum   'In3 Ga2 Sn3 S12'
_cell_volume   539.95729195
_cell_formula_units_Z   1
loop_
 _symmetry_equiv_pos_site_id
 _symmetry_equiv_pos_as_xyz
  1  'x, y, z'
loop_
 _atom_site_type_symbol
 _atom_site_label
 _atom_site_symmetry_multiplicity
 _atom_site_fract_x
 _atom_site_fract_y
 _atom_site_fract_z
 _atom_site_occupancy
  In  In0  1  0.49545499  0.81435300  0.20876500  1
  Ga  Ga1  1  0.00454500  0.18564700  0.70876500  1
  Ga  Ga2  1  0.50454499  0.18564700  0.79123500  1
  In  In3  1  0.99545498  0.81435300  0.29123500  1
  Sn  Sn4  1  0.77318798  0.62251000  0.91855900  1
  In  In5  1  0.72681198  0.37749000  0.41855900  1
  Sn  Sn6  1  0.22681200  0.37749000  0.08144100  1
  Sn  Sn7  1  0.27318800  0.62251000  0.58144100  1
  S  S8  1  0.42121499  0.73099300  0.01180000  1
  S  S9  1  0.07878500  0.26900700  0.51180000  1
  S  S10  1  0.57878499  0.26900700  0.98820000  1
  S  S11  1  0.92121498  0.73099300  0.48820000  1
  S  S12  1  0.41775799  0.55892400  0.32137100  1
  S  S13  1  0.08224200  0.44107600  0.82137100  1
  S  S14  1  0.58224199  0.44107600  0.67862900  1
  S  S15  1  0.91775798  0.55892400  0.17862900  1
  S  S16  1  0.81123598  0.00343100  0.22036300  1
  S  S17  1  0.68876399  0.99656900  0.72036300  1
  S  S18  1  0.18876400  0.99656900  0.77963700  1
  S  S19  1  0.31123599  0.00343100  0.27963700  1
