# generated using pymatgen
data_Ba4Pr2InSe9
_symmetry_space_group_name_H-M   'P 1'
_cell_length_a   7.18466997
_cell_length_b   8.09200764
_cell_length_c   9.16663837
_cell_angle_alpha   95.41513824
_cell_angle_beta   113.07229614
_cell_angle_gamma   90.00000000
_symmetry_Int_Tables_number   1
_chemical_formula_structural   Ba4Pr2InSe9
_chemical_formula_sum   'Ba4 Pr2 In1 Se9'
_cell_volume   487.71865069
_cell_formula_units_Z   1
loop_
 _symmetry_equiv_pos_site_id
 _symmetry_equiv_pos_as_xyz
  1  'x, y, z'
loop_
 _atom_site_type_symbol
 _atom_site_label
 _atom_site_symmetry_multiplicity
 _atom_site_fract_x
 _atom_site_fract_y
 _atom_site_fract_z
 _atom_site_occupancy
  Ba  Ba0  1  0.50000000  0.00000000  0.50000000  1
  Ba  Ba1  1  0.00000001  0.49999997  0.50000001  1
  Ba  Ba2  1  0.12883402  0.93625795  0.79265603  1
  Ba  Ba3  1  0.87116601  0.06374200  0.20734401  1
  Pr  Pr4  1  0.66382201  0.43625798  0.79265602  1
  Pr  Pr5  1  0.33617801  0.56374197  0.20734402  1
  Se  Se6  1  0.86419501  0.18025099  0.55850101  1
  In  In7  1  0.07403601  0.24999999  0.00000001  1
  Se  Se8  1  0.13580502  0.81974896  0.44149903  1
  Se  Se9  1  0.70404201  0.42057498  0.17543802  1
  Se  Se10  1  0.47139602  0.92057495  0.17543804  1
  Se  Se11  1  0.29595801  0.57942497  0.82456202  1
  Se  Se12  1  0.52860401  0.07942500  0.82456200  1
  Se  Se13  1  0.30569401  0.31974898  0.44149901  1
  Se  Se14  1  0.69430602  0.68025097  0.55850103  1
  Se  Se15  1  0.92596402  0.74999996  1.00000003  1
