# generated using pymatgen
data_SrI
_symmetry_space_group_name_H-M   'P 1'
_cell_length_a   6.09835720
_cell_length_b   9.03495216
_cell_length_c   9.03495216
_cell_angle_alpha   120.00000000
_cell_angle_beta   90.00000000
_cell_angle_gamma   90.00000000
_symmetry_Int_Tables_number   1
_chemical_formula_structural   SrI
_chemical_formula_sum   'Sr6 I6'
_cell_volume   431.11705660
_cell_formula_units_Z   6
loop_
 _symmetry_equiv_pos_site_id
 _symmetry_equiv_pos_as_xyz
  1  'x, y, z'
loop_
 _atom_site_type_symbol
 _atom_site_label
 _atom_site_symmetry_multiplicity
 _atom_site_fract_x
 _atom_site_fract_y
 _atom_site_fract_z
 _atom_site_occupancy
  Sr  Sr0  1  0.00000000  0.35005999  0.35006000  1
  Sr  Sr1  1  0.99999997  0.64993999  0.00000000  1
  Sr  Sr2  1  0.99999997  0.00000000  0.64993999  1
  Sr  Sr3  1  0.49999998  0.68363299  0.68363299  1
  Sr  Sr4  1  0.49999998  0.31636699  0.99999999  1
  Sr  Sr5  1  0.49999998  0.00000000  0.31636700  1
  I  I6  1  0.80028697  0.00000000  0.00000000  1
  I  I7  1  0.19971299  0.00000000  0.00000000  1
  I  I8  1  0.70075998  0.66666666  0.33333333  1
  I  I9  1  0.29923999  0.66666666  0.33333333  1
  I  I10  1  0.29923999  0.33333333  0.66666666  1
  I  I11  1  0.70075998  0.33333333  0.66666666  1
