# generated using pymatgen
data_Al4Si6BCN8
_symmetry_space_group_name_H-M   'P 1'
_cell_length_a   4.57480812
_cell_length_b   5.97488403
_cell_length_c   6.09052086
_cell_angle_alpha   90.00000000
_cell_angle_beta   90.00000000
_cell_angle_gamma   90.00000000
_symmetry_Int_Tables_number   1
_chemical_formula_structural   Al4Si6BCN8
_chemical_formula_sum   'Al4 Si6 B1 C1 N8'
_cell_volume   166.47798042
_cell_formula_units_Z   1
loop_
 _symmetry_equiv_pos_site_id
 _symmetry_equiv_pos_as_xyz
  1  'x, y, z'
loop_
 _atom_site_type_symbol
 _atom_site_label
 _atom_site_symmetry_multiplicity
 _atom_site_fract_x
 _atom_site_fract_y
 _atom_site_fract_z
 _atom_site_occupancy
  Al  Al0  1  0.25810199  0.76012000  0.80198602  1
  Si  Si1  1  0.25810199  0.23988000  0.80198602  1
  Al  Al2  1  0.82223398  0.50000000  -0.00000000  1
  Al  Al3  1  0.25810199  0.76012000  0.19801400  1
  Si  Si4  1  0.25810199  0.23988000  0.19801400  1
  Al  Al5  1  0.74189798  0.73988000  0.30198601  1
  Si  Si6  1  0.74189798  0.26012000  0.30198601  1
  Si  Si7  1  0.17776600  0.00000000  0.50000001  1
  Si  Si8  1  0.74189798  0.73988000  0.69801402  1
  B  B9  1  0.74189798  0.26012000  0.69801402  1
  Si  Si10  1  0.77928998  0.00000000  0.00000000  1
  N  N11  1  0.22070999  0.50000000  0.50000001  1
  N  N12  1  0.96679297  0.00000000  0.79170702  1
  C  C13  1  0.59516198  0.78727500  0.00000000  1
  N  N14  1  0.59516198  0.21272500  0.00000000  1
  N  N15  1  0.96679297  0.00000000  0.20829300  1
  N  N16  1  0.03320700  0.50000000  0.29170701  1
  N  N17  1  0.40483799  0.71272500  0.50000001  1
  N  N18  1  0.40483799  0.28727500  0.50000001  1
  N  N19  1  0.03320700  0.50000000  0.70829302  1
