# generated using pymatgen
data_LiAsCl6
_symmetry_space_group_name_H-M   'P 1'
_cell_length_a   5.61865520
_cell_length_b   5.61865520
_cell_length_c   5.88775730
_cell_angle_alpha   61.50075150
_cell_angle_beta   61.50075150
_cell_angle_gamma   60.00001144
_symmetry_Int_Tables_number   1
_chemical_formula_structural   LiAsCl6
_chemical_formula_sum   'Li1 As1 Cl6'
_cell_volume   134.33445044
_cell_formula_units_Z   1
loop_
 _symmetry_equiv_pos_site_id
 _symmetry_equiv_pos_as_xyz
  1  'x, y, z'
loop_
 _atom_site_type_symbol
 _atom_site_label
 _atom_site_symmetry_multiplicity
 _atom_site_fract_x
 _atom_site_fract_y
 _atom_site_fract_z
 _atom_site_occupancy
  Li  Li0  1  0.50000003  0.49999999  0.49999998  1
  As  As1  1  0.00000000  0.00000000  0.00000000  1
  Cl  Cl2  1  0.84066304  0.63933499  0.26007596  1
  Cl  Cl3  1  0.63933502  0.25992600  0.26007598  1
  Cl  Cl4  1  0.25992605  0.84066299  0.26007597  1
  Cl  Cl5  1  0.36066504  0.74007399  0.73992398  1
  Cl  Cl6  1  0.74007401  0.15933700  0.73992400  1
  Cl  Cl7  1  0.15933702  0.36066500  0.73992400  1
