# generated using pymatgen
data_Mg2VGe4PO12
_symmetry_space_group_name_H-M   'P 1'
_cell_length_a   5.31463718
_cell_length_b   6.65079927
_cell_length_c   6.65439892
_cell_angle_alpha   83.54688263
_cell_angle_beta   77.89891815
_cell_angle_gamma   77.95935822
_symmetry_Int_Tables_number   1
_chemical_formula_structural   Mg2VGe4PO12
_chemical_formula_sum   'Mg2 V1 Ge4 P1 O12'
_cell_volume   224.34356909
_cell_formula_units_Z   1
loop_
 _symmetry_equiv_pos_site_id
 _symmetry_equiv_pos_as_xyz
  1  'x, y, z'
loop_
 _atom_site_type_symbol
 _atom_site_label
 _atom_site_symmetry_multiplicity
 _atom_site_fract_x
 _atom_site_fract_y
 _atom_site_fract_z
 _atom_site_occupancy
  Mg  Mg0  1  0.24705699  0.19481600  0.29974897  1
  Mg  Mg1  1  0.75294298  0.80518402  0.70025091  1
  Ge  Ge2  1  0.74918198  0.41060701  0.08849494  1
  V  V3  1  0.25081799  0.58939301  0.91150494  1
  Ge  Ge4  1  0.25858199  0.69931302  0.38623994  1
  Ge  Ge5  1  0.74141798  0.30068701  0.61375994  1
  P  P6  1  0.75861898  0.88516602  0.20119091  1
  Ge  Ge7  1  0.24138099  0.11483400  0.79880897  1
  O  O8  1  0.19562499  0.60798501  0.62231595  1
  O  O9  1  0.80437498  0.39201501  0.37768394  1
  O  O10  1  0.34775399  0.53399501  0.20645795  1
  O  O11  1  0.65224598  0.46600501  0.79354193  1
  O  O12  1  0.48454998  0.84327302  0.35904492  1
  O  O13  1  0.51544999  0.15672700  0.64095496  1
  O  O14  1  0.98415897  0.85818202  0.34552890  1
  O  O15  1  0.01584100  0.14181800  0.65447098  1
  O  O16  1  0.84954598  0.70542802  0.03581192  1
  O  O17  1  0.15045399  0.29457201  0.96418797  1
  O  O18  1  0.69427598  0.12065600  0.10763296  1
  O  O19  1  0.30572399  0.87934402  0.89236693  1
