# generated using pymatgen
data_Y2AlSi3PC
_symmetry_space_group_name_H-M   'P 1'
_cell_length_a   4.62041903
_cell_length_b   4.62041903
_cell_length_c   7.11611700
_cell_angle_alpha   90.00000000
_cell_angle_beta   90.00000000
_cell_angle_gamma   112.63417816
_symmetry_Int_Tables_number   1
_chemical_formula_structural   Y2AlSi3PC
_chemical_formula_sum   'Y2 Al1 Si3 P1 C1'
_cell_volume   140.21629251
_cell_formula_units_Z   1
loop_
 _symmetry_equiv_pos_site_id
 _symmetry_equiv_pos_as_xyz
  1  'x, y, z'
loop_
 _atom_site_type_symbol
 _atom_site_label
 _atom_site_symmetry_multiplicity
 _atom_site_fract_x
 _atom_site_fract_y
 _atom_site_fract_z
 _atom_site_occupancy
  Y  Y0  1  0.23006997  0.79384397  0.75000000  1
  Y  Y1  1  0.79384397  0.23006999  0.25000000  1
  Si  Si2  1  0.30914098  0.40299098  0.75000000  1
  Al  Al3  1  0.40299098  0.30914099  0.25000000  1
  Si  Si4  1  0.96827595  0.57470197  0.06199000  1
  P  P5  1  0.57470196  0.96827596  0.93801000  1
  Si  Si6  1  0.96827595  0.57470197  0.43801000  1
  C  C7  1  0.57470196  0.96827596  0.56199000  1
