# generated using pymatgen
data_BaSr2CaLaN3F8
_symmetry_space_group_name_H-M   'P 1'
_cell_length_a   3.96610093
_cell_length_b   3.96610093
_cell_length_c   15.28333664
_cell_angle_alpha   90.00000000
_cell_angle_beta   90.00000000
_cell_angle_gamma   90.00000000
_symmetry_Int_Tables_number   1
_chemical_formula_structural   BaSr2CaLaN3F8
_chemical_formula_sum   'Ba1 Sr2 Ca1 La1 N3 F8'
_cell_volume   240.40622198
_cell_formula_units_Z   1
loop_
 _symmetry_equiv_pos_site_id
 _symmetry_equiv_pos_as_xyz
  1  'x, y, z'
loop_
 _atom_site_type_symbol
 _atom_site_label
 _atom_site_symmetry_multiplicity
 _atom_site_fract_x
 _atom_site_fract_y
 _atom_site_fract_z
 _atom_site_occupancy
  Ba  Ba0  1  0.50000001  0.50000001  0.50000001  1
  Sr  Sr1  1  0.50000001  0.50000001  0.84954502  1
  La  La2  1  0.50000001  0.50000001  0.15045500  1
  Sr  Sr3  1  0.00000000  0.00000000  0.00000000  1
  Ca  Ca4  1  0.00000000  0.00000000  0.28172301  1
  N  N5  1  0.00000000  0.00000000  0.71827702  1
  N  N6  1  0.00000000  0.00000000  0.60036601  1
  N  N7  1  0.00000000  0.00000000  0.39963401  1
  F  F8  1  0.50000001  0.00000000  0.74619302  1
  F  F9  1  -0.00000000  0.50000001  0.74619302  1
  F  F10  1  0.50000001  0.00000000  0.25380701  1
  F  F11  1  -0.00000000  0.50000001  0.25380701  1
  F  F12  1  -0.00000000  0.50000001  0.00000000  1
  F  F13  1  0.50000001  0.00000000  0.00000000  1
  F  F14  1  0.00000000  0.00000000  0.12960900  1
  F  F15  1  0.00000000  0.00000000  0.87039102  1
