# generated using pymatgen
data_KTl(PS4)2
_symmetry_space_group_name_H-M   'P 1'
_cell_length_a   6.40668011
_cell_length_b   6.40668011
_cell_length_c   7.51701927
_cell_angle_alpha   115.22315979
_cell_angle_beta   115.22315979
_cell_angle_gamma   90.00000000
_symmetry_Int_Tables_number   1
_chemical_formula_structural   KTl(PS4)2
_chemical_formula_sum   'K1 Tl1 P2 S8'
_cell_volume   246.21446798
_cell_formula_units_Z   1
loop_
 _symmetry_equiv_pos_site_id
 _symmetry_equiv_pos_as_xyz
  1  'x, y, z'
loop_
 _atom_site_type_symbol
 _atom_site_label
 _atom_site_symmetry_multiplicity
 _atom_site_fract_x
 _atom_site_fract_y
 _atom_site_fract_z
 _atom_site_occupancy
  K  K0  1  0.25000001  0.25000000  0.50000003  1
  Tl  Tl1  1  0.75000003  0.75000001  0.50000007  1
  P  P2  1  0.50000004  1.00000001  1.00000008  1
  P  P3  1  0.00000002  0.50000000  1.00000004  1
  S  S4  1  0.46050701  0.26972000  0.23022703  1
  S  S5  1  0.23027900  0.03949200  0.76977102  1
  S  S6  1  0.53949303  0.73028001  0.76977307  1
  S  S7  1  0.03949302  0.53949300  0.76977204  1
  S  S8  1  0.76972104  0.96050801  0.23022908  1
  S  S9  1  0.26972103  0.76972101  0.23022805  1
  S  S10  1  0.96050702  0.46050700  0.23022806  1
  S  S11  1  0.73027901  0.23027900  0.76977205  1
