# generated using pymatgen
data_Gd2BTe2IrRu4
_symmetry_space_group_name_H-M   'P 1'
_cell_length_a   4.08483410
_cell_length_b   6.31859636
_cell_length_c   6.31859636
_cell_angle_alpha   116.96869659
_cell_angle_beta   90.00000000
_cell_angle_gamma   90.00000000
_symmetry_Int_Tables_number   1
_chemical_formula_structural   Gd2BTe2IrRu4
_chemical_formula_sum   'Gd2 B1 Te2 Ir1 Ru4'
_cell_volume   145.35077429
_cell_formula_units_Z   1
loop_
 _symmetry_equiv_pos_site_id
 _symmetry_equiv_pos_as_xyz
  1  'x, y, z'
loop_
 _atom_site_type_symbol
 _atom_site_label
 _atom_site_symmetry_multiplicity
 _atom_site_fract_x
 _atom_site_fract_y
 _atom_site_fract_z
 _atom_site_occupancy
  Gd  Gd0  1  0.00000000  0.00000000  0.00000000  1
  Gd  Gd1  1  0.49999999  0.69249098  0.30750897  1
  Te  Te2  1  0.49999999  0.30750899  0.69249098  1
  Te  Te3  1  0.49999999  0.49999999  0.49999997  1
  Ir  Ir4  1  0.49999999  0.04382600  0.33470500  1
  B  B5  1  0.49999999  0.95617397  0.66529495  1
  Ru  Ru6  1  -0.00000000  0.70110898  0.29889097  1
  Ru  Ru7  1  -0.00000000  0.29889099  0.70110898  1
  Ru  Ru8  1  0.49999999  0.66529498  0.95617396  1
  Ru  Ru9  1  0.49999999  0.33470499  0.04382598  1
