# generated using pymatgen
data_Cs2BaSb4Te2Se(NO)5
_symmetry_space_group_name_H-M   'P 1'
_cell_length_a   7.48040199
_cell_length_b   7.48040199
_cell_length_c   7.48040199
_cell_angle_alpha   109.47122192
_cell_angle_beta   109.47122192
_cell_angle_gamma   109.47122192
_symmetry_Int_Tables_number   1
_chemical_formula_structural   Cs2BaSb4Te2Se(NO)5
_chemical_formula_sum   'Cs2 Ba1 Sb4 Te2 Se1 N5 O5'
_cell_volume   322.22030192
_cell_formula_units_Z   1
loop_
 _symmetry_equiv_pos_site_id
 _symmetry_equiv_pos_as_xyz
  1  'x, y, z'
loop_
 _atom_site_type_symbol
 _atom_site_label
 _atom_site_symmetry_multiplicity
 _atom_site_fract_x
 _atom_site_fract_y
 _atom_site_fract_z
 _atom_site_occupancy
  Sb  Sb0  1  0.49999999  0.00000000  0.00000001  1
  Ba  Ba1  1  0.50000002  0.50000001  0.50000003  1
  Cs  Cs2  1  0.00000003  0.50000001  0.00000003  1
  Cs  Cs3  1  0.00000000  0.00000000  0.49999999  1
  Sb  Sb4  1  0.00000000  0.00000000  0.00000000  1
  Sb  Sb5  1  0.49999999  0.00000000  0.50000000  1
  Te  Te6  1  0.50000002  0.50000001  1.00000002  1
  Sb  Sb7  1  0.00000003  0.50000001  0.50000002  1
  N  N8  1  0.73885499  0.00000000  0.73885500  1
  Se  Se9  1  0.26114500  0.00000000  0.26114500  1
  N  N10  1  0.73885503  0.73885501  1.00000003  1
  N  N11  1  0.26114501  0.26114500  0.00000002  1
  O  O12  1  0.00000002  0.26114500  0.26114501  1
  O  O13  1  0.00000005  0.73885501  0.73885502  1
  O  O14  1  0.75000002  0.50000001  0.25000004  1
  O  O15  1  0.25000003  0.50000001  0.75000002  1
  O  O16  1  0.25000004  0.75000001  0.50000004  1
  N  N17  1  0.75000000  0.25000000  0.50000002  1
  N  N18  1  0.50000004  0.75000001  0.25000005  1
  Te  Te19  1  0.50000001  0.25000000  0.75000001  1
