# generated using pymatgen
data_Li2CaMgMn4F12
_symmetry_space_group_name_H-M   'P 1'
_cell_length_a   4.99198818
_cell_length_b   5.27028179
_cell_length_c   8.60878658
_cell_angle_alpha   90.00000000
_cell_angle_beta   90.00000000
_cell_angle_gamma   90.00000000
_symmetry_Int_Tables_number   1
_chemical_formula_structural   Li2CaMgMn4F12
_chemical_formula_sum   'Li2 Ca1 Mg1 Mn4 F12'
_cell_volume   226.49015385
_cell_formula_units_Z   1
loop_
 _symmetry_equiv_pos_site_id
 _symmetry_equiv_pos_as_xyz
  1  'x, y, z'
loop_
 _atom_site_type_symbol
 _atom_site_label
 _atom_site_symmetry_multiplicity
 _atom_site_fract_x
 _atom_site_fract_y
 _atom_site_fract_z
 _atom_site_occupancy
  Ca  Ca0  1  0.49999998  0.75000003  0.80578104  1
  Li  Li1  1  -0.00000000  0.75000003  0.69421903  1
  Mg  Mg2  1  0.49999998  0.25000001  0.19421901  1
  Li  Li3  1  -0.00000000  0.25000001  0.30578101  1
  Mn  Mn4  1  0.49999998  0.75000003  0.40533502  1
  Mn  Mn5  1  -0.00000000  0.25000001  0.90533504  1
  Mn  Mn6  1  0.49999998  0.25000001  0.59466503  1
  Mn  Mn7  1  -0.00000000  0.75000003  0.09466500  1
  F  F8  1  0.79503497  0.57559002  0.91827404  1
  F  F9  1  0.70496497  0.57559002  0.58172603  1
  F  F10  1  0.20496499  0.92441004  0.91827404  1
  F  F11  1  0.24999999  0.40915302  0.75000004  1
  F  F12  1  0.74999997  0.59084702  0.25000001  1
  F  F13  1  0.24999999  0.90915304  0.25000001  1
  F  F14  1  0.70496497  0.07559000  0.41827402  1
  F  F15  1  0.74999997  0.09084700  0.75000004  1
  F  F16  1  0.29503499  0.42441002  0.41827402  1
  F  F17  1  0.20496499  0.42441002  0.08172600  1
  F  F18  1  0.79503497  0.07559000  0.08172600  1
  F  F19  1  0.29503499  0.92441004  0.58172603  1
