# generated using pymatgen
data_PH6S4O
_symmetry_space_group_name_H-M   'P 1'
_cell_length_a   3.78005910
_cell_length_b   5.46112442
_cell_length_c   5.69581461
_cell_angle_alpha   82.16475677
_cell_angle_beta   70.62025452
_cell_angle_gamma   69.75177002
_symmetry_Int_Tables_number   1
_chemical_formula_structural   PH6S4O
_chemical_formula_sum   'P1 H6 S4 O1'
_cell_volume   104.03348533
_cell_formula_units_Z   1
loop_
 _symmetry_equiv_pos_site_id
 _symmetry_equiv_pos_as_xyz
  1  'x, y, z'
loop_
 _atom_site_type_symbol
 _atom_site_label
 _atom_site_symmetry_multiplicity
 _atom_site_fract_x
 _atom_site_fract_y
 _atom_site_fract_z
 _atom_site_occupancy
  P  P0  1  0.00000000  0.00000000  0.00000000  1
  H  H1  1  0.67711697  0.20096601  0.44480000  1
  H  H2  1  0.32288296  0.79903404  0.55519999  1
  H  H3  1  0.46242397  0.39712802  0.25113900  1
  H  H4  1  0.11069197  0.60287203  0.74886098  1
  H  H5  1  0.53757596  0.60287203  0.74886099  1
  H  H6  1  0.88930795  0.39712802  0.25113901  1
  S  S7  1  0.73038896  0.27328801  0.26593301  1
  S  S8  1  0.26961096  0.72671204  0.73406698  1
  S  S9  1  0.01130197  0.74351604  0.23388100  1
  O  O10  1  0.98869795  0.25648401  0.76611899  1
  S  S11  1  0.49999995  1.00000005  0.00000002  1
