# generated using pymatgen
data_HNCl5O5F8
_symmetry_space_group_name_H-M   'P 1'
_cell_length_a   7.36028624
_cell_length_b   7.36028624
_cell_length_c   7.36028624
_cell_angle_alpha   94.19794464
_cell_angle_beta   117.60664368
_cell_angle_gamma   117.60664368
_symmetry_Int_Tables_number   1
_chemical_formula_structural   HNCl5O5F8
_chemical_formula_sum   'H1 N1 Cl5 O5 F8'
_cell_volume   291.30182286
_cell_formula_units_Z   1
loop_
 _symmetry_equiv_pos_site_id
 _symmetry_equiv_pos_as_xyz
  1  'x, y, z'
loop_
 _atom_site_type_symbol
 _atom_site_label
 _atom_site_symmetry_multiplicity
 _atom_site_fract_x
 _atom_site_fract_y
 _atom_site_fract_z
 _atom_site_occupancy
  N  N0  1  0.25000000  0.87499998  0.12499999  1
  H  H1  1  0.74999999  0.87499998  0.12500000  1
  Cl  Cl2  1  0.25000000  0.37499999  0.12500000  1
  Cl  Cl3  1  0.74999999  0.87499998  0.62499998  1
  Cl  Cl4  1  0.99999999  0.69235799  0.69235799  1
  F  F5  1  0.99999999  0.30764199  0.30764200  1
  Cl  Cl6  1  0.49999999  0.05764200  0.55764199  1
  F  F7  1  0.49999999  0.44235799  0.94235798  1
  F  F8  1  0.99999998  0.18837500  0.81162499  1
  O  O9  1  0.99999999  0.81162498  0.18837500  1
  F  F10  1  0.62324900  0.81162398  0.81162398  1
  O  O11  1  0.37675099  0.18837600  0.18837600  1
  Cl  Cl12  1  0.00000001  0.78977498  0.78977497  1
  F  F13  1  0.99999998  0.21022500  0.21022500  1
  F  F14  1  0.50000000  0.56162499  0.43837499  1
  O  O15  1  0.50000000  0.93837498  0.06162499  1
  F  F16  1  0.87675099  0.93837598  0.43837599  1
  O  O17  1  0.12324900  0.56162399  0.06162399  1
  O  O18  1  0.50000000  0.96022498  0.46022498  1
  F  F19  1  0.50000000  0.53977499  0.03977500  1
