# generated using pymatgen
data_Na7LiInTe4As
_symmetry_space_group_name_H-M   'P 1'
_cell_length_a   8.00282478
_cell_length_b   8.00282478
_cell_length_c   8.59253502
_cell_angle_alpha   105.02177429
_cell_angle_beta   105.02177429
_cell_angle_gamma   109.89480591
_symmetry_Int_Tables_number   1
_chemical_formula_structural   Na7LiInTe4As
_chemical_formula_sum   'Na7 Li1 In1 Te4 As1'
_cell_volume   461.77744703
_cell_formula_units_Z   1
loop_
 _symmetry_equiv_pos_site_id
 _symmetry_equiv_pos_as_xyz
  1  'x, y, z'
loop_
 _atom_site_type_symbol
 _atom_site_label
 _atom_site_symmetry_multiplicity
 _atom_site_fract_x
 _atom_site_fract_y
 _atom_site_fract_z
 _atom_site_occupancy
  Na  Na0  1  1.00000003  0.50000002  0.99999995  1
  Na  Na1  1  0.50000002  0.00000000  -0.00000002  1
  Na  Na2  1  0.21076901  0.21076901  0.68265699  1
  Na  Na3  1  0.78923102  0.78923103  0.31734294  1
  Na  Na4  1  0.33697501  0.66302502  0.49999997  1
  Na  Na5  1  0.66302502  0.33697501  0.49999997  1
  Li  Li6  1  0.11642100  0.11642100  0.15170499  1
  Na  Na7  1  0.88357903  0.88357903  0.84829494  1
  In  In8  1  0.36953801  0.36953801  0.13318397  1
  Te  Te9  1  0.63046202  0.63046202  0.86681596  1
  Te  Te10  1  0.24858000  0.94964403  0.30240496  1
  Te  Te11  1  0.05035599  0.75142003  0.69759498  1
  As  As12  1  0.75142003  0.05035600  0.69759498  1
  Te  Te13  1  0.94964404  0.24858001  0.30240496  1
