# generated using pymatgen
data_Ho2Al2InSi7
_symmetry_space_group_name_H-M   'P 1'
_cell_length_a   3.94870090
_cell_length_b   6.83754730
_cell_length_c   6.83754730
_cell_angle_alpha   109.47496796
_cell_angle_beta   90.00000000
_cell_angle_gamma   90.00000000
_symmetry_Int_Tables_number   1
_chemical_formula_structural   Ho2Al2InSi7
_chemical_formula_sum   'Ho2 Al2 In1 Si7'
_cell_volume   174.04783371
_cell_formula_units_Z   1
loop_
 _symmetry_equiv_pos_site_id
 _symmetry_equiv_pos_as_xyz
  1  'x, y, z'
loop_
 _atom_site_type_symbol
 _atom_site_label
 _atom_site_symmetry_multiplicity
 _atom_site_fract_x
 _atom_site_fract_y
 _atom_site_fract_z
 _atom_site_occupancy
  Al  Al0  1  1.00000002  0.49999998  0.49999997  1
  Ho  Ho1  1  0.50000001  0.00000000  0.49999999  1
  Ho  Ho2  1  0.50000001  0.49999998  -0.00000002  1
  In  In3  1  0.00000000  0.00000000  0.00000000  1
  Al  Al4  1  0.50000001  0.87474396  0.12525596  1
  Si  Si5  1  1.00000002  0.87156596  0.62344295  1
  Si  Si6  1  0.50000001  0.62276297  0.37723697  1
  Si  Si7  1  -0.00000000  0.37655698  0.12843398  1
  Si  Si8  1  1.00000002  0.62344297  0.87156595  1
  Si  Si9  1  0.50000001  0.37723698  0.62276297  1
  Si  Si10  1  1.00000002  0.12843399  0.37655698  1
  Si  Si11  1  0.50000001  0.12525599  0.87474397  1
