# generated using pymatgen
data_YbPmGdErScSiNiSbPPdCF
_symmetry_space_group_name_H-M   'P 1'
_cell_length_a   3.43671107
_cell_length_b   5.84318304
_cell_length_c   6.75156879
_cell_angle_alpha   90.00000000
_cell_angle_beta   90.00000000
_cell_angle_gamma   90.00000000
_symmetry_Int_Tables_number   1
_chemical_formula_structural   YbPmGdErScSiNiSbPPdCF
_chemical_formula_sum
'Yb1 Pm1 Gd1 Er1 Sc1 Si1 Ni1 Sb1 P1 Pd1 C1 F1'
_cell_volume   135.58049351
_cell_formula_units_Z   1
loop_
 _symmetry_equiv_pos_site_id
 _symmetry_equiv_pos_as_xyz
  1  'x, y, z'
loop_
 _atom_site_type_symbol
 _atom_site_label
 _atom_site_symmetry_multiplicity
 _atom_site_fract_x
 _atom_site_fract_y
 _atom_site_fract_z
 _atom_site_occupancy
  F  F0  1  0.74999998  0.96862899  0.84123603  1
  Pm  Pm1  1  0.74999998  0.46862900  0.65876402  1
  Si  Si2  1  0.24999999  0.03137100  0.15876400  1
  P  P3  1  0.24999999  0.53137100  0.34123601  1
  Er  Er4  1  0.74999998  0.86071499  0.43547501  1
  Yb  Yb5  1  0.74999998  0.36071500  0.06452500  1
  Sb  Sb6  1  0.24999999  0.13928500  0.56452502  1
  C  C7  1  0.24999999  0.63928500  0.93547503  1
  Gd  Gd8  1  0.74999998  0.24099500  0.37046801  1
  Pd  Pd9  1  0.74999998  0.74099499  0.12953200  1
  Sc  Sc10  1  0.24999999  0.75900499  0.62953202  1
  Ni  Ni11  1  0.24999999  0.25900500  0.87046803  1
