# generated using pymatgen
data_CaSmHoBeNbCoIrRuSXe
_symmetry_space_group_name_H-M   'P 1'
_cell_length_a   5.80917215
_cell_length_b   5.80917215
_cell_length_c   5.80917215
_cell_angle_alpha   60.00000000
_cell_angle_beta   60.00000000
_cell_angle_gamma   60.00000000
_symmetry_Int_Tables_number   1
_chemical_formula_structural   CaSmHoBeNbCoIrRuSXe
_chemical_formula_sum   'Ca1 Sm1 Ho1 Be1 Nb1 Co1 Ru1 Ir1 S1 Xe1'
_cell_volume   138.62058995
_cell_formula_units_Z   1
loop_
 _symmetry_equiv_pos_site_id
 _symmetry_equiv_pos_as_xyz
  1  'x, y, z'
loop_
 _atom_site_type_symbol
 _atom_site_label
 _atom_site_symmetry_multiplicity
 _atom_site_fract_x
 _atom_site_fract_y
 _atom_site_fract_z
 _atom_site_occupancy
  Be  Be0  1  0.50000000  0.50000000  0.50000000  1
  Ho  Ho1  1  0.75000000  0.75000000  0.75000000  1
  Nb  Nb2  1  0.25000000  0.25000000  0.25000000  1
  Xe  Xe3  1  0.00000000  0.00000000  0.00000000  1
  Ru  Ru4  1  0.23062600  0.76937400  0.23062600  1
  Ca  Ca5  1  0.76937400  0.23062600  0.76937400  1
  S  S6  1  0.23062600  0.76937400  0.76937400  1
  Co  Co7  1  0.76937400  0.23062600  0.23062600  1
  Sm  Sm8  1  0.23062600  0.23062600  0.76937400  1
  Ir  Ir9  1  0.76937400  0.76937400  0.23062600  1
