# generated using pymatgen
data_RbCaTbUPaNbTlVRhI
_symmetry_space_group_name_H-M   'P 1'
_cell_length_a   4.02695322
_cell_length_b   4.02695322
_cell_length_c   9.82492733
_cell_angle_alpha   90.00000000
_cell_angle_beta   90.00000000
_cell_angle_gamma   90.00000000
_symmetry_Int_Tables_number   1
_chemical_formula_structural   RbCaTbUPaNbTlVRhI
_chemical_formula_sum   'Rb1 Ca1 Tb1 U1 Pa1 Nb1 Tl1 V1 Rh1 I1'
_cell_volume   159.32448231
_cell_formula_units_Z   1
loop_
 _symmetry_equiv_pos_site_id
 _symmetry_equiv_pos_as_xyz
  1  'x, y, z'
loop_
 _atom_site_type_symbol
 _atom_site_label
 _atom_site_symmetry_multiplicity
 _atom_site_fract_x
 _atom_site_fract_y
 _atom_site_fract_z
 _atom_site_occupancy
  I  I0  1  0.00000000  0.00000000  0.99145497  1
  Tb  Tb1  1  0.49999997  0.49999997  0.50345498  1
  Ca  Ca2  1  0.00000000  0.49999997  0.25974899  1
  Pa  Pa3  1  0.49999997  0.00000000  0.74597097  1
  V  V4  1  0.49999997  0.00000000  0.25974899  1
  Rh  Rh5  1  0.00000000  0.49999997  0.74597097  1
  Rb  Rb6  1  0.49999997  0.49999997  0.12798700  1
  U  U7  1  0.00000000  0.00000000  0.63137598  1
  Nb  Nb8  1  0.00000000  0.00000000  0.36897199  1
  Tl  Tl9  1  0.49999997  0.49999997  0.86531597  1
