# generated using pymatgen
data_Nb2VZnTcPb
_symmetry_space_group_name_H-M   'P 1'
_cell_length_a   5.13484287
_cell_length_b   5.34742212
_cell_length_c   5.34742165
_cell_angle_alpha   120.00000000
_cell_angle_beta   90.00000000
_cell_angle_gamma   90.00000000
_symmetry_Int_Tables_number   1
_chemical_formula_structural   Nb2VZnTcPb
_chemical_formula_sum   'Nb2 V1 Zn1 Tc1 Pb1'
_cell_volume   127.15887838
_cell_formula_units_Z   1
loop_
 _symmetry_equiv_pos_site_id
 _symmetry_equiv_pos_as_xyz
  1  'x, y, z'
loop_
 _atom_site_type_symbol
 _atom_site_label
 _atom_site_symmetry_multiplicity
 _atom_site_fract_x
 _atom_site_fract_y
 _atom_site_fract_z
 _atom_site_occupancy
  Pb  Pb0  1  0.50000001  0.00000000  0.67201801  1
  Zn  Zn1  1  0.50000001  0.32798199  0.32798200  1
  Nb  Nb2  1  0.50000001  0.67201797  -0.00000002  1
  Nb  Nb3  1  -0.00000000  0.33333332  0.66666667  1
  V  V4  1  -0.00000000  0.66666664  0.33333332  1
  Tc  Tc5  1  0.00000000  0.00000000  0.00000000  1
