# generated using pymatgen
data_CaCePrPaTcSnGeIrPbBr
_symmetry_space_group_name_H-M   'P 1'
_cell_length_a   6.65130234
_cell_length_b   6.65130234
_cell_length_c   6.65130234
_cell_angle_alpha   60.00000000
_cell_angle_beta   60.00000000
_cell_angle_gamma   60.00000000
_symmetry_Int_Tables_number   1
_chemical_formula_structural   CaCePrPaTcSnGeIrPbBr
_chemical_formula_sum   'Ca1 Ce1 Pr1 Pa1 Tc1 Sn1 Ge1 Ir1 Pb1 Br1'
_cell_volume   208.06789338
_cell_formula_units_Z   1
loop_
 _symmetry_equiv_pos_site_id
 _symmetry_equiv_pos_as_xyz
  1  'x, y, z'
loop_
 _atom_site_type_symbol
 _atom_site_label
 _atom_site_symmetry_multiplicity
 _atom_site_fract_x
 _atom_site_fract_y
 _atom_site_fract_z
 _atom_site_occupancy
  Sn  Sn0  1  0.25000000  0.25000000  0.25000000  1
  Ge  Ge1  1  0.75000000  0.75000000  0.75000000  1
  Pa  Pa2  1  0.50000000  0.50000000  0.50000000  1
  Ir  Ir3  1  0.00000000  0.00000000  0.00000000  1
  Ce  Ce4  1  0.21646300  0.78353700  0.21646300  1
  Pr  Pr5  1  0.21646300  0.21646300  0.78353700  1
  Pb  Pb6  1  0.78353700  0.21646300  0.78353700  1
  Ca  Ca7  1  0.21646300  0.78353700  0.78353700  1
  Tc  Tc8  1  0.78353700  0.21646300  0.21646300  1
  Br  Br9  1  0.78353700  0.78353700  0.21646300  1
