# generated using pymatgen
data_CsBaYbPrSmDy2ThMgCdCoNiBiBSbMoIr2RuN
_symmetry_space_group_name_H-M   'P 1'
_cell_length_a   5.36185694
_cell_length_b   5.46731806
_cell_length_c   7.66461182
_cell_angle_alpha   90.00000000
_cell_angle_beta   90.00000000
_cell_angle_gamma   90.00000000
_symmetry_Int_Tables_number   1
_chemical_formula_structural   CsBaYbPrSmDy2ThMgCdCoNiBiBSbMoIr2RuN
_chemical_formula_sum
'Cs1 Ba1 Yb1 Pr1 Sm1 Dy2 Th1 Mg1 Cd1 Co1 Ni1 Bi1 B1 Sb1 Mo1 Ru1 Ir2 N1'
_cell_volume   224.68792109
_cell_formula_units_Z   1
loop_
 _symmetry_equiv_pos_site_id
 _symmetry_equiv_pos_as_xyz
  1  'x, y, z'
loop_
 _atom_site_type_symbol
 _atom_site_label
 _atom_site_symmetry_multiplicity
 _atom_site_fract_x
 _atom_site_fract_y
 _atom_site_fract_z
 _atom_site_occupancy
  Mo  Mo0  1  0.00997200  0.45156800  0.25000001  1
  Ni  Ni1  1  0.99002801  0.54843199  0.75000002  1
  Bi  Bi2  1  0.50997201  0.04843200  0.75000002  1
  Sb  Sb3  1  0.49002801  0.95156799  0.25000001  1
  Cs  Cs4  1  0.00000000  0.00000000  0.00000000  1
  Ba  Ba5  1  0.50000001  0.49999999  0.00000000  1
  Th  Th6  1  0.00000000  0.00000000  0.50000001  1
  Dy  Dy7  1  0.50000001  0.49999999  0.50000001  1
  Dy  Dy8  1  0.29336100  0.20402800  0.03870400  1
  Yb  Yb9  1  0.70663901  0.79597199  0.96129602  1
  Mg  Mg10  1  0.79336101  0.29597200  0.96129602  1
  Ru  Ru11  1  0.70663901  0.79597199  0.53870401  1
  B  B12  1  0.20663900  0.70402799  0.03870400  1
  Ir  Ir13  1  0.29336100  0.20402800  0.46129601  1
  Pr  Pr14  1  0.20663900  0.70402799  0.46129601  1
  Ir  Ir15  1  0.79336101  0.29597200  0.53870401  1
  Co  Co16  1  0.57324301  0.51462899  0.25000001  1
  N  N17  1  0.42675700  0.48537099  0.75000002  1
  Sm  Sm18  1  0.07324300  0.98537099  0.75000002  1
  Cd  Cd19  1  0.92675701  0.01462900  0.25000001  1
