# generated using pymatgen
data_BaSrCaAc2LaY2ErCrCo2Tc2AgOs2RhWF
_symmetry_space_group_name_H-M   'P 1'
_cell_length_a   5.34677887
_cell_length_b   5.54270315
_cell_length_c   7.64938879
_cell_angle_alpha   90.00000000
_cell_angle_beta   90.00000000
_cell_angle_gamma   90.00000000
_symmetry_Int_Tables_number   1
_chemical_formula_structural   BaSrCaAc2LaY2ErCrCo2Tc2AgOs2RhWF
_chemical_formula_sum
'Ba1 Sr1 Ca1 Ac2 La1 Y2 Er1 Cr1 Co2 Tc2 Ag1 Os2 Rh1 W1 F1'
_cell_volume   226.69428833
_cell_formula_units_Z   1
loop_
 _symmetry_equiv_pos_site_id
 _symmetry_equiv_pos_as_xyz
  1  'x, y, z'
loop_
 _atom_site_type_symbol
 _atom_site_label
 _atom_site_symmetry_multiplicity
 _atom_site_fract_x
 _atom_site_fract_y
 _atom_site_fract_z
 _atom_site_occupancy
  Y  Y0  1  0.49521501  0.78206098  0.50000001  1
  Sr  Sr1  1  0.99521502  0.21793899  0.00000000  1
  Ag  Ag2  1  0.01634800  0.31898299  0.50000001  1
  Os  Os3  1  0.51634801  0.68101698  0.00000000  1
  Ac  Ac4  1  0.51186101  0.23597399  0.75254402  1
  Er  Er5  1  0.01186100  0.76402598  0.25254401  1
  Tc  Tc6  1  0.51186101  0.23597399  0.24745601  1
  Y  Y7  1  0.01186100  0.76402598  0.74745602  1
  F  F8  1  0.59737301  0.22572699  0.50000001  1
  Cr  Cr9  1  0.92475002  0.72794398  0.50000001  1
  W  W10  1  0.42475001  0.27205599  0.00000000  1
  Os  Os11  1  0.09737300  0.77427298  0.00000000  1
  Ca  Ca12  1  0.27857301  0.53629299  0.71076302  1
  Co  Co13  1  0.19272300  0.05356000  0.30068901  1
  Rh  Rh14  1  0.69272302  0.94643997  0.19931101  1
  La  La15  1  0.77857302  0.46370699  0.78923702  1
  Ac  Ac16  1  0.69272302  0.94643997  0.80068902  1
  Tc  Tc17  1  0.77857302  0.46370699  0.21076301  1
  Ba  Ba18  1  0.27857301  0.53629299  0.28923701  1
  Co  Co19  1  0.19272300  0.05356000  0.69931102  1
