# generated using pymatgen
data_LiAcPmGdPuUTaNbRuF
_symmetry_space_group_name_H-M   'P 1'
_cell_length_a   6.53426790
_cell_length_b   6.53426790
_cell_length_c   6.53426790
_cell_angle_alpha   60.00000000
_cell_angle_beta   60.00000000
_cell_angle_gamma   60.00000000
_symmetry_Int_Tables_number   1
_chemical_formula_structural   LiAcPmGdPuUTaNbRuF
_chemical_formula_sum   'Li1 Ac1 Pm1 Gd1 Pu1 U1 Ta1 Nb1 Ru1 F1'
_cell_volume   197.27670765
_cell_formula_units_Z   1
loop_
 _symmetry_equiv_pos_site_id
 _symmetry_equiv_pos_as_xyz
  1  'x, y, z'
loop_
 _atom_site_type_symbol
 _atom_site_label
 _atom_site_symmetry_multiplicity
 _atom_site_fract_x
 _atom_site_fract_y
 _atom_site_fract_z
 _atom_site_occupancy
  U  U0  1  0.24999999  0.24999999  0.24999999  1
  Ac  Ac1  1  0.74999998  0.74999998  0.74999998  1
  Li  Li2  1  0.49999998  0.49999998  0.49999998  1
  Pu  Pu3  1  0.00000000  0.00000000  0.00000000  1
  Nb  Nb4  1  0.21756399  0.78243598  0.21756399  1
  F  F5  1  0.21756399  0.21756399  0.78243598  1
  Ru  Ru6  1  0.78243598  0.21756399  0.78243598  1
  Ta  Ta7  1  0.21756399  0.78243598  0.78243598  1
  Gd  Gd8  1  0.78243598  0.21756399  0.21756399  1
  Pm  Pm9  1  0.78243598  0.78243598  0.21756399  1
