# generated using pymatgen
data_BaCaPrSmEuGdMgCuRe2SiB2As
_symmetry_space_group_name_H-M   'P 1'
_cell_length_a   5.67931223
_cell_length_b   5.72528744
_cell_length_c   5.72528744
_cell_angle_alpha   60.87747955
_cell_angle_beta   60.26528549
_cell_angle_gamma   60.26528549
_symmetry_Int_Tables_number   1
_chemical_formula_structural   BaCaPrSmEuGdMgCuRe2SiB2As
_chemical_formula_sum
'Ba1 Ca1 Pr1 Sm1 Gd1 Eu1 Mg1 Si1 Cu1 Re2 B2 As1'
_cell_volume   133.02275536
_cell_formula_units_Z   1
loop_
 _symmetry_equiv_pos_site_id
 _symmetry_equiv_pos_as_xyz
  1  'x, y, z'
loop_
 _atom_site_type_symbol
 _atom_site_label
 _atom_site_symmetry_multiplicity
 _atom_site_fract_x
 _atom_site_fract_y
 _atom_site_fract_z
 _atom_site_occupancy
  B  B0  1  0.49999998  0.50000001  0.50000000  1
  As  As1  1  0.49999998  0.00000000  0.00000001  1
  Mg  Mg2  1  0.99999996  0.50000001  0.00000000  1
  Sm  Sm3  1  0.49999998  0.50000001  -0.00000000  1
  Ba  Ba4  1  0.88381497  0.86618501  0.36618500  1
  Ca  Ca5  1  0.11618500  0.13381500  0.63381500  1
  Si  Si6  1  0.75992197  0.25344400  0.75344301  1
  Gd  Gd7  1  0.23319199  0.25344300  0.75344301  1
  B  B8  1  0.23766099  0.24666200  0.27801600  1
  Cu  Cu9  1  0.23766200  0.77801601  0.74666100  1
  Eu  Eu10  1  0.76233898  0.75333801  0.72198400  1
  Re  Re11  1  0.76233797  0.22198400  0.25333901  1
  Pr  Pr12  1  0.76680798  0.74655701  0.24655700  1
  Re  Re13  1  0.24007800  0.74655601  0.24655699  1
