# generated using pymatgen
data_RbBaPrErMnHe
_symmetry_space_group_name_H-M   'P 1'
_cell_length_a   4.02118587
_cell_length_b   4.92005491
_cell_length_c   4.92005491
_cell_angle_alpha   118.27221680
_cell_angle_beta   90.00000000
_cell_angle_gamma   90.00000000
_symmetry_Int_Tables_number   1
_chemical_formula_structural   RbBaPrErMnHe
_chemical_formula_sum   'Rb1 Ba1 Pr1 Er1 Mn1 He1'
_cell_volume   85.72856716
_cell_formula_units_Z   1
loop_
 _symmetry_equiv_pos_site_id
 _symmetry_equiv_pos_as_xyz
  1  'x, y, z'
loop_
 _atom_site_type_symbol
 _atom_site_label
 _atom_site_symmetry_multiplicity
 _atom_site_fract_x
 _atom_site_fract_y
 _atom_site_fract_z
 _atom_site_occupancy
  Mn  Mn0  1  -0.00000000  0.49999999  0.49999998  1
  Pr  Pr1  1  0.50000002  0.00000000  -0.00000000  1
  Rb  Rb2  1  -0.00000000  0.83318198  0.16681796  1
  He  He3  1  -0.00000000  0.16681800  0.83318199  1
  Er  Er4  1  0.50000002  0.49999999  -0.00000002  1
  Ba  Ba5  1  0.50000002  0.00000000  0.50000000  1
