# generated using pymatgen
data_LiCaMgZrUTlAgAsOsAu
_symmetry_space_group_name_H-M   'P 1'
_cell_length_a   5.98338509
_cell_length_b   5.98338509
_cell_length_c   5.98338509
_cell_angle_alpha   60.00000000
_cell_angle_beta   60.00000000
_cell_angle_gamma   60.00000000
_symmetry_Int_Tables_number   1
_chemical_formula_structural   LiCaMgZrUTlAgAsOsAu
_chemical_formula_sum   'Li1 Ca1 Mg1 Zr1 U1 Tl1 Ag1 As1 Os1 Au1'
_cell_volume   151.46973513
_cell_formula_units_Z   1
loop_
 _symmetry_equiv_pos_site_id
 _symmetry_equiv_pos_as_xyz
  1  'x, y, z'
loop_
 _atom_site_type_symbol
 _atom_site_label
 _atom_site_symmetry_multiplicity
 _atom_site_fract_x
 _atom_site_fract_y
 _atom_site_fract_z
 _atom_site_occupancy
  Os  Os0  1  0.74999997  0.74999997  0.74999997  1
  Mg  Mg1  1  0.24999999  0.24999999  0.24999999  1
  As  As2  1  0.49999998  0.49999998  0.49999998  1
  U  U3  1  0.00000000  0.00000000  0.00000000  1
  Ca  Ca4  1  0.23688399  0.76311597  0.23688399  1
  Tl  Tl5  1  0.76311597  0.23688399  0.76311597  1
  Ag  Ag6  1  0.23688399  0.76311597  0.76311597  1
  Au  Au7  1  0.76311597  0.23688399  0.23688399  1
  Li  Li8  1  0.23688399  0.23688399  0.76311597  1
  Zr  Zr9  1  0.76311597  0.76311597  0.23688399  1
