# generated using pymatgen
data_CsRbLiEu2GdDyHfCdNi
_symmetry_space_group_name_H-M   'P 1'
_cell_length_a   4.46316814
_cell_length_b   4.46316814
_cell_length_c   10.38165760
_cell_angle_alpha   90.00000000
_cell_angle_beta   90.00000000
_cell_angle_gamma   90.00000000
_symmetry_Int_Tables_number   1
_chemical_formula_structural   CsRbLiEu2GdDyHfCdNi
_chemical_formula_sum   'Cs1 Rb1 Li1 Eu2 Gd1 Dy1 Hf1 Cd1 Ni1'
_cell_volume   206.80126858
_cell_formula_units_Z   1
loop_
 _symmetry_equiv_pos_site_id
 _symmetry_equiv_pos_as_xyz
  1  'x, y, z'
loop_
 _atom_site_type_symbol
 _atom_site_label
 _atom_site_symmetry_multiplicity
 _atom_site_fract_x
 _atom_site_fract_y
 _atom_site_fract_z
 _atom_site_occupancy
  Ni  Ni0  1  -0.00000000  0.49999998  0.24860701  1
  Cs  Cs1  1  0.49999998  0.00000000  0.75139303  1
  Hf  Hf2  1  0.00000000  0.00000000  0.50000002  1
  Dy  Dy3  1  0.49999998  0.49999998  0.50000002  1
  Cd  Cd4  1  -0.00000000  0.49999998  0.87131803  1
  Li  Li5  1  0.49999998  0.00000000  0.12868200  1
  Eu  Eu6  1  0.00000000  0.00000000  0.00000000  1
  Eu  Eu7  1  0.49999998  0.49999998  -0.00000000  1
  Rb  Rb8  1  -0.00000000  0.49999998  0.62987602  1
  Gd  Gd9  1  0.49999998  0.00000000  0.37012401  1
