# generated using pymatgen
data_KNaCePuZrNpTlReTcSnPtXeOF
_symmetry_space_group_name_H-M   'P 1'
_cell_length_a   5.75783634
_cell_length_b   5.75783634
_cell_length_c   5.75783634
_cell_angle_alpha   60.00000000
_cell_angle_beta   60.00000000
_cell_angle_gamma   60.00000000
_symmetry_Int_Tables_number   1
_chemical_formula_structural   KNaCePuZrNpTlReTcSnPtXeOF
_chemical_formula_sum
'K1 Na1 Ce1 Pu1 Zr1 Np1 Tl1 Tc1 Re1 Sn1 Pt1 Xe1 O1 F1'
_cell_volume   134.97798848
_cell_formula_units_Z   1
loop_
 _symmetry_equiv_pos_site_id
 _symmetry_equiv_pos_as_xyz
  1  'x, y, z'
loop_
 _atom_site_type_symbol
 _atom_site_label
 _atom_site_symmetry_multiplicity
 _atom_site_fract_x
 _atom_site_fract_y
 _atom_site_fract_z
 _atom_site_occupancy
  Xe  Xe0  1  0.24999999  0.24999999  0.24999999  1
  F  F1  1  0.49999999  0.49999999  0.49999999  1
  Ce  Ce2  1  0.37499999  0.87499997  0.87499997  1
  Pt  Pt3  1  0.87499997  0.37499999  0.87499997  1
  Np  Np4  1  0.87499997  0.87499997  0.87499997  1
  Tc  Tc5  1  0.87499997  0.87499997  0.37499999  1
  Na  Na6  1  0.63828798  0.63828898  0.08513400  1
  Tl  Tl7  1  0.08513300  0.63828898  0.63828898  1
  O  O8  1  0.11171200  0.11171100  0.66486598  1
  Zr  Zr9  1  0.11171200  0.66486598  0.11171100  1
  Sn  Sn10  1  0.66486698  0.11171100  0.11171100  1
  Pu  Pu11  1  0.11171200  0.11171100  0.11171100  1
  Re  Re12  1  0.63828798  0.08513400  0.63828898  1
  K  K13  1  0.63828798  0.63828898  0.63828898  1
