# generated using pymatgen
data_GdErZrNpMnBeAlCrCdGaSiHPbWSBr2KrCl
_symmetry_space_group_name_H-M   'P 1'
_cell_length_a   5.81169319
_cell_length_b   5.81169319
_cell_length_c   9.89948463
_cell_angle_alpha   72.93028259
_cell_angle_beta   72.93028259
_cell_angle_gamma   60.00001144
_symmetry_Int_Tables_number   1
_chemical_formula_structural   GdErZrNpMnBeAlCrCdGaSiHPbWSBr2KrCl
_chemical_formula_sum
'Gd1 Er1 Zr1 Np1 Mn1 Be1 Al1 Cr1 Cd1 Ga1 Si1 H1 Pb1 W1 S1 Br2 Kr1 Cl1'
_cell_volume   272.42613089
_cell_formula_units_Z   1
loop_
 _symmetry_equiv_pos_site_id
 _symmetry_equiv_pos_as_xyz
  1  'x, y, z'
loop_
 _atom_site_type_symbol
 _atom_site_label
 _atom_site_symmetry_multiplicity
 _atom_site_fract_x
 _atom_site_fract_y
 _atom_site_fract_z
 _atom_site_occupancy
  Kr  Kr0  1  0.71036298  0.71036298  0.86891099  1
  Cd  Cd1  1  0.28801999  0.28801999  0.13594000  1
  Zr  Zr2  1  0.13314000  0.13314000  0.60057999  1
  Gd  Gd3  1  0.85393797  0.85393797  0.43818601  1
  Cl  Cl4  1  0.57636198  0.57636198  0.27091401  1
  W  W5  1  0.42338499  0.42338499  0.72984499  1
  S  S6  1  0.99931497  0.99931497  0.00205502  1
  Np  Np7  1  0.71123098  0.20833099  0.87210699  1
  Mn  Mn8  1  0.20833099  0.20833099  0.87210698  1
  Si  Si9  1  0.20833099  0.71123098  0.87210699  1
  H  H10  1  0.28844599  0.79583097  0.11989201  1
  Be  Be11  1  0.79583098  0.79583097  0.11989201  1
  Pb  Pb12  1  0.79583097  0.28844599  0.11989201  1
  Cr  Cr13  1  0.87463897  0.37954899  0.36626300  1
  Al  Al14  1  0.37954899  0.37954899  0.36626300  1
  Br  Br15  1  0.37954899  0.87463897  0.36626300  1
  Br  Br16  1  0.12621000  0.62376498  0.62625999  1
  Ga  Ga17  1  0.62376498  0.62376498  0.62626000  1
  Er  Er18  1  0.62376498  0.12621000  0.62625999  1
