# generated using pymatgen
data_Ru2NeCeThBeZnHeFeAsHAuSeF
_symmetry_space_group_name_H-M   'P 1'
_cell_length_a   3.59421611
_cell_length_b   7.04369879
_cell_length_c   7.04369879
_cell_angle_alpha   90.00000000
_cell_angle_beta   90.00000000
_cell_angle_gamma   90.00000000
_symmetry_Int_Tables_number   1
_chemical_formula_structural   Ru2NeCeThBeZnHeFeAsHAuSeF
_chemical_formula_sum
'Ru2 Ne1 Ce1 Th1 Be1 Zn1 He1 Fe1 As1 H1 Au1 Se1 F1'
_cell_volume   178.32233318
_cell_formula_units_Z   1
loop_
 _symmetry_equiv_pos_site_id
 _symmetry_equiv_pos_as_xyz
  1  'x, y, z'
loop_
 _atom_site_type_symbol
 _atom_site_label
 _atom_site_symmetry_multiplicity
 _atom_site_fract_x
 _atom_site_fract_y
 _atom_site_fract_z
 _atom_site_occupancy
  Ru  Ru0  1  0.99999997  0.50000002  0.50000002  1
  Ne  Ne1  1  0.49999998  0.00000000  -0.00000000  1
  Ru  Ru2  1  0.49999998  0.58589802  0.16251900  1
  Zn  Zn3  1  0.49999998  0.41410201  0.83748103  1
  He  He4  1  0.00000000  0.08589800  0.33748101  1
  Fe  Fe5  1  0.99999997  0.91410203  0.66251902  1
  Au  Au6  1  0.49999998  0.16251900  0.58589802  1
  F  F7  1  0.49999998  0.83748103  0.41410201  1
  Se  Se8  1  0.00000000  0.33748101  0.08589800  1
  Be  Be9  1  0.99999997  0.66251902  0.91410203  1
  H  H10  1  0.49999998  0.71952202  0.71952202  1
  Ce  Ce11  1  0.49999998  0.28047801  0.28047801  1
  As  As12  1  0.99999997  0.21952201  0.78047802  1
  Th  Th13  1  -0.00000000  0.78047802  0.21952201  1
