# generated using pymatgen
data_NaSrYbTmZnHgPbSe2Cl
_symmetry_space_group_name_H-M   'P 1'
_cell_length_a   6.00870085
_cell_length_b   6.00870085
_cell_length_c   6.00870085
_cell_angle_alpha   60.00000000
_cell_angle_beta   60.00000000
_cell_angle_gamma   60.00000000
_symmetry_Int_Tables_number   1
_chemical_formula_structural   NaSrYbTmZnHgPbSe2Cl
_chemical_formula_sum   'Na1 Sr1 Yb1 Tm1 Zn1 Hg1 Pb1 Se2 Cl1'
_cell_volume   153.40049103
_cell_formula_units_Z   1
loop_
 _symmetry_equiv_pos_site_id
 _symmetry_equiv_pos_as_xyz
  1  'x, y, z'
loop_
 _atom_site_type_symbol
 _atom_site_label
 _atom_site_symmetry_multiplicity
 _atom_site_fract_x
 _atom_site_fract_y
 _atom_site_fract_z
 _atom_site_occupancy
  Cl  Cl0  1  0.24999999  0.24999999  0.24999999  1
  Se  Se1  1  0.74999998  0.74999998  0.74999998  1
  Pb  Pb2  1  0.49999999  0.49999999  0.49999999  1
  Tm  Tm3  1  0.00000000  0.00000000  0.00000000  1
  Se  Se4  1  0.76126398  0.23873599  0.23873599  1
  Sr  Sr5  1  0.23873599  0.23873599  0.76126398  1
  Yb  Yb6  1  0.76126398  0.76126398  0.23873599  1
  Hg  Hg7  1  0.23873599  0.76126398  0.23873599  1
  Zn  Zn8  1  0.23873599  0.76126398  0.76126398  1
  Na  Na9  1  0.76126398  0.23873599  0.76126398  1
