# generated using pymatgen
data_LiAcCePmUReSi2P2OsCClF
_symmetry_space_group_name_H-M   'P 1'
_cell_length_a   6.24820900
_cell_length_b   6.24820900
_cell_length_c   6.24820900
_cell_angle_alpha   60.00000000
_cell_angle_beta   60.00000000
_cell_angle_gamma   60.00000000
_symmetry_Int_Tables_number   1
_chemical_formula_structural   LiAcCePmUReSi2P2OsCClF
_chemical_formula_sum   'Li1 Ac1 Ce1 Pm1 U1 Re1 Si2 P2 Os1 C1 Cl1 F1'
_cell_volume   172.48512443
_cell_formula_units_Z   1
loop_
 _symmetry_equiv_pos_site_id
 _symmetry_equiv_pos_as_xyz
  1  'x, y, z'
loop_
 _atom_site_type_symbol
 _atom_site_label
 _atom_site_symmetry_multiplicity
 _atom_site_fract_x
 _atom_site_fract_y
 _atom_site_fract_z
 _atom_site_occupancy
  Pm  Pm0  1  0.87500001  0.37500000  0.87500001  1
  P  P1  1  0.87500001  0.87500001  0.87500001  1
  Re  Re2  1  0.87500001  0.87500001  0.37500000  1
  Ac  Ac3  1  0.37500000  0.87500001  0.87500001  1
  Si  Si4  1  0.25000000  0.25000000  0.25000000  1
  P  P5  1  0.50000000  0.50000000  0.50000000  1
  Li  Li6  1  0.68554601  0.10481800  0.10481800  1
  F  F7  1  0.10481700  0.10481800  0.68554701  1
  Si  Si8  1  0.64518301  0.06445300  0.64518201  1
  Ce  Ce9  1  0.64518301  0.64518201  0.64518201  1
  Os  Os10  1  0.10481700  0.10481800  0.10481800  1
  U  U11  1  0.10481700  0.68554701  0.10481800  1
  Cl  Cl12  1  0.64518301  0.64518201  0.06445300  1
  C  C13  1  0.06445400  0.64518201  0.64518201  1
