# generated using pymatgen
data_TbDyYTmAlCrCuNiOsCSeBr2O
_symmetry_space_group_name_H-M   'P 1'
_cell_length_a   5.90976810
_cell_length_b   5.90976810
_cell_length_c   5.90976810
_cell_angle_alpha   85.90522766
_cell_angle_beta   62.33528137
_cell_angle_gamma   117.66471863
_symmetry_Int_Tables_number   1
_chemical_formula_structural   TbDyYTmAlCrCuNiOsCSeBr2O
_chemical_formula_sum
'Tb1 Dy1 Y1 Tm1 Al1 Cr1 Cu1 Ni1 Os1 Se1 C1 Br2 O1'
_cell_volume   150.68271262
_cell_formula_units_Z   1
loop_
 _symmetry_equiv_pos_site_id
 _symmetry_equiv_pos_as_xyz
  1  'x, y, z'
loop_
 _atom_site_type_symbol
 _atom_site_label
 _atom_site_symmetry_multiplicity
 _atom_site_fract_x
 _atom_site_fract_y
 _atom_site_fract_z
 _atom_site_occupancy
  Br  Br0  1  0.49999995  0.74999996  0.75000005  1
  Se  Se1  1  -0.00000003  0.49999998  0.50000003  1
  O  O2  1  0.24999999  0.12499999  0.12500001  1
  Ni  Ni3  1  0.74999995  0.62499997  0.12500005  1
  Br  Br4  1  0.74999998  0.12499999  0.12500001  1
  Dy  Dy5  1  0.24999999  0.12499999  0.62500000  1
  Tm  Tm6  1  0.31551995  0.90772296  0.30296607  1
  Os  Os7  1  0.21068998  0.30296599  0.38151302  1
  Y  Y8  1  0.78930996  0.40779598  0.90772402  1
  Tb  Tb9  1  0.81551994  0.86848596  0.84220406  1
  Cr  Cr10  1  0.71068994  0.84220396  0.34227606  1
  Cu  Cu11  1  0.28930994  0.94703395  0.86848706  1
  Al  Al12  1  0.68447997  0.38151398  0.40779602  1
  C  C13  1  0.18447998  0.34227698  0.94703401  1
