# generated using pymatgen
data_NaCeNdHoEr2VAgHgXe
_symmetry_space_group_name_H-M   'P 1'
_cell_length_a   3.61683297
_cell_length_b   7.56436110
_cell_length_c   7.56436110
_cell_angle_alpha   90.00000000
_cell_angle_beta   90.00000000
_cell_angle_gamma   90.00000000
_symmetry_Int_Tables_number   1
_chemical_formula_structural   NaCeNdHoEr2VAgHgXe
_chemical_formula_sum   'Na1 Ce1 Nd1 Ho1 Er2 V1 Ag1 Hg1 Xe1'
_cell_volume   206.95358682
_cell_formula_units_Z   1
loop_
 _symmetry_equiv_pos_site_id
 _symmetry_equiv_pos_as_xyz
  1  'x, y, z'
loop_
 _atom_site_type_symbol
 _atom_site_label
 _atom_site_symmetry_multiplicity
 _atom_site_fract_x
 _atom_site_fract_y
 _atom_site_fract_z
 _atom_site_occupancy
  Nd  Nd0  1  0.50000000  0.67744499  0.17744500  1
  Xe  Xe1  1  0.50000000  0.32255500  0.82255499  1
  Na  Na2  1  0.50000000  0.17744500  0.32255500  1
  Ag  Ag3  1  0.50000000  0.82255499  0.67744499  1
  Er  Er4  1  0.00000000  0.00000000  0.00000000  1
  Ho  Ho5  1  0.00000000  0.49999999  0.49999999  1
  Er  Er6  1  0.00000000  0.11696300  0.61696299  1
  V  V7  1  0.00000000  0.88303699  0.38303700  1
  Hg  Hg8  1  0.00000000  0.61696299  0.88303699  1
  Ce  Ce9  1  0.00000000  0.38303700  0.11696300  1
