# generated using pymatgen
data_CsLiPrYHfTiTl2CoSbCXe
_symmetry_space_group_name_H-M   'P 1'
_cell_length_a   3.52730989
_cell_length_b   3.91367698
_cell_length_c   13.46979618
_cell_angle_alpha   90.00000000
_cell_angle_beta   90.00000000
_cell_angle_gamma   90.00000000
_symmetry_Int_Tables_number   1
_chemical_formula_structural   CsLiPrYHfTiTl2CoSbCXe
_chemical_formula_sum   'Cs1 Li1 Pr1 Y1 Hf1 Ti1 Tl2 Co1 Sb1 C1 Xe1'
_cell_volume   185.94718938
_cell_formula_units_Z   1
loop_
 _symmetry_equiv_pos_site_id
 _symmetry_equiv_pos_as_xyz
  1  'x, y, z'
loop_
 _atom_site_type_symbol
 _atom_site_label
 _atom_site_symmetry_multiplicity
 _atom_site_fract_x
 _atom_site_fract_y
 _atom_site_fract_z
 _atom_site_occupancy
  Tl  Tl0  1  0.50000001  0.50000000  0.25000000  1
  Hf  Hf1  1  0.50000001  0.50000000  0.74999999  1
  Sb  Sb2  1  0.00000000  0.00000000  0.37352699  1
  Y  Y3  1  0.00000000  0.00000000  0.87352699  1
  C  C4  1  0.00000000  0.00000000  0.12647300  1
  Xe  Xe5  1  0.00000000  0.00000000  0.62647299  1
  Cs  Cs6  1  0.50000001  0.50000000  0.00000000  1
  Pr  Pr7  1  0.50000001  0.50000000  0.49999999  1
  Ti  Ti8  1  0.50000001  0.00000000  0.25000000  1
  Tl  Tl9  1  0.50000001  0.00000000  0.74999999  1
  Li  Li10  1  -0.00000000  0.50000000  0.00000000  1
  Co  Co11  1  -0.00000000  0.50000000  0.49999999  1
