# generated using pymatgen
data_SmGdLuThTaV2CrSiMoIrPdN
_symmetry_space_group_name_H-M   'P 1'
_cell_length_a   5.08773804
_cell_length_b   5.08776569
_cell_length_c   8.25124550
_cell_angle_alpha   72.04299927
_cell_angle_beta   90.00037384
_cell_angle_gamma   119.99994659
_symmetry_Int_Tables_number   1
_chemical_formula_structural   SmGdLuThTaV2CrSiMoIrPdN
_chemical_formula_sum
'Sm1 Gd1 Lu1 Th1 Ta1 V2 Cr1 Si1 Mo1 Pd1 Ir1 N1'
_cell_volume   172.85266632
_cell_formula_units_Z   1
loop_
 _symmetry_equiv_pos_site_id
 _symmetry_equiv_pos_as_xyz
  1  'x, y, z'
loop_
 _atom_site_type_symbol
 _atom_site_label
 _atom_site_symmetry_multiplicity
 _atom_site_fract_x
 _atom_site_fract_y
 _atom_site_fract_z
 _atom_site_occupancy
  Pd  Pd0  1  0.99999904  0.99999800  0.00000203  1
  V  V1  1  0.42582503  0.85164900  0.72252599  1
  N  N2  1  0.57418101  0.14835900  0.27747100  1
  Mo  Mo3  1  0.83057003  0.66114200  0.50827700  1
  Th  Th4  1  0.16943201  0.33886500  0.49171799  1
  Sm  Sm5  1  0.35245803  0.70491600  0.94261798  1
  Si  Si6  1  0.64753802  0.29507600  0.05738901  1
  Cr  Cr7  1  0.43669502  0.55884100  0.65543599  1
  Ir  Ir8  1  0.78572901  0.22242400  0.65543499  1
  Ta  Ta9  1  0.12214703  0.90786900  0.65543299  1
  Gd  Gd10  1  0.56330402  0.44114600  0.34456400  1
  V  V11  1  0.21428503  0.77758900  0.34456400  1
  Lu  Lu12  1  0.87783701  0.09212700  0.34456800  1
