# generated using pymatgen
data_NpBeZnAg
_symmetry_space_group_name_H-M   'P 1'
_cell_length_a   5.50925970
_cell_length_b   5.50925970
_cell_length_c   5.50925970
_cell_angle_alpha   60.00000000
_cell_angle_beta   60.00000000
_cell_angle_gamma   60.00000000
_symmetry_Int_Tables_number   1
_chemical_formula_structural   NpBeZnAg
_chemical_formula_sum   'Np1 Be1 Zn1 Ag1'
_cell_volume   118.24008610
_cell_formula_units_Z   1
loop_
 _symmetry_equiv_pos_site_id
 _symmetry_equiv_pos_as_xyz
  1  'x, y, z'
loop_
 _atom_site_type_symbol
 _atom_site_label
 _atom_site_symmetry_multiplicity
 _atom_site_fract_x
 _atom_site_fract_y
 _atom_site_fract_z
 _atom_site_occupancy
  Be  Be0  1  0.75000002  0.75000002  0.75000002  1
  Zn  Zn1  1  0.25000001  0.25000001  0.25000001  1
  Ag  Ag2  1  0.50000001  0.50000001  0.50000001  1
  Np  Np3  1  0.00000000  0.00000000  0.00000000  1
