# generated using pymatgen
data_LiLaPrNdSmLuThMgU2TiCrGeBRh2KrF
_symmetry_space_group_name_H-M   'P 1'
_cell_length_a   5.73761511
_cell_length_b   5.73761511
_cell_length_c   5.73761511
_cell_angle_alpha   94.81232452
_cell_angle_beta   94.81232452
_cell_angle_gamma   94.81233978
_symmetry_Int_Tables_number   1
_chemical_formula_structural   LiLaPrNdSmLuThMgU2TiCrGeBRh2KrF
_chemical_formula_sum
'Li1 La1 Pr1 Nd1 Sm1 Lu1 Th1 Mg1 U2 Ti1 Cr1 Ge1 B1 Rh2 Kr1 F1'
_cell_volume   186.76618258
_cell_formula_units_Z   1
loop_
 _symmetry_equiv_pos_site_id
 _symmetry_equiv_pos_as_xyz
  1  'x, y, z'
loop_
 _atom_site_type_symbol
 _atom_site_label
 _atom_site_symmetry_multiplicity
 _atom_site_fract_x
 _atom_site_fract_y
 _atom_site_fract_z
 _atom_site_occupancy
  Cr  Cr0  1  0.00000000  0.00000000  0.00000000  1
  Mg  Mg1  1  0.33031200  0.33031200  0.33031200  1
  Li  Li2  1  0.66968800  0.66968800  0.66968800  1
  Ti  Ti3  1  0.00000000  0.00000000  0.50000001  1
  Lu  Lu4  1  -0.00000000  0.50000000  -0.00000001  1
  Nd  Nd5  1  0.50000000  0.00000000  -0.00000001  1
  Rh  Rh6  1  0.80422800  0.30674000  0.30673999  1
  Rh  Rh7  1  0.30674000  0.30674000  0.80422801  1
  F  F8  1  0.30674000  0.80422801  0.30673999  1
  Kr  Kr9  1  0.19577200  0.69326001  0.69326001  1
  Th  Th10  1  0.69326000  0.69326001  0.19577199  1
  Pr  Pr11  1  0.69326000  0.19577200  0.69326001  1
  B  B12  1  0.62449400  0.37550600  -0.00000001  1
  La  La13  1  0.37550600  0.00000000  0.62449401  1
  U  U14  1  -0.00000000  0.62449400  0.37550600  1
  Ge  Ge15  1  0.62449400  0.00000000  0.37550600  1
  Sm  Sm16  1  -0.00000000  0.37550600  0.62449401  1
  U  U17  1  0.37550600  0.62449400  1.00000001  1
