# generated using pymatgen
data_BaSrTbNdZrNp2BeTlVCdBi2SbHeTcTeRh
_symmetry_space_group_name_H-M   'P 1'
_cell_length_a   7.17384386
_cell_length_b   7.39094257
_cell_length_c   7.39094257
_cell_angle_alpha   60.26233673
_cell_angle_beta   60.96700668
_cell_angle_gamma   60.96700668
_symmetry_Int_Tables_number   1
_chemical_formula_structural   BaSrTbNdZrNp2BeTlVCdBi2SbHeTcTeRh
_chemical_formula_sum
'Ba1 Sr1 Tb1 Nd1 Zr1 Np2 Be1 Tl1 V1 Cd1 Bi2 Sb1 He1 Tc1 Te1 Rh1'
_cell_volume   281.65020077
_cell_formula_units_Z   1
loop_
 _symmetry_equiv_pos_site_id
 _symmetry_equiv_pos_as_xyz
  1  'x, y, z'
loop_
 _atom_site_type_symbol
 _atom_site_label
 _atom_site_symmetry_multiplicity
 _atom_site_fract_x
 _atom_site_fract_y
 _atom_site_fract_z
 _atom_site_occupancy
  V  V0  1  0.61966601  0.13033400  0.63033402  1
  Nd  Nd1  1  0.38033400  0.86966602  0.36966603  1
  Np  Np2  1  0.00000000  0.00000000  0.00000000  1
  Sb  Sb3  1  1.00000002  0.50000001  0.50000003  1
  Cd  Cd4  1  0.50000001  0.50000001  1.00000004  1
  He  He5  1  -0.00000000  0.50000001  0.00000001  1
  Tl  Tl6  1  0.06232700  0.18767300  0.68767302  1
  Bi  Bi7  1  0.68121401  0.56878601  0.06878602  1
  Rh  Rh8  1  0.07405500  0.57729501  0.66600903  1
  Np  Np9  1  0.68264001  0.16601000  0.07729601  1
  Tc  Tc10  1  0.68264101  0.57729601  0.66600903  1
  Be  Be11  1  0.07405400  0.16600900  0.07729601  1
  Sr  Sr12  1  0.93767301  0.81232702  0.31232703  1
  Tb  Tb13  1  0.31878600  0.43121401  0.93121404  1
  Zr  Zr14  1  0.92594501  0.42270501  0.33399102  1
  Te  Te15  1  0.31736000  0.83399002  0.92270404  1
  Bi  Bi16  1  0.31735900  0.42270401  0.33399102  1
  Ba  Ba17  1  0.92594601  0.83399102  0.92270405  1
