# generated using pymatgen
data_NaCaLaPrNdDyLuTlTe2HeSnAsWClNe
_symmetry_space_group_name_H-M   'P 1'
_cell_length_a   4.93561792
_cell_length_b   7.28393126
_cell_length_c   7.28393126
_cell_angle_alpha   83.40867615
_cell_angle_beta   70.19610596
_cell_angle_gamma   70.19610596
_symmetry_Int_Tables_number   1
_chemical_formula_structural   NaCaLaPrNdDyLuTlTe2HeSnAsWClNe
_chemical_formula_sum
'Na1 Ca1 La1 Pr1 Nd1 Dy1 Lu1 Tl1 Te2 He1 Sn1 As1 W1 Cl1 Ne1'
_cell_volume   231.80411315
_cell_formula_units_Z   1
loop_
 _symmetry_equiv_pos_site_id
 _symmetry_equiv_pos_as_xyz
  1  'x, y, z'
loop_
 _atom_site_type_symbol
 _atom_site_label
 _atom_site_symmetry_multiplicity
 _atom_site_fract_x
 _atom_site_fract_y
 _atom_site_fract_z
 _atom_site_occupancy
  Tl  Tl0  1  0.83264097  0.83471800  0.49999991  1
  Pr  Pr1  1  0.66735899  0.50000000  0.16528194  1
  Ca  Ca2  1  0.33264097  0.50000000  0.83471794  1
  Lu  Lu3  1  0.16735899  0.16528200  0.49999997  1
  Dy  Dy4  1  0.75000003  0.00000000  -0.00000004  1
  Na  Na5  1  0.25000001  0.00000000  0.99999997  1
  Te  Te6  1  0.27606299  0.30048200  0.14739297  1
  He  He7  1  0.72393697  0.69951800  0.85260692  1
  La  La8  1  0.42345495  0.85260700  0.30048293  1
  As  As9  1  0.57654501  0.14739300  0.69951695  1
  Cl  Cl10  1  0.92345601  0.30048200  0.85260693  1
  Nd  Nd11  1  0.22393794  0.85260700  0.69951693  1
  W  W12  1  0.77606202  0.14739300  0.30048295  1
  Te  Te13  1  0.07654395  0.69951800  0.14739296  1
  Ne  Ne14  1  0.74999999  0.50000000  0.49999993  1
  Sn  Sn15  1  0.24999997  0.50000000  0.49999995  1
