# generated using pymatgen
data_CsLaHoErPa2TiNbTlVReSnHgH2RuAuBr
_symmetry_space_group_name_H-M   'P 1'
_cell_length_a   7.39904213
_cell_length_b   7.39904308
_cell_length_c   7.90031099
_cell_angle_alpha   117.92240143
_cell_angle_beta   117.92240906
_cell_angle_gamma   90.00000000
_symmetry_Int_Tables_number   1
_chemical_formula_structural   CsLaHoErPa2TiNbTlVReSnHgH2RuAuBr
_chemical_formula_sum
'Cs1 La1 Ho1 Er1 Pa2 Ti1 Nb1 Tl1 V1 Re1 Sn1 Hg1 H2 Ru1 Au1 Br1'
_cell_volume   324.07498464
_cell_formula_units_Z   1
loop_
 _symmetry_equiv_pos_site_id
 _symmetry_equiv_pos_as_xyz
  1  'x, y, z'
loop_
 _atom_site_type_symbol
 _atom_site_label
 _atom_site_symmetry_multiplicity
 _atom_site_fract_x
 _atom_site_fract_y
 _atom_site_fract_z
 _atom_site_occupancy
  Tl  Tl0  1  0.75000006  0.75000098  0.49999999  1
  Hg  Hg1  1  0.25000002  0.25000099  0.50000000  1
  Pa  Pa2  1  0.68079803  0.18079800  0.99999501  1
  Re  Re3  1  0.31919605  0.81919698  0.99999499  1
  H  H4  1  0.81920206  0.68080198  0.00000498  1
  V  V5  1  0.18080402  0.31920299  0.00000499  1
  Ru  Ru6  1  0.75000003  0.24999999  0.50000000  1
  Ho  Ho7  1  0.25000004  0.74999898  0.49999999  1
  Sn  Sn8  1  0.00000000  0.00000000  0.00000000  1
  Pa  Pa9  1  0.50000004  0.49999999  -0.00000002  1
  H  H10  1  0.79258802  0.02094500  0.31353400  1
  Cs  Cs11  1  0.47905805  0.70740598  0.68646399  1
  La  La12  1  0.20740705  0.97905797  0.68646398  1
  Ti  Ti13  1  0.70741203  0.20741099  0.68646501  1
  Er  Er14  1  0.97905405  0.47905399  0.68646600  1
  Nb  Nb15  1  0.29259505  0.79259398  0.31353698  1
  Au  Au16  1  0.02094303  0.52094199  0.31353699  1
  Br  Br17  1  0.52094603  0.29258799  0.31353400  1
