# generated using pymatgen
data_SrTbPrDyYErNiSb
_symmetry_space_group_name_H-M   'P 1'
_cell_length_a   3.46772218
_cell_length_b   5.45452023
_cell_length_c   5.90235567
_cell_angle_alpha   90.00025177
_cell_angle_beta   89.98013306
_cell_angle_gamma   89.99990082
_symmetry_Int_Tables_number   1
_chemical_formula_structural   SrTbPrDyYErNiSb
_chemical_formula_sum   'Sr1 Tb1 Pr1 Y1 Dy1 Er1 Ni1 Sb1'
_cell_volume   111.64163869
_cell_formula_units_Z   1
loop_
 _symmetry_equiv_pos_site_id
 _symmetry_equiv_pos_as_xyz
  1  'x, y, z'
loop_
 _atom_site_type_symbol
 _atom_site_label
 _atom_site_symmetry_multiplicity
 _atom_site_fract_x
 _atom_site_fract_y
 _atom_site_fract_z
 _atom_site_occupancy
  Y  Y0  1  0.49990401  0.49841698  0.17039997  1
  Sb  Sb1  1  0.50009501  0.99842996  0.82960497  1
  Dy  Dy2  1  0.99978201  0.49837098  0.67046897  1
  Er  Er3  1  0.00021901  0.99836296  0.32952096  1
  Sr  Sr4  1  0.00005400  0.11514800  0.66557402  1
  Tb  Tb5  1  0.50008600  0.11520000  0.16561099  1
  Pr  Pr6  1  0.49991501  0.61520297  0.83439199  1
  Ni  Ni7  1  0.99994701  0.61514697  0.33442696  1
