# generated using pymatgen
data_CsSrLaGdInSiTeOsPdCClO
_symmetry_space_group_name_H-M   'P 1'
_cell_length_a   4.27643394
_cell_length_b   6.79258585
_cell_length_c   7.34605885
_cell_angle_alpha   90.00000000
_cell_angle_beta   90.00000000
_cell_angle_gamma   90.00000000
_symmetry_Int_Tables_number   1
_chemical_formula_structural   CsSrLaGdInSiTeOsPdCClO
_chemical_formula_sum
'Cs1 Sr1 La1 Gd1 In1 Si1 Te1 Pd1 Os1 C1 Cl1 O1'
_cell_volume   213.38864572
_cell_formula_units_Z   1
loop_
 _symmetry_equiv_pos_site_id
 _symmetry_equiv_pos_as_xyz
  1  'x, y, z'
loop_
 _atom_site_type_symbol
 _atom_site_label
 _atom_site_symmetry_multiplicity
 _atom_site_fract_x
 _atom_site_fract_y
 _atom_site_fract_z
 _atom_site_occupancy
  Pd  Pd0  1  0.25000000  0.51929801  0.69421701  1
  Te  Te1  1  0.25000000  0.01929800  0.80578302  1
  O  O2  1  0.75000001  0.98070202  0.19421700  1
  C  C3  1  0.75000001  0.48070201  0.30578301  1
  Os  Os4  1  0.75000001  0.32698901  0.92411102  1
  Si  Si5  1  0.25000000  0.17301100  0.42411101  1
  La  La6  1  0.75000001  0.82698902  0.57588901  1
  Sr  Sr7  1  0.25000000  0.67301101  0.07588900  1
  In  In8  1  0.25000000  0.28577301  0.09786800  1
  Gd  Gd9  1  0.25000000  0.78577302  0.40213201  1
  Cl  Cl10  1  0.75000001  0.71422702  0.90213202  1
  Cs  Cs11  1  0.75000001  0.21422700  0.59786801  1
