# generated using pymatgen
data_BaYb2ZrMnNbAlCrSnGe2Ir2F
_symmetry_space_group_name_H-M   'P 1'
_cell_length_a   5.08910418
_cell_length_b   5.08910418
_cell_length_c   6.39651823
_cell_angle_alpha   90.00000000
_cell_angle_beta   90.00000000
_cell_angle_gamma   110.41617584
_symmetry_Int_Tables_number   1
_chemical_formula_structural   BaYb2ZrMnNbAlCrSnGe2Ir2F
_chemical_formula_sum   'Ba1 Yb2 Zr1 Mn1 Nb1 Al1 Cr1 Sn1 Ge2 Ir2 F1'
_cell_volume   155.25692410
_cell_formula_units_Z   1
loop_
 _symmetry_equiv_pos_site_id
 _symmetry_equiv_pos_as_xyz
  1  'x, y, z'
loop_
 _atom_site_type_symbol
 _atom_site_label
 _atom_site_symmetry_multiplicity
 _atom_site_fract_x
 _atom_site_fract_y
 _atom_site_fract_z
 _atom_site_occupancy
  Ge  Ge0  1  0.33085201  0.66914803  0.24999999  1
  Ba  Ba1  1  0.66914803  0.33085201  0.74999997  1
  Al  Al2  1  0.34832502  0.65167503  0.74999997  1
  Zr  Zr3  1  0.65167503  0.34832502  0.24999999  1
  Yb  Yb4  1  0.00000000  0.00000000  0.00000000  1
  Mn  Mn5  1  0.00000000  0.00000000  0.49999998  1
  Ge  Ge6  1  0.23063701  0.76936303  0.97371596  1
  Sn  Sn7  1  0.23063701  0.76936303  0.52628398  1
  Ir  Ir8  1  0.24212601  0.28162601  0.74999997  1
  F  F9  1  0.28162601  0.24212601  0.24999999  1
  Cr  Cr10  1  0.71837403  0.75787403  0.74999997  1
  Ir  Ir11  1  0.75787403  0.71837403  0.24999999  1
  Nb  Nb12  1  0.76936303  0.23063701  0.02628400  1
  Yb  Yb13  1  0.76936303  0.23063701  0.47371598  1
