# generated using pymatgen
data_HoGa2BiHPd
_symmetry_space_group_name_H-M   'P 1'
_cell_length_a   3.21726394
_cell_length_b   4.66837549
_cell_length_c   4.66837549
_cell_angle_alpha   90.97138977
_cell_angle_beta   90.00000000
_cell_angle_gamma   90.00000000
_symmetry_Int_Tables_number   1
_chemical_formula_structural   HoGa2BiHPd
_chemical_formula_sum   'Ho1 Ga2 Bi1 H1 Pd1'
_cell_volume   70.10610400
_cell_formula_units_Z   1
loop_
 _symmetry_equiv_pos_site_id
 _symmetry_equiv_pos_as_xyz
  1  'x, y, z'
loop_
 _atom_site_type_symbol
 _atom_site_label
 _atom_site_symmetry_multiplicity
 _atom_site_fract_x
 _atom_site_fract_y
 _atom_site_fract_z
 _atom_site_occupancy
  Ga  Ga0  1  0.00000000  0.00000000  0.00000000  1
  Ho  Ho1  1  0.50000001  0.50000002  0.50000002  1
  H  H2  1  1.00000002  0.30634201  0.30634201  1
  Pd  Pd3  1  0.50000001  0.80827503  0.19172501  1
  Bi  Bi4  1  0.50000001  0.19172501  0.80827503  1
  Ga  Ga5  1  -0.00000000  0.69365803  0.69365803  1
