# generated using pymatgen
data_CsPrEuSnAuI
_symmetry_space_group_name_H-M   'P 1'
_cell_length_a   4.68235016
_cell_length_b   4.68235064
_cell_length_c   7.40751505
_cell_angle_alpha   90.00000000
_cell_angle_beta   90.00000000
_cell_angle_gamma   119.99999237
_symmetry_Int_Tables_number   1
_chemical_formula_structural   CsPrEuSnAuI
_chemical_formula_sum   'Cs1 Pr1 Eu1 Sn1 Au1 I1'
_cell_volume   140.64717981
_cell_formula_units_Z   1
loop_
 _symmetry_equiv_pos_site_id
 _symmetry_equiv_pos_as_xyz
  1  'x, y, z'
loop_
 _atom_site_type_symbol
 _atom_site_label
 _atom_site_symmetry_multiplicity
 _atom_site_fract_x
 _atom_site_fract_y
 _atom_site_fract_z
 _atom_site_occupancy
  Au  Au0  1  0.00000000  0.00000000  0.52094600  1
  I  I1  1  0.00000000  0.00000000  0.02094600  1
  Sn  Sn2  1  0.66666663  0.33333334  0.29275600  1
  Eu  Eu3  1  0.33333330  0.66666668  0.79275599  1
  Cs  Cs4  1  0.33333330  0.66666668  0.18629800  1
  Pr  Pr5  1  0.66666663  0.33333334  0.68629800  1
