# generated using pymatgen
data_NaAcLaPrSmGdDyNpNiHgBMoPIrNe
_symmetry_space_group_name_H-M   'P 1'
_cell_length_a   5.13153505
_cell_length_b   5.76870298
_cell_length_c   5.76870298
_cell_angle_alpha   60.93870544
_cell_angle_beta   72.15520477
_cell_angle_gamma   72.15520477
_symmetry_Int_Tables_number   1
_chemical_formula_structural   NaAcLaPrSmGdDyNpNiHgBMoPIrNe
_chemical_formula_sum
'Na1 Ac1 La1 Pr1 Sm1 Gd1 Dy1 Np1 Ni1 Hg1 B1 Mo1 P1 Ir1 Ne1'
_cell_volume   139.51448862
_cell_formula_units_Z   1
loop_
 _symmetry_equiv_pos_site_id
 _symmetry_equiv_pos_as_xyz
  1  'x, y, z'
loop_
 _atom_site_type_symbol
 _atom_site_label
 _atom_site_symmetry_multiplicity
 _atom_site_fract_x
 _atom_site_fract_y
 _atom_site_fract_z
 _atom_site_occupancy
  B  B0  1  0.72468998  0.35047700  0.92327999  1
  P  P1  1  0.73003199  0.90219200  0.36781797  1
  Np  Np2  1  0.31380700  0.62450800  0.63691198  1
  Ac  Ac3  1  0.68619298  0.36308800  0.37549199  1
  Ni  Ni4  1  0.26996800  0.63218200  0.09780798  1
  Ir  Ir5  1  0.27530999  0.07672000  0.64952299  1
  Pr  Pr6  1  0.23854699  0.12796800  0.14480700  1
  La  La7  1  0.76145299  0.85519300  0.87203197  1
  Sm  Sm8  1  0.99999998  0.99470300  0.00529697  1
  Ne  Ne9  1  0.49999999  0.21880600  0.78119399  1
  Gd  Gd10  1  0.55091899  0.73623700  0.75858597  1
  Dy  Dy11  1  0.00180001  0.98126700  0.51389996  1
  Mo  Mo12  1  0.99819998  0.48610000  0.01873299  1
  Hg  Hg13  1  0.44908099  0.24141400  0.26376299  1
  Na  Na14  1  0.49999999  0.76361700  0.23638298  1
