# generated using pymatgen
data_BaTbGdYLuHfThInCoCuMoAsIrKrN2O
_symmetry_space_group_name_H-M   'P 1'
_cell_length_a   5.89017916
_cell_length_b   6.81301212
_cell_length_c   8.33014584
_cell_angle_alpha   107.63223267
_cell_angle_beta   110.62273407
_cell_angle_gamma   90.19715118
_symmetry_Int_Tables_number   1
_chemical_formula_structural   BaTbGdYLuHfThInCoCuMoAsIrKrN2O
_chemical_formula_sum
'Ba1 Tb1 Gd1 Y1 Lu1 Th1 Hf1 In1 Co1 Cu1 Mo1 As1 Ir1 Kr1 N2 O1'
_cell_volume   295.88661167
_cell_formula_units_Z   1
loop_
 _symmetry_equiv_pos_site_id
 _symmetry_equiv_pos_as_xyz
  1  'x, y, z'
loop_
 _atom_site_type_symbol
 _atom_site_label
 _atom_site_symmetry_multiplicity
 _atom_site_fract_x
 _atom_site_fract_y
 _atom_site_fract_z
 _atom_site_occupancy
  In  In0  1  0.60363998  0.19961001  0.19952498  1
  Tb  Tb1  1  0.20073100  0.39893302  0.40325599  1
  Mo  Mo2  1  0.39636000  0.80039003  0.80047497  1
  Gd  Gd3  1  0.79926898  0.60106703  0.59674397  1
  Th  Th4  1  0.00000000  0.00000000  0.00000000  1
  O  O5  1  0.89498597  0.29225201  0.79119895  1
  Ir  Ir6  1  0.10501401  0.70774803  0.20880101  1
  Lu  Lu7  1  0.18251100  0.45242502  0.69997897  1
  Kr  Kr8  1  0.38314801  0.85364304  0.09942801  1
  Co  Co9  1  0.58145198  0.25187001  0.49671097  1
  Cu  Cu10  1  0.77955199  0.65066903  0.89844396  1
  Y  Y11  1  0.98301196  0.05211300  0.30030396  1
  Ba  Ba12  1  0.01698802  0.94788704  0.69969599  1
  As  As13  1  0.22044800  0.34933101  0.10155600  1
  Hf  Hf14  1  0.41854800  0.74813003  0.50328899  1
  N  N15  1  0.61685198  0.14635701  0.90057194  1
  N  N16  1  0.81748898  0.54757502  0.30002098  1
