# generated using pymatgen
data_AcPmLuTiFeCuSnBiBPPtRhAuCXeCl
_symmetry_space_group_name_H-M   'P 1'
_cell_length_a   3.98149395
_cell_length_b   3.98149395
_cell_length_c   17.19284630
_cell_angle_alpha   90.00000000
_cell_angle_beta   90.00000000
_cell_angle_gamma   90.00000000
_symmetry_Int_Tables_number   1
_chemical_formula_structural   AcPmLuTiFeCuSnBiBPPtRhAuCXeCl
_chemical_formula_sum
'Ac1 Pm1 Lu1 Ti1 Fe1 Cu1 Sn1 Bi1 B1 P1 Pt1 Rh1 Au1 C1 Xe1 Cl1'
_cell_volume   272.54605547
_cell_formula_units_Z   1
loop_
 _symmetry_equiv_pos_site_id
 _symmetry_equiv_pos_as_xyz
  1  'x, y, z'
loop_
 _atom_site_type_symbol
 _atom_site_label
 _atom_site_symmetry_multiplicity
 _atom_site_fract_x
 _atom_site_fract_y
 _atom_site_fract_z
 _atom_site_occupancy
  Pm  Pm0  1  0.00000000  0.00000000  0.88109104  1
  Pt  Pt1  1  0.00000000  0.00000000  0.12310001  1
  Xe  Xe2  1  0.50000001  0.50000001  0.61648003  1
  Sn  Sn3  1  0.50000001  0.50000001  0.38139502  1
  Lu  Lu4  1  0.50000001  0.00000000  0.00122700  1
  Ac  Ac5  1  0.00000000  0.50000001  0.49661902  1
  Ti  Ti6  1  0.00000000  0.50000001  0.00122700  1
  P  P7  1  0.50000001  0.00000000  0.49661902  1
  B  B8  1  0.50000001  0.50000001  0.12423301  1
  Bi  Bi9  1  0.00000000  0.00000000  0.62368503  1
  Cl  Cl10  1  0.00000000  0.00000000  0.37397102  1
  Au  Au11  1  0.50000001  0.50000001  0.87468204  1
  C  C12  1  0.00000000  0.50000001  0.25379101  1
  Fe  Fe13  1  0.50000001  0.00000000  0.74904503  1
  Rh  Rh14  1  0.50000001  0.00000000  0.25379101  1
  Cu  Cu15  1  0.00000000  0.50000001  0.74904503  1
