# generated using pymatgen
data_KYHoErCrInBiTeRuPbWSeClHe
_symmetry_space_group_name_H-M   'P 1'
_cell_length_a   7.52804804
_cell_length_b   7.52804804
_cell_length_c   7.52804804
_cell_angle_alpha   109.42044067
_cell_angle_beta   109.49662018
_cell_angle_gamma   109.49662018
_symmetry_Int_Tables_number   1
_chemical_formula_structural   KYHoErCrInBiTeRuPbWSeClHe
_chemical_formula_sum
'K1 Y1 Ho1 Er1 Cr1 In1 Bi1 Te1 Ru1 Pb1 W1 Se1 Cl1 He1'
_cell_volume   328.41649376
_cell_formula_units_Z   1
loop_
 _symmetry_equiv_pos_site_id
 _symmetry_equiv_pos_as_xyz
  1  'x, y, z'
loop_
 _atom_site_type_symbol
 _atom_site_label
 _atom_site_symmetry_multiplicity
 _atom_site_fract_x
 _atom_site_fract_y
 _atom_site_fract_z
 _atom_site_occupancy
  Y  Y0  1  0.50000002  0.25000001  0.75000002  1
  Cl  Cl1  1  0.00000006  0.50000002  0.50000005  1
  In  In2  1  0.87584008  0.87500004  0.25084013  1
  Ru  Ru3  1  0.37583999  0.00084000  0.12500001  1
  Er  Er4  1  0.12416004  0.37500002  0.99916002  1
  K  K5  1  0.62416007  0.74916004  0.62500009  1
  Te  Te6  1  0.25122708  0.76919804  0.36565509  1
  Pb  Pb7  1  0.24877303  0.26797101  0.36442803  1
  Se  Se8  1  0.59645704  0.48202902  0.23080207  1
  He  He9  1  0.75122700  0.11565501  0.01919804  1
  W  W10  1  0.40354306  0.63434503  0.88557206  1
  Bi  Bi11  1  0.09645711  0.98080205  0.73202910  1
  Cr  Cr12  1  0.74877300  0.11442801  0.51797102  1
  Ho  Ho13  1  0.90354305  0.63557203  0.88434508  1
