# generated using pymatgen
data_SrPmYLuNpAlZnCdCoBHeIrRuPt
_symmetry_space_group_name_H-M   'P 1'
_cell_length_a   4.46534920
_cell_length_b   8.27433491
_cell_length_c   8.27433491
_cell_angle_alpha   64.22117615
_cell_angle_beta   74.34577179
_cell_angle_gamma   74.34576416
_symmetry_Int_Tables_number   1
_chemical_formula_structural   SrPmYLuNpAlZnCdCoBHeIrRuPt
_chemical_formula_sum
'Sr1 Pm1 Y1 Lu1 Np1 Al1 Zn1 Cd1 Co1 B1 He1 Ru1 Ir1 Pt1'
_cell_volume   260.95078428
_cell_formula_units_Z   1
loop_
 _symmetry_equiv_pos_site_id
 _symmetry_equiv_pos_as_xyz
  1  'x, y, z'
loop_
 _atom_site_type_symbol
 _atom_site_label
 _atom_site_symmetry_multiplicity
 _atom_site_fract_x
 _atom_site_fract_y
 _atom_site_fract_z
 _atom_site_occupancy
  Y  Y0  1  0.00000000  0.00000000  0.00000000  1
  B  B1  1  0.70460395  0.29539500  0.29539496  1
  Cd  Cd2  1  0.29539393  0.70460500  0.70460493  1
  Sr  Sr3  1  0.34385297  0.29735200  0.01494098  1
  Zn  Zn4  1  0.14009795  0.57729700  0.14250497  1
  Pm  Pm5  1  0.34385299  0.01494000  0.29735197  1
  Np  Np6  1  0.49999993  0.68265400  0.31734595  1
  Co  Co7  1  0.85989990  0.85749500  0.42270293  1
  He  He8  1  -0.00000004  0.50000000  0.49999996  1
  Lu  Lu9  1  0.14009898  0.14250500  0.57729696  1
  Ru  Ru10  1  0.49999896  0.31734600  0.68265394  1
  Al  Al11  1  0.65614590  0.98505900  0.70264792  1
  Pt  Pt12  1  0.85990094  0.42270300  0.85749492  1
  Ir  Ir13  1  0.65614492  0.70264800  0.98505991  1
