# generated using pymatgen
data_RbLiAcDyTiSnOsCl
_symmetry_space_group_name_H-M   'P 1'
_cell_length_a   4.57581091
_cell_length_b   5.57984304
_cell_length_c   7.06742907
_cell_angle_alpha   90.00000000
_cell_angle_beta   90.00000000
_cell_angle_gamma   90.00000000
_symmetry_Int_Tables_number   1
_chemical_formula_structural   RbLiAcDyTiSnOsCl
_chemical_formula_sum   'Rb1 Li1 Ac1 Dy1 Ti1 Sn1 Os1 Cl1'
_cell_volume   180.44776630
_cell_formula_units_Z   1
loop_
 _symmetry_equiv_pos_site_id
 _symmetry_equiv_pos_as_xyz
  1  'x, y, z'
loop_
 _atom_site_type_symbol
 _atom_site_label
 _atom_site_symmetry_multiplicity
 _atom_site_fract_x
 _atom_site_fract_y
 _atom_site_fract_z
 _atom_site_occupancy
  Os  Os0  1  0.25000000  0.35757700  0.68357799  1
  Sn  Sn1  1  0.25000000  0.14242300  0.18357800  1
  Rb  Rb2  1  0.75000001  0.64242299  0.31642200  1
  Ti  Ti3  1  0.75000001  0.85757699  0.81642199  1
  Ac  Ac4  1  0.25000000  0.84488199  0.54173499  1
  Dy  Dy5  1  0.25000000  0.65511799  0.04173500  1
  Cl  Cl6  1  0.75000001  0.15511800  0.45826500  1
  Li  Li7  1  0.75000001  0.34488200  0.95826499  1
