# generated using pymatgen
data_BaLiLaHoBeInNiAgPdPbIKr
_symmetry_space_group_name_H-M   'P 1'
_cell_length_a   4.49801016
_cell_length_b   6.70780420
_cell_length_c   7.40596390
_cell_angle_alpha   90.00000000
_cell_angle_beta   90.00000000
_cell_angle_gamma   90.00000000
_symmetry_Int_Tables_number   1
_chemical_formula_structural   BaLiLaHoBeInNiAgPdPbIKr
_chemical_formula_sum
'Ba1 Li1 La1 Ho1 Be1 In1 Ni1 Ag1 Pd1 Pb1 I1 Kr1'
_cell_volume   223.45105006
_cell_formula_units_Z   1
loop_
 _symmetry_equiv_pos_site_id
 _symmetry_equiv_pos_as_xyz
  1  'x, y, z'
loop_
 _atom_site_type_symbol
 _atom_site_label
 _atom_site_symmetry_multiplicity
 _atom_site_fract_x
 _atom_site_fract_y
 _atom_site_fract_z
 _atom_site_occupancy
  I  I0  1  0.74999997  0.67938098  0.52828401  1
  Pb  Pb1  1  0.24999999  0.17938099  0.97171601  1
  Ni  Ni2  1  0.24999999  0.32061899  0.47171601  1
  La  La3  1  0.74999997  0.82061898  0.02828400  1
  Kr  Kr4  1  0.24999999  0.89580397  0.31664400  1
  In  In5  1  0.24999999  0.60419598  0.81664401  1
  Ba  Ba6  1  0.74999997  0.10419600  0.68335601  1
  Be  Be7  1  0.74999997  0.39580399  0.18335600  1
  Ag  Ag8  1  0.74999997  0.42350499  0.84281401  1
  Pd  Pd9  1  0.74999997  0.07649500  0.34281400  1
  Li  Li10  1  0.24999999  0.92350497  0.65718601  1
  Ho  Ho11  1  0.24999999  0.57649498  0.15718600  1
