# generated using pymatgen
data_SrCaYbEuDyPuHfMnTlVZnFeAgAsIrAuCSeSO
_symmetry_space_group_name_H-M   'P 1'
_cell_length_a   6.67234707
_cell_length_b   6.67234707
_cell_length_c   8.66226196
_cell_angle_alpha   90.00000000
_cell_angle_beta   90.00000000
_cell_angle_gamma   116.80564117
_symmetry_Int_Tables_number   1
_chemical_formula_structural   SrCaYbEuDyPuHfMnTlVZnFeAgAsIrAuCSeSO
_chemical_formula_sum
;
Sr1 Ca1 Yb1 Eu1 Dy1 Pu1 Hf1 Mn1 Tl1 V1 Zn1 Fe1 Ag1 As1 Ir1 Au1 Se1 C1
S1 O1
;
_cell_volume   344.20482262
_cell_formula_units_Z   1
loop_
 _symmetry_equiv_pos_site_id
 _symmetry_equiv_pos_as_xyz
  1  'x, y, z'
loop_
 _atom_site_type_symbol
 _atom_site_label
 _atom_site_symmetry_multiplicity
 _atom_site_fract_x
 _atom_site_fract_y
 _atom_site_fract_z
 _atom_site_occupancy
  As  As0  1  0.00000000  0.00000000  0.00000000  1
  Eu  Eu1  1  0.00000000  0.00000000  0.50000000  1
  O  O2  1  0.69063900  0.30936100  0.25000000  1
  V  V3  1  0.30936097  0.69063900  0.75000000  1
  Ir  Ir4  1  0.30717697  0.69282300  0.25000000  1
  Au  Au5  1  0.69282300  0.30717700  0.75000000  1
  Hf  Hf6  1  0.48967799  0.51032200  0.25000000  1
  Ca  Ca7  1  0.51032199  0.48967800  0.75000000  1
  Sr  Sr8  1  0.30000597  0.69999400  0.01293000  1
  Yb  Yb9  1  0.69999400  0.30000600  0.98707000  1
  Fe  Fe10  1  0.69999400  0.30000600  0.51293000  1
  Mn  Mn11  1  0.30000597  0.69999400  0.48707000  1
  Se  Se12  1  0.97807499  0.67161000  0.25000000  1
  Pu  Pu13  1  0.02192498  0.32839000  0.75000000  1
  Ag  Ag14  1  0.32839001  0.02192500  0.25000000  1
  Dy  Dy15  1  0.67160997  0.97807500  0.75000000  1
  C  C16  1  0.06389698  0.34897200  0.25000000  1
  S  S17  1  0.93610299  0.65102800  0.75000000  1
  Tl  Tl18  1  0.65102797  0.93610300  0.25000000  1
  Zn  Zn19  1  0.34897200  0.06389700  0.75000000  1
