# generated using pymatgen
data_SmHfAlNiSnTePF
_symmetry_space_group_name_H-M   'P 1'
_cell_length_a   5.17522192
_cell_length_b   6.39940214
_cell_length_c   6.39940119
_cell_angle_alpha   120.00000000
_cell_angle_beta   90.00000000
_cell_angle_gamma   90.00000000
_symmetry_Int_Tables_number   1
_chemical_formula_structural   SmHfAlNiSnTePF
_chemical_formula_sum   'Sm1 Hf1 Al1 Ni1 Sn1 Te1 P1 F1'
_cell_volume   183.54322114
_cell_formula_units_Z   1
loop_
 _symmetry_equiv_pos_site_id
 _symmetry_equiv_pos_as_xyz
  1  'x, y, z'
loop_
 _atom_site_type_symbol
 _atom_site_label
 _atom_site_symmetry_multiplicity
 _atom_site_fract_x
 _atom_site_fract_y
 _atom_site_fract_z
 _atom_site_occupancy
  Hf  Hf0  1  0.75000001  0.83170995  0.16829095  1
  Te  Te1  1  0.75000001  0.33658098  0.16829098  1
  Al  Al2  1  0.75000001  0.83170995  0.66341997  1
  Sn  Sn3  1  0.25000000  0.16828999  0.83170902  1
  Ni  Ni4  1  0.25000000  0.66341896  0.83170898  1
  P  P5  1  0.25000000  0.16828999  0.33658000  1
  F  F6  1  0.25000000  0.66666663  0.33333330  1
  Sm  Sm7  1  0.75000001  0.33333332  0.66666667  1
