# generated using pymatgen
data_AcCeSmPuThTaTiZnAgSnAsIrPtC2F
_symmetry_space_group_name_H-M   'P 1'
_cell_length_a   4.40156317
_cell_length_b   8.90755272
_cell_length_c   9.48810577
_cell_angle_alpha   117.99576569
_cell_angle_beta   103.41200256
_cell_angle_gamma   90.00000000
_symmetry_Int_Tables_number   1
_chemical_formula_structural   AcCeSmPuThTaTiZnAgSnAsIrPtC2F
_chemical_formula_sum
'Ac1 Ce1 Sm1 Pu1 Th1 Ta1 Ti1 Zn1 Ag1 Sn1 As1 Ir1 Pt1 C2 F1'
_cell_volume   316.93495012
_cell_formula_units_Z   1
loop_
 _symmetry_equiv_pos_site_id
 _symmetry_equiv_pos_as_xyz
  1  'x, y, z'
loop_
 _atom_site_type_symbol
 _atom_site_label
 _atom_site_symmetry_multiplicity
 _atom_site_fract_x
 _atom_site_fract_y
 _atom_site_fract_z
 _atom_site_occupancy
  Sm  Sm0  1  0.20298699  0.20297500  0.40594897  1
  Zn  Zn1  1  0.79703894  0.79702500  0.59405092  1
  Sn  Sn2  1  0.00158997  0.75779100  0.99999991  1
  As  As3  1  0.00158999  0.24220900  -0.00000002  1
  Pu  Pu4  1  0.57489398  0.07494100  0.14988199  1
  Ti  Ti5  1  0.42501195  0.92505900  0.85011790  1
  C  C6  1  0.19877196  0.84664700  0.39559193  1
  Ir  Ir7  1  0.80317996  0.15335300  0.60440796  1
  Ta  Ta8  1  0.80317995  0.45105400  0.60440794  1
  Th  Th9  1  0.19877197  0.54894600  0.39559195  1
  F  F10  1  0.44148597  0.42272400  0.84544794  1
  Ag  Ag11  1  0.59603796  0.57727600  0.15455196  1
  Ac  Ac12  1  0.35136798  0.09978600  0.70360696  1
  Ce  Ce13  1  0.64776094  0.90021400  0.29639293  1
  Pt  Pt14  1  0.64776096  0.39617900  0.29639296  1
  C  C15  1  0.35136797  0.60382100  0.70360693  1
