# generated using pymatgen
data_HoUBeReHgBiSb2HOsKrClO
_symmetry_space_group_name_H-M   'P 1'
_cell_length_a   4.89288044
_cell_length_b   4.89288044
_cell_length_c   9.27353764
_cell_angle_alpha   74.70383453
_cell_angle_beta   74.70383453
_cell_angle_gamma   59.99999237
_symmetry_Int_Tables_number   1
_chemical_formula_structural   HoUBeReHgBiSb2HOsKrClO
_chemical_formula_sum
'Ho1 U1 Be1 Re1 Hg1 Bi1 Sb2 Os1 H1 Kr1 Cl1 O1'
_cell_volume   183.12953278
_cell_formula_units_Z   1
loop_
 _symmetry_equiv_pos_site_id
 _symmetry_equiv_pos_as_xyz
  1  'x, y, z'
loop_
 _atom_site_type_symbol
 _atom_site_label
 _atom_site_symmetry_multiplicity
 _atom_site_fract_x
 _atom_site_fract_y
 _atom_site_fract_z
 _atom_site_occupancy
  Ho  Ho0  1  0.83136097  0.83136101  0.50591706  1
  Be  Be1  1  0.16863899  0.16863900  0.49408302  1
  Re  Re2  1  0.65546397  0.65546401  0.03360803  1
  Sb  Sb3  1  0.34453599  0.34453601  0.96639205  1
  O  O4  1  0.54929698  0.54929701  0.35210904  1
  Sb  Sb5  1  0.45070298  0.45070301  0.64789104  1
  Kr  Kr6  1  0.00000000  0.00000000  0.00000000  1
  Hg  Hg7  1  0.90944398  0.40884701  0.77226505  1
  Bi  Bi8  1  0.90944396  0.90944401  0.77226507  1
  U  U9  1  0.40884696  0.90944401  0.77226506  1
  Cl  Cl10  1  0.09055598  0.59115301  0.22773502  1
  Os  Os11  1  0.09055600  0.09055600  0.22773501  1
  H  H12  1  0.59115299  0.09055600  0.22773502  1
