# generated using pymatgen
data_NpVCrC
_symmetry_space_group_name_H-M   'P 1'
_cell_length_a   2.93311000
_cell_length_b   2.93311000
_cell_length_c   5.13398695
_cell_angle_alpha   90.00000000
_cell_angle_beta   90.00000000
_cell_angle_gamma   90.00000000
_symmetry_Int_Tables_number   1
_chemical_formula_structural   NpVCrC
_chemical_formula_sum   'Np1 V1 Cr1 C1'
_cell_volume   44.16837904
_cell_formula_units_Z   1
loop_
 _symmetry_equiv_pos_site_id
 _symmetry_equiv_pos_as_xyz
  1  'x, y, z'
loop_
 _atom_site_type_symbol
 _atom_site_label
 _atom_site_symmetry_multiplicity
 _atom_site_fract_x
 _atom_site_fract_y
 _atom_site_fract_z
 _atom_site_occupancy
  C  C0  1  0.00000000  0.50000000  0.50000000  1
  V  V1  1  0.50000000  0.00000000  -0.00000000  1
  Np  Np2  1  0.50000000  0.50000000  0.75000001  1
  Cr  Cr3  1  0.50000000  0.50000000  0.25000000  1
