# generated using pymatgen
data_Ba2YbUCdRe2TcTeMoHBr
_symmetry_space_group_name_H-M   'P 1'
_cell_length_a   3.57908392
_cell_length_b   5.93455791
_cell_length_c   6.71124315
_cell_angle_alpha   90.79188538
_cell_angle_beta   90.00000000
_cell_angle_gamma   90.00000000
_symmetry_Int_Tables_number   1
_chemical_formula_structural   Ba2YbUCdRe2TcTeMoHBr
_chemical_formula_sum   'Ba2 Yb1 U1 Cd1 Re2 Tc1 Te1 Mo1 H1 Br1'
_cell_volume   142.53507447
_cell_formula_units_Z   1
loop_
 _symmetry_equiv_pos_site_id
 _symmetry_equiv_pos_as_xyz
  1  'x, y, z'
loop_
 _atom_site_type_symbol
 _atom_site_label
 _atom_site_symmetry_multiplicity
 _atom_site_fract_x
 _atom_site_fract_y
 _atom_site_fract_z
 _atom_site_occupancy
  Br  Br0  1  -0.00000000  0.02090000  0.31694799  1
  Cd  Cd1  1  0.50000001  0.47630501  0.82809199  1
  H  H2  1  0.50000001  0.97159901  0.67750001  1
  Ba  Ba3  1  -0.00000000  0.64509301  0.55802400  1
  Re  Re4  1  0.00000000  0.14957000  0.94166098  1
  Tc  Tc5  1  0.50000001  0.35700401  0.43859700  1
  Ba  Ba6  1  0.50000001  0.85426401  0.06205802  1
  Yb  Yb7  1  -0.00000000  0.53199601  0.17437201  1
  Re  Re8  1  0.00000000  0.27150500  0.62230799  1
  Te  Te9  1  0.00000000  0.77129801  0.88786000  1
  Mo  Mo10  1  0.50000001  0.71593801  0.36605201  1
  U  U11  1  0.50000001  0.23452800  0.12652800  1
