# generated using pymatgen
data_CsSrLiCa2PrSmNpScCd2SnPb2Kr
_symmetry_space_group_name_H-M   'P 1'
_cell_length_a   3.83327699
_cell_length_b   3.83327699
_cell_length_c   17.43610001
_cell_angle_alpha   90.00000000
_cell_angle_beta   90.00000000
_cell_angle_gamma   90.00000000
_symmetry_Int_Tables_number   1
_chemical_formula_structural   CsSrLiCa2PrSmNpScCd2SnPb2Kr
_chemical_formula_sum
'Cs1 Sr1 Li1 Ca2 Pr1 Sm1 Sc1 Np1 Cd2 Sn1 Pb2 Kr1'
_cell_volume   256.20627074
_cell_formula_units_Z   1
loop_
 _symmetry_equiv_pos_site_id
 _symmetry_equiv_pos_as_xyz
  1  'x, y, z'
loop_
 _atom_site_type_symbol
 _atom_site_label
 _atom_site_symmetry_multiplicity
 _atom_site_fract_x
 _atom_site_fract_y
 _atom_site_fract_z
 _atom_site_occupancy
  Pb  Pb0  1  0.50000000  0.00000000  0.12730600  1
  Kr  Kr1  1  0.50000000  0.00000000  0.62998100  1
  Sc  Sc2  1  0.00000000  0.50000000  0.87269400  1
  Np  Np3  1  0.00000000  0.50000000  0.37001900  1
  Pr  Pr4  1  0.00000000  0.00000000  0.50000000  1
  Ca  Ca5  1  0.50000000  0.50000000  0.00000000  1
  Sn  Sn6  1  0.50000000  0.50000000  0.50000000  1
  Cd  Cd7  1  0.50000000  0.00000000  0.92609600  1
  Sr  Sr8  1  0.50000000  0.00000000  0.41748200  1
  Sm  Sm9  1  0.00000000  0.50000000  0.07390400  1
  Ca  Ca10  1  0.00000000  0.50000000  0.58251800  1
  Pb  Pb11  1  0.00000000  0.00000000  0.75104600  1
  Li  Li12  1  0.00000000  0.00000000  0.24895400  1
  Cd  Cd13  1  0.50000000  0.50000000  0.75087600  1
  Cs  Cs14  1  0.50000000  0.50000000  0.24912400  1
