# generated using pymatgen
data_NaUCuIrOsPdWC
_symmetry_space_group_name_H-M   'P 1'
_cell_length_a   4.12393379
_cell_length_b   4.12393332
_cell_length_c   7.02804279
_cell_angle_alpha   90.00000000
_cell_angle_beta   90.00000000
_cell_angle_gamma   120.00000763
_symmetry_Int_Tables_number   1
_chemical_formula_structural   NaUCuIrOsPdWC
_chemical_formula_sum   'Na1 U1 Cu1 Ir1 Pd1 Os1 W1 C1'
_cell_volume   103.51143131
_cell_formula_units_Z   1
loop_
 _symmetry_equiv_pos_site_id
 _symmetry_equiv_pos_as_xyz
  1  'x, y, z'
loop_
 _atom_site_type_symbol
 _atom_site_label
 _atom_site_symmetry_multiplicity
 _atom_site_fract_x
 _atom_site_fract_y
 _atom_site_fract_z
 _atom_site_occupancy
  C  C0  1  0.33333340  0.66666671  0.25000001  1
  Cu  Cu1  1  0.66666672  0.33333336  0.75000002  1
  Ir  Ir2  1  0.00000000  0.00000000  0.75000002  1
  Pd  Pd3  1  0.00000000  0.00000000  0.25000001  1
  Na  Na4  1  0.66666672  0.33333336  0.42103601  1
  Os  Os5  1  0.66666672  0.33333336  0.07896400  1
  U  U6  1  0.33333340  0.66666671  0.92103603  1
  W  W7  1  0.33333340  0.66666671  0.57896402  1
