# generated using pymatgen
data_GdTmCoSi
_symmetry_space_group_name_H-M   'P 1'
_cell_length_a   3.62208605
_cell_length_b   3.62208605
_cell_length_c   9.10402775
_cell_angle_alpha   90.00000000
_cell_angle_beta   90.00000000
_cell_angle_gamma   90.00000000
_symmetry_Int_Tables_number   1
_chemical_formula_structural   GdTmCoSi
_chemical_formula_sum   'Gd1 Tm1 Co1 Si1'
_cell_volume   119.44035887
_cell_formula_units_Z   1
loop_
 _symmetry_equiv_pos_site_id
 _symmetry_equiv_pos_as_xyz
  1  'x, y, z'
loop_
 _atom_site_type_symbol
 _atom_site_label
 _atom_site_symmetry_multiplicity
 _atom_site_fract_x
 _atom_site_fract_y
 _atom_site_fract_z
 _atom_site_occupancy
  Si  Si0  1  0.49999999  0.49999999  0.76558502  1
  Tm  Tm1  1  0.00000000  0.00000000  0.50000001  1
  Co  Co2  1  0.49999999  0.49999999  0.23441501  1
  Gd  Gd3  1  0.00000000  0.00000000  0.00000000  1
