# generated using pymatgen
data_DyHoErU2Ga
_symmetry_space_group_name_H-M   'P 1'
_cell_length_a   3.00427794
_cell_length_b   5.51418447
_cell_length_c   5.51418447
_cell_angle_alpha   118.72319031
_cell_angle_beta   90.00000000
_cell_angle_gamma   90.00000000
_symmetry_Int_Tables_number   1
_chemical_formula_structural   DyHoErU2Ga
_chemical_formula_sum   'Dy1 Ho1 Er1 U2 Ga1'
_cell_volume   80.10845898
_cell_formula_units_Z   1
loop_
 _symmetry_equiv_pos_site_id
 _symmetry_equiv_pos_as_xyz
  1  'x, y, z'
loop_
 _atom_site_type_symbol
 _atom_site_label
 _atom_site_symmetry_multiplicity
 _atom_site_fract_x
 _atom_site_fract_y
 _atom_site_fract_z
 _atom_site_occupancy
  U  U0  1  0.00000000  0.00000000  0.00000000  1
  Dy  Dy1  1  -0.00000000  0.32829100  0.67170900  1
  Ho  Ho2  1  1.00000002  0.67170900  0.32829097  1
  Ga  Ga3  1  0.50000001  0.00000000  0.50000001  1
  U  U4  1  0.50000001  0.50000000  -0.00000003  1
  Er  Er5  1  0.50000001  0.50000000  0.49999999  1
