# generated using pymatgen
data_CeCuNeUHeKHfAlBr
_symmetry_space_group_name_H-M   'P 1'
_cell_length_a   4.16346979
_cell_length_b   7.22942019
_cell_length_c   7.22941971
_cell_angle_alpha   120.00000000
_cell_angle_beta   90.00000000
_cell_angle_gamma   90.00000000
_symmetry_Int_Tables_number   1
_chemical_formula_structural   CeCuNeUHeKHfAlBr
_chemical_formula_sum   'Ce1 Cu1 Ne1 U1 He1 K1 Hf1 Al1 Br1'
_cell_volume   188.44861748
_cell_formula_units_Z   1
loop_
 _symmetry_equiv_pos_site_id
 _symmetry_equiv_pos_as_xyz
  1  'x, y, z'
loop_
 _atom_site_type_symbol
 _atom_site_label
 _atom_site_symmetry_multiplicity
 _atom_site_fract_x
 _atom_site_fract_y
 _atom_site_fract_z
 _atom_site_occupancy
  Ce  Ce0  1  0.50000003  0.58186498  0.58186498  1
  Cu  Cu1  1  0.50000003  0.00000000  0.41813500  1
  Ne  Ne2  1  0.50000003  0.41813498  -0.00000001  1
  U  U3  1  -0.00000000  0.22998899  0.22998899  1
  He  He4  1  0.00000000  0.00000000  0.77001100  1
  K  K5  1  -0.00000000  0.77001097  -0.00000002  1
  Hf  Hf6  1  -0.00000000  0.66666664  0.33333331  1
  Al  Al7  1  1.00000005  0.33333332  0.66666665  1
  Br  Br8  1  0.50000003  0.00000000  -0.00000000  1
