# generated using pymatgen
data_GdErPuZr2PaTaTiAlGaCoSnAsPtWAuKrF
_symmetry_space_group_name_H-M   'P 1'
_cell_length_a   4.90395880
_cell_length_b   4.90395880
_cell_length_c   12.29268742
_cell_angle_alpha   78.49423981
_cell_angle_beta   78.49423981
_cell_angle_gamma   60.00000381
_symmetry_Int_Tables_number   1
_chemical_formula_structural   GdErPuZr2PaTaTiAlGaCoSnAsPtWAuKrF
_chemical_formula_sum
'Gd1 Er1 Pu1 Zr2 Ta1 Pa1 Ti1 Al1 Ga1 Co1 Sn1 As1 Pt1 W1 Au1 Kr1 F1'
_cell_volume   249.13504925
_cell_formula_units_Z   1
loop_
 _symmetry_equiv_pos_site_id
 _symmetry_equiv_pos_as_xyz
  1  'x, y, z'
loop_
 _atom_site_type_symbol
 _atom_site_label
 _atom_site_symmetry_multiplicity
 _atom_site_fract_x
 _atom_site_fract_y
 _atom_site_fract_z
 _atom_site_occupancy
  W  W0  1  0.05186000  0.05186000  0.84442100  1
  Zr  Zr1  1  0.94814001  0.94813998  0.15557902  1
  Ti  Ti2  1  0.14814800  0.14814800  0.55555600  1
  Al  Al3  1  0.85185201  0.85185199  0.44444302  1
  Gd  Gd4  1  0.50000001  0.49999999  0.50000001  1
  Au  Au5  1  0.27810800  0.27810800  0.16567601  1
  Ta  Ta6  1  0.72189201  0.72189199  0.83432401  1
  As  As7  1  0.38889000  0.38888999  0.83332901  1
  Pa  Pa8  1  0.61111001  0.61110999  0.16667101  1
  F  F9  1  0.50000002  0.00000000  0.00000000  1
  Co  Co10  1  -0.00000001  0.49999999  0.00000001  1
  Ga  Ga11  1  0.50000001  0.49999999  0.00000001  1
  Zr  Zr12  1  0.61118801  0.61118799  0.66910401  1
  Pu  Pu13  1  0.61118802  0.10851900  0.66910401  1
  Sn  Sn14  1  0.10851899  0.61118799  0.66910401  1
  Kr  Kr15  1  0.38881200  0.38881199  0.33089601  1
  Pt  Pt16  1  0.38881199  0.89148098  0.33089602  1
  Er  Er17  1  0.89148102  0.38881199  0.33089601  1
