# generated using pymatgen
data_CeHeKPmTmPuNpBeNbCdGaRePt
_symmetry_space_group_name_H-M   'P 1'
_cell_length_a   6.52055836
_cell_length_b   6.52055836
_cell_length_c   6.75115633
_cell_angle_alpha   105.59980774
_cell_angle_beta   104.68435669
_cell_angle_gamma   117.32998657
_symmetry_Int_Tables_number   1
_chemical_formula_structural   CeHeKPmTmPuNpBeNbCdGaRePt
_chemical_formula_sum
'Ce1 He1 K1 Pm1 Tm1 Pu1 Np1 Be1 Nb1 Cd1 Ga1 Re1 Pt1'
_cell_volume   220.49054077
_cell_formula_units_Z   1
loop_
 _symmetry_equiv_pos_site_id
 _symmetry_equiv_pos_as_xyz
  1  'x, y, z'
loop_
 _atom_site_type_symbol
 _atom_site_label
 _atom_site_symmetry_multiplicity
 _atom_site_fract_x
 _atom_site_fract_y
 _atom_site_fract_z
 _atom_site_occupancy
  Ce  Ce0  1  0.73925697  0.23925698  0.49999997  1
  He  He1  1  0.26074291  0.76074295  0.49999993  1
  Pt  Pt2  1  0.26049592  0.74560495  0.00610094  1
  Tm  Tm3  1  0.73950397  0.25439498  0.99389896  1
  Re  Re4  1  0.00000000  0.00000000  0.00000000  1
  Pm  Pm5  1  0.04234597  0.27579398  0.83458597  1
  Ga  Ga6  1  0.44120798  0.20775999  0.16541398  1
  Be  Be7  1  0.95765392  0.72420595  0.16541394  1
  Np  Np8  1  0.55879191  0.79223994  0.83458592  1
  K  K9  1  0.44967898  0.21568098  0.66535997  1
  Cd  Cd10  1  0.55032091  0.78431894  0.33463993  1
  Nb  Nb11  1  0.96352692  0.71333895  0.67686593  1
  Pu  Pu12  1  0.03647297  0.28666098  0.32313397  1
