# generated using pymatgen
data_KBaTbZrSiSnBiMoHPdAuSNe2
_symmetry_space_group_name_H-M   'P 1'
_cell_length_a   6.64454222
_cell_length_b   6.80092621
_cell_length_c   9.29523468
_cell_angle_alpha   108.52885437
_cell_angle_beta   90.00000000
_cell_angle_gamma   90.00000000
_symmetry_Int_Tables_number   1
_chemical_formula_structural   KBaTbZrSiSnBiMoHPdAuSNe2
_chemical_formula_sum
'K1 Ba1 Tb1 Zr1 Si1 Sn1 Bi1 Mo1 H1 Pd1 Au1 S1 Ne2'
_cell_volume   398.26929869
_cell_formula_units_Z   1
loop_
 _symmetry_equiv_pos_site_id
 _symmetry_equiv_pos_as_xyz
  1  'x, y, z'
loop_
 _atom_site_type_symbol
 _atom_site_label
 _atom_site_symmetry_multiplicity
 _atom_site_fract_x
 _atom_site_fract_y
 _atom_site_fract_z
 _atom_site_occupancy
  Sn  Sn0  1  0.24957499  0.76788397  0.56385497  1
  Mo  Mo1  1  0.74957498  0.23211599  0.43614498  1
  Zr  Zr2  1  0.23345099  0.73402898  0.05247599  1
  Au  Au3  1  0.73345098  0.26597099  0.94752395  1
  Si  Si4  1  0.26384999  0.27983699  0.17298899  1
  S  S5  1  0.76384998  0.72016298  0.82701095  1
  Ne  Ne6  1  0.25415799  0.09096300  0.32583698  1
  Ba  Ba7  1  0.75415798  0.90903697  0.67416296  1
  Tb  Tb8  1  0.50810098  0.51869298  0.21743699  1
  Ne  Ne9  1  0.00810100  0.48130698  0.78256296  1
  H  H10  1  0.49836698  0.50866598  0.79702996  1
  K  K11  1  0.99836697  0.49133398  0.20296999  1
  Pd  Pd12  1  0.31559899  0.07524600  0.93615695  1
  Bi  Bi13  1  0.81559897  0.92475397  0.06384299  1
