# generated using pymatgen
data_CaLaGdHoTiFePXeBrHe
_symmetry_space_group_name_H-M   'P 1'
_cell_length_a   4.00769377
_cell_length_b   4.84652376
_cell_length_c   7.02428341
_cell_angle_alpha   90.00000000
_cell_angle_beta   106.57524109
_cell_angle_gamma   90.00000000
_symmetry_Int_Tables_number   1
_chemical_formula_structural   CaLaGdHoTiFePXeBrHe
_chemical_formula_sum   'Ca1 La1 Gd1 Ho1 Ti1 Fe1 P1 Xe1 Br1 He1'
_cell_volume   130.76590458
_cell_formula_units_Z   1
loop_
 _symmetry_equiv_pos_site_id
 _symmetry_equiv_pos_as_xyz
  1  'x, y, z'
loop_
 _atom_site_type_symbol
 _atom_site_label
 _atom_site_symmetry_multiplicity
 _atom_site_fract_x
 _atom_site_fract_y
 _atom_site_fract_z
 _atom_site_occupancy
  Br  Br0  1  0.72664004  0.75000004  0.45328001  1
  Gd  Gd1  1  0.27336002  0.25000001  0.54672001  1
  Fe  Fe2  1  0.50293503  0.25000001  0.00587000  1
  Ho  Ho3  1  0.49706503  0.75000004  0.99413001  1
  P  P4  1  0.55866903  0.25000001  0.11733800  1
  He  He5  1  0.44133103  0.75000004  0.88266201  1
  Ti  Ti6  1  0.02761000  0.50882103  0.05522000  1
  Ca  Ca7  1  0.97239006  0.49117902  0.94478002  1
  Xe  Xe8  1  0.02761000  0.99117905  0.05522000  1
  La  La9  1  0.97239006  0.00882100  0.94478002  1
