# generated using pymatgen
data_CaTbCeNp2MnHgGeIHeTeN
_symmetry_space_group_name_H-M   'P 1'
_cell_length_a   4.04878998
_cell_length_b   4.04878998
_cell_length_c   15.54649162
_cell_angle_alpha   90.00000000
_cell_angle_beta   90.00000000
_cell_angle_gamma   120.00000000
_symmetry_Int_Tables_number   1
_chemical_formula_structural   CaTbCeNp2MnHgGeIHeTeN
_chemical_formula_sum   'Ca1 Tb1 Ce1 Np2 Mn1 Hg1 Ge1 I1 He1 Te1 N1'
_cell_volume   220.70568880
_cell_formula_units_Z   1
loop_
 _symmetry_equiv_pos_site_id
 _symmetry_equiv_pos_as_xyz
  1  'x, y, z'
loop_
 _atom_site_type_symbol
 _atom_site_label
 _atom_site_symmetry_multiplicity
 _atom_site_fract_x
 _atom_site_fract_y
 _atom_site_fract_z
 _atom_site_occupancy
  I  I0  1  0.00000000  0.00000000  0.75000002  1
  Hg  Hg1  1  0.00000000  0.00000000  0.25000001  1
  Np  Np2  1  0.00000000  0.00000000  0.00000000  1
  He  He3  1  0.00000000  0.00000000  0.50000001  1
  Tb  Tb4  1  0.66666667  0.33333334  0.86524702  1
  Np  Np5  1  0.33333334  0.66666667  0.13475300  1
  Ce  Ce6  1  0.33333334  0.66666667  0.36524701  1
  N  N7  1  0.66666667  0.33333334  0.63475302  1
  Te  Te8  1  0.66666667  0.33333334  0.37957501  1
  Ge  Ge9  1  0.33333334  0.66666667  0.62042502  1
  Ca  Ca10  1  0.33333334  0.66666667  0.87957502  1
  Mn  Mn11  1  0.66666667  0.33333334  0.12042500  1
