# generated using pymatgen
data_BaPrNdEuHoMgScPaZnInRe2NiBIrOs2WAuCl
_symmetry_space_group_name_H-M   'P 1'
_cell_length_a   5.65469313
_cell_length_b   5.69262791
_cell_length_c   8.00222015
_cell_angle_alpha   90.00000000
_cell_angle_beta   90.00000000
_cell_angle_gamma   90.00000000
_symmetry_Int_Tables_number   1
_chemical_formula_structural   BaPrNdEuHoMgScPaZnInRe2NiBIrOs2WAuCl
_chemical_formula_sum
'Ba1 Pr1 Nd1 Eu1 Ho1 Mg1 Sc1 Pa1 Zn1 In1 Re2 Ni1 B1 Os2 Ir1 W1 Au1 Cl1'
_cell_volume   257.59197807
_cell_formula_units_Z   1
loop_
 _symmetry_equiv_pos_site_id
 _symmetry_equiv_pos_as_xyz
  1  'x, y, z'
loop_
 _atom_site_type_symbol
 _atom_site_label
 _atom_site_symmetry_multiplicity
 _atom_site_fract_x
 _atom_site_fract_y
 _atom_site_fract_z
 _atom_site_occupancy
  Pa  Pa0  1  0.01767600  0.99799502  0.25000000  1
  Ba  Ba1  1  0.98232398  0.00200500  0.74999999  1
  Os  Os2  1  0.51767599  0.50200501  0.25000000  1
  Re  Re3  1  0.48232399  0.49799501  0.74999999  1
  Ni  Ni4  1  0.49999999  0.00000000  0.00000000  1
  Sc  Sc5  1  0.00000000  0.50000001  0.49999999  1
  Cl  Cl6  1  0.00000000  0.50000001  0.00000000  1
  Ir  Ir7  1  0.49999999  0.00000000  0.49999999  1
  Pr  Pr8  1  0.72735698  0.27073400  0.96952098  1
  Re  Re9  1  0.77264298  0.77073401  0.46952099  1
  Au  Au10  1  0.77264298  0.77073401  0.03047900  1
  W  W11  1  0.72735698  0.27073400  0.53047899  1
  Zn  Zn12  1  0.22735699  0.22926600  0.96952098  1
  Ho  Ho13  1  0.27264299  0.72926601  0.46952099  1
  In  In14  1  0.00510500  0.55866101  0.74999999  1
  Eu  Eu15  1  0.99489498  0.44133901  0.25000000  1
  Os  Os16  1  0.49489499  0.05866100  0.25000000  1
  B  B17  1  0.27264299  0.72926601  0.03047900  1
  Nd  Nd18  1  0.22735699  0.22926600  0.53047899  1
  Mg  Mg19  1  0.50510499  0.94133902  0.74999999  1
