# generated using pymatgen
data_HfHeKNaCaPrEuErBeCdRhSeF
_symmetry_space_group_name_H-M   'P 1'
_cell_length_a   7.49635029
_cell_length_b   7.49635029
_cell_length_c   7.49635029
_cell_angle_alpha   60.00000000
_cell_angle_beta   60.00000000
_cell_angle_gamma   60.00000000
_symmetry_Int_Tables_number   1
_chemical_formula_structural   HfHeKNaCaPrEuErBeCdRhSeF
_chemical_formula_sum
'Hf1 He1 K1 Na1 Ca1 Pr1 Eu1 Er1 Be1 Cd1 Rh1 Se1 F1'
_cell_volume   297.87538603
_cell_formula_units_Z   1
loop_
 _symmetry_equiv_pos_site_id
 _symmetry_equiv_pos_as_xyz
  1  'x, y, z'
loop_
 _atom_site_type_symbol
 _atom_site_label
 _atom_site_symmetry_multiplicity
 _atom_site_fract_x
 _atom_site_fract_y
 _atom_site_fract_z
 _atom_site_occupancy
  Hf  Hf0  1  0.49999999  0.49999999  0.49999999  1
  He  He1  1  0.36449699  0.87850098  0.87850098  1
  Cd  Cd2  1  0.87849998  0.87850098  0.87850098  1
  Ca  Ca3  1  0.87849998  0.87850098  0.36449799  1
  Er  Er4  1  0.87849998  0.36449799  0.87850098  1
  Eu  Eu5  1  0.62707399  0.62707299  0.62707299  1
  K  K6  1  0.62707399  0.11878000  0.62707299  1
  Pr  Pr7  1  0.62707399  0.62707299  0.11878000  1
  Na  Na8  1  0.62832699  0.12389100  0.12389100  1
  Rh  Rh9  1  0.11878100  0.62707299  0.62707299  1
  F  F10  1  0.12389000  0.12389100  0.12389100  1
  Be  Be11  1  0.12389000  0.12389100  0.62832799  1
  Se  Se12  1  0.12389000  0.62832799  0.12389100  1
