# generated using pymatgen
data_BaLiCeErTmTc
_symmetry_space_group_name_H-M   'P 1'
_cell_length_a   4.10625696
_cell_length_b   4.10625696
_cell_length_c   7.89828587
_cell_angle_alpha   90.00000000
_cell_angle_beta   90.00000000
_cell_angle_gamma   90.00000000
_symmetry_Int_Tables_number   1
_chemical_formula_structural   BaLiCeErTmTc
_chemical_formula_sum   'Ba1 Li1 Ce1 Er1 Tm1 Tc1'
_cell_volume   133.17573266
_cell_formula_units_Z   1
loop_
 _symmetry_equiv_pos_site_id
 _symmetry_equiv_pos_as_xyz
  1  'x, y, z'
loop_
 _atom_site_type_symbol
 _atom_site_label
 _atom_site_symmetry_multiplicity
 _atom_site_fract_x
 _atom_site_fract_y
 _atom_site_fract_z
 _atom_site_occupancy
  Ba  Ba0  1  0.00000000  0.50000000  0.81165501  1
  Ce  Ce1  1  0.50000000  0.00000000  0.18834500  1
  Tc  Tc2  1  0.50000000  0.00000000  0.65311301  1
  Tm  Tm3  1  0.00000000  0.50000000  0.34688701  1
  Er  Er4  1  0.50000000  0.50000000  0.00000000  1
  Li  Li5  1  0.00000000  0.00000000  0.00000000  1
