# generated using pymatgen
data_SmMgMnReSO
_symmetry_space_group_name_H-M   'P 1'
_cell_length_a   3.46562409
_cell_length_b   5.61844683
_cell_length_c   8.94161510
_cell_angle_alpha   90.00000000
_cell_angle_beta   101.17415619
_cell_angle_gamma   90.00000000
_symmetry_Int_Tables_number   1
_chemical_formula_structural   SmMgMnReSO
_chemical_formula_sum   'Sm1 Mg1 Mn1 Re1 S1 O1'
_cell_volume   170.80539999
_cell_formula_units_Z   1
loop_
 _symmetry_equiv_pos_site_id
 _symmetry_equiv_pos_as_xyz
  1  'x, y, z'
loop_
 _atom_site_type_symbol
 _atom_site_label
 _atom_site_symmetry_multiplicity
 _atom_site_fract_x
 _atom_site_fract_y
 _atom_site_fract_z
 _atom_site_occupancy
  Mg  Mg0  1  0.10818400  0.25000001  0.21636800  1
  S  S1  1  0.89181598  0.75000002  0.78363201  1
  Mn  Mn2  1  0.44200299  0.25000001  0.88400601  1
  Sm  Sm3  1  0.78029398  0.25000001  0.56058801  1
  O  O4  1  0.21970600  0.75000002  0.43941200  1
  Re  Re5  1  0.55799699  0.75000002  0.11599401  1
