# generated using pymatgen
data_LaSmHfThMgMnTlGaSiTc3SbSIF
_symmetry_space_group_name_H-M   'P 1'
_cell_length_a   8.87535572
_cell_length_b   10.09628105
_cell_length_c   8.87535572
_cell_angle_alpha   63.92572403
_cell_angle_beta   90.00000000
_cell_angle_gamma   116.07427216
_symmetry_Int_Tables_number   1
_chemical_formula_structural   LaSmHfThMgMnTlGaSiTc3SbSIF
_chemical_formula_sum
'La1 Sm1 Hf1 Th1 Mg1 Mn1 Tl1 Ga1 Si1 Tc3 Sb1 S1 I1 F1'
_cell_volume   622.99051808
_cell_formula_units_Z   1
loop_
 _symmetry_equiv_pos_site_id
 _symmetry_equiv_pos_as_xyz
  1  'x, y, z'
loop_
 _atom_site_type_symbol
 _atom_site_label
 _atom_site_symmetry_multiplicity
 _atom_site_fract_x
 _atom_site_fract_y
 _atom_site_fract_z
 _atom_site_occupancy
  Si  Si0  1  0.24999998  0.49999998  0.75000001  1
  Hf  Hf1  1  0.75000000  0.49999998  0.25000000  1
  Th  Th2  1  0.66680102  0.00000000  0.16680101  1
  I  I3  1  0.33319901  0.00000000  0.83319903  1
  Tc  Tc4  1  0.16680096  0.99999995  0.33319899  1
  S  S5  1  0.83319898  0.99999995  0.66680100  1
  F  F6  1  0.00000000  0.00000000  0.00000000  1
  Mg  Mg7  1  0.50000002  0.00000000  0.50000002  1
  Tc  Tc8  1  0.29716100  0.27274199  0.52441901  1
  Sm  Sm9  1  0.70283899  0.72725797  0.47558100  1
  Ga  Ga10  1  0.97558102  0.27274199  0.20283900  1
  Tl  Tl11  1  0.79716101  0.27274199  0.70283902  1
  La  La12  1  0.52441898  0.72725797  0.97558102  1
  Mn  Mn13  1  0.02441896  0.72725797  0.79716101  1
  Tc  Tc14  1  0.20283897  0.72725797  0.29716100  1
  Sb  Sb15  1  0.47558100  0.27274199  0.02441900  1
