# generated using pymatgen
data_NeLaNdNpUAlCdGaCo3AgHgBMoH2WCI
_symmetry_space_group_name_H-M   'P 1'
_cell_length_a   3.96835208
_cell_length_b   3.96835208
_cell_length_c   15.87641525
_cell_angle_alpha   90.00000000
_cell_angle_beta   90.00000000
_cell_angle_gamma   90.00000000
_symmetry_Int_Tables_number   1
_chemical_formula_structural   NeLaNdNpUAlCdGaCo3AgHgBMoH2WCI
_chemical_formula_sum
'Ne1 La1 Nd1 Np1 U1 Al1 Cd1 Ga1 Co3 Ag1 Hg1 B1 Mo1 H2 W1 C1 I1'
_cell_volume   250.01890148
_cell_formula_units_Z   1
loop_
 _symmetry_equiv_pos_site_id
 _symmetry_equiv_pos_as_xyz
  1  'x, y, z'
loop_
 _atom_site_type_symbol
 _atom_site_label
 _atom_site_symmetry_multiplicity
 _atom_site_fract_x
 _atom_site_fract_y
 _atom_site_fract_z
 _atom_site_occupancy
  Ne  Ne0  1  0.00000000  0.00000000  0.00000000  1
  H  H1  1  0.00000000  0.00000000  0.25092000  1
  C  C2  1  0.00000000  0.00000000  0.49999999  1
  Al  Al3  1  0.00000000  0.00000000  0.74907999  1
  B  B4  1  0.49999999  0.49999999  0.12817500  1
  Hg  Hg5  1  0.49999999  0.49999999  0.37543899  1
  Mo  Mo6  1  0.49999999  0.49999999  0.62456099  1
  La  La7  1  0.49999999  0.49999999  0.87182499  1
  Np  Np8  1  -0.00000000  0.49999999  0.12973800  1
  Co  Co9  1  -0.00000000  0.49999999  0.37519199  1
  Cd  Cd10  1  -0.00000000  0.49999999  0.62480799  1
  H  H11  1  -0.00000000  0.49999999  0.87026199  1
  U  U12  1  0.49999999  0.49999999  0.00000000  1
  W  W13  1  0.49999999  0.49999999  0.25143300  1
  Co  Co14  1  0.49999999  0.49999999  0.49999999  1
  Ag  Ag15  1  0.49999999  0.49999999  0.74856699  1
  I  I16  1  0.49999999  0.00000000  0.12973800  1
  Ga  Ga17  1  0.49999999  0.00000000  0.37519199  1
  Co  Co18  1  0.49999999  0.00000000  0.62480799  1
  Nd  Nd19  1  0.49999999  0.00000000  0.87026199  1
