# generated using pymatgen
data_BaLaCeTmZnBAsNe
_symmetry_space_group_name_H-M   'P 1'
_cell_length_a   5.93877602
_cell_length_b   5.93877602
_cell_length_c   5.93877602
_cell_angle_alpha   90.00000000
_cell_angle_beta   90.00000000
_cell_angle_gamma   90.00000000
_symmetry_Int_Tables_number   1
_chemical_formula_structural   BaLaCeTmZnBAsNe
_chemical_formula_sum   'Ba1 La1 Ce1 Tm1 Zn1 B1 As1 Ne1'
_cell_volume   209.45505103
_cell_formula_units_Z   1
loop_
 _symmetry_equiv_pos_site_id
 _symmetry_equiv_pos_as_xyz
  1  'x, y, z'
loop_
 _atom_site_type_symbol
 _atom_site_label
 _atom_site_symmetry_multiplicity
 _atom_site_fract_x
 _atom_site_fract_y
 _atom_site_fract_z
 _atom_site_occupancy
  Ce  Ce0  1  0.00000000  0.00000000  0.50000000  1
  Tm  Tm1  1  0.00000000  0.50000000  0.00000000  1
  B  B2  1  0.50000000  0.00000000  0.00000000  1
  Ba  Ba3  1  0.00000000  0.00000000  0.00000000  1
  As  As4  1  0.20743700  0.20743700  0.20743700  1
  Zn  Zn5  1  0.20743700  0.79256300  0.79256300  1
  Ne  Ne6  1  0.79256300  0.20743700  0.79256300  1
  La  La7  1  0.79256300  0.79256300  0.20743700  1
