# generated using pymatgen
data_YHoTmPu2HfCoSiAgP2WHeBr
_symmetry_space_group_name_H-M   'P 1'
_cell_length_a   4.22378492
_cell_length_b   4.31006384
_cell_length_c   15.26939774
_cell_angle_alpha   90.00000000
_cell_angle_beta   90.00000000
_cell_angle_gamma   90.00000000
_symmetry_Int_Tables_number   1
_chemical_formula_structural   YHoTmPu2HfCoSiAgP2WHeBr
_chemical_formula_sum
'Y1 Ho1 Tm1 Pu2 Hf1 Co1 Si1 Ag1 P2 W1 He1 Br1'
_cell_volume   277.97606716
_cell_formula_units_Z   1
loop_
 _symmetry_equiv_pos_site_id
 _symmetry_equiv_pos_as_xyz
  1  'x, y, z'
loop_
 _atom_site_type_symbol
 _atom_site_label
 _atom_site_symmetry_multiplicity
 _atom_site_fract_x
 _atom_site_fract_y
 _atom_site_fract_z
 _atom_site_occupancy
  Tm  Tm0  1  0.00000000  0.50000002  0.50000001  1
  W  W1  1  0.00000000  0.00000000  0.24573600  1
  Pu  Pu2  1  0.00000000  0.00000000  0.75426401  1
  Pu  Pu3  1  0.50000001  0.50000002  0.18461500  1
  Ho  Ho4  1  0.50000001  0.50000002  0.81538501  1
  Y  Y5  1  0.50000001  0.50000002  0.34190001  1
  Si  Si6  1  0.50000001  0.50000002  0.65810001  1
  Hf  Hf7  1  0.50000001  0.00000000  0.41924401  1
  P  P8  1  0.50000001  0.00000000  0.58075601  1
  Co  Co9  1  0.50000001  0.00000000  0.08501600  1
  Ag  Ag10  1  0.50000001  0.00000000  0.91498402  1
  He  He11  1  0.00000000  0.50000002  0.08418900  1
  P  P12  1  0.00000000  0.50000002  0.91581102  1
  Br  Br13  1  0.00000000  0.00000000  0.00000000  1
