# generated using pymatgen
data_NaCa2TmTlNiGePCBr
_symmetry_space_group_name_H-M   'P 1'
_cell_length_a   6.08224201
_cell_length_b   6.08224201
_cell_length_c   6.08224201
_cell_angle_alpha   60.00000000
_cell_angle_beta   60.00000000
_cell_angle_gamma   60.00000000
_symmetry_Int_Tables_number   1
_chemical_formula_structural   NaCa2TmTlNiGePCBr
_chemical_formula_sum   'Na1 Ca2 Tm1 Tl1 Ni1 Ge1 P1 C1 Br1'
_cell_volume   159.10216605
_cell_formula_units_Z   1
loop_
 _symmetry_equiv_pos_site_id
 _symmetry_equiv_pos_as_xyz
  1  'x, y, z'
loop_
 _atom_site_type_symbol
 _atom_site_label
 _atom_site_symmetry_multiplicity
 _atom_site_fract_x
 _atom_site_fract_y
 _atom_site_fract_z
 _atom_site_occupancy
  P  P0  1  0.74999998  0.75000003  0.74999996  1
  Ge  Ge1  1  0.24999999  0.25000001  0.24999999  1
  C  C2  1  0.49999999  0.50000002  0.49999997  1
  Br  Br3  1  0.00000000  0.00000000  0.00000000  1
  Na  Na4  1  0.22859299  0.77140703  0.77140697  1
  Ca  Ca5  1  0.77140698  0.77140703  0.22859297  1
  Ca  Ca6  1  0.77140699  0.22859301  0.22859298  1
  Ni  Ni7  1  0.22859299  0.77140703  0.22859298  1
  Tl  Tl8  1  0.77140699  0.22859301  0.77140697  1
  Tm  Tm9  1  0.22859300  0.22859301  0.77140698  1
