# generated using pymatgen
data_HeYbDyTlFeOsAuCCl
_symmetry_space_group_name_H-M   'P 1'
_cell_length_a   5.11290407
_cell_length_b   5.31635809
_cell_length_c   5.31635809
_cell_angle_alpha   120.00000000
_cell_angle_beta   90.00000000
_cell_angle_gamma   90.00000000
_symmetry_Int_Tables_number   1
_chemical_formula_structural   HeYbDyTlFeOsAuCCl
_chemical_formula_sum   'He1 Yb1 Dy1 Tl1 Fe1 Os1 Au1 C1 Cl1'
_cell_volume   125.14881092
_cell_formula_units_Z   1
loop_
 _symmetry_equiv_pos_site_id
 _symmetry_equiv_pos_as_xyz
  1  'x, y, z'
loop_
 _atom_site_type_symbol
 _atom_site_label
 _atom_site_symmetry_multiplicity
 _atom_site_fract_x
 _atom_site_fract_y
 _atom_site_fract_z
 _atom_site_occupancy
  He  He0  1  0.00000000  0.00000000  0.00000000  1
  Yb  Yb1  1  0.49999999  0.66666665  0.33333332  1
  Dy  Dy2  1  0.49999999  0.33333333  0.66666664  1
  Tl  Tl3  1  0.28279300  0.63177899  0.99999996  1
  Au  Au4  1  0.28279300  0.36822099  0.36822099  1
  C  C5  1  0.28279300  0.99999998  0.63177897  1
  Fe  Fe6  1  0.71720699  0.63177899  0.63177898  1
  Cl  Cl7  1  0.71720699  0.99999998  0.36822098  1
  Os  Os8  1  0.71720699  0.36822099  0.99999997  1
