# generated using pymatgen
data_BaSrPmMgTcAgTeIr(KrF)2
_symmetry_space_group_name_H-M   'P 1'
_cell_length_a   3.87877297
_cell_length_b   6.02516890
_cell_length_c   9.94579315
_cell_angle_alpha   90.00000000
_cell_angle_beta   90.00000000
_cell_angle_gamma   90.00000000
_symmetry_Int_Tables_number   1
_chemical_formula_structural   BaSrPmMgTcAgTeIr(KrF)2
_chemical_formula_sum   'Ba1 Sr1 Pm1 Mg1 Tc1 Ag1 Te1 Ir1 Kr2 F2'
_cell_volume   232.43579451
_cell_formula_units_Z   1
loop_
 _symmetry_equiv_pos_site_id
 _symmetry_equiv_pos_as_xyz
  1  'x, y, z'
loop_
 _atom_site_type_symbol
 _atom_site_label
 _atom_site_symmetry_multiplicity
 _atom_site_fract_x
 _atom_site_fract_y
 _atom_site_fract_z
 _atom_site_occupancy
  Ba  Ba0  1  0.25000000  0.48263501  0.66092999  1
  Kr  Kr1  1  0.25000000  0.01736500  0.16093000  1
  Sr  Sr2  1  0.75000001  0.51736501  0.33906999  1
  Ag  Ag3  1  0.75000001  0.98263502  0.83906999  1
  Mg  Mg4  1  0.25000000  0.92136802  0.52846899  1
  F  F5  1  0.25000000  0.57863201  0.02846900  1
  Ir  Ir6  1  0.75000001  0.07863200  0.47153099  1
  Te  Te7  1  0.75000001  0.42136801  0.97153099  1
  Pm  Pm8  1  0.25000000  0.27769400  0.92531399  1
  F  F9  1  0.25000000  0.22230600  0.42531399  1
  Tc  Tc10  1  0.75000001  0.72230601  0.07468600  1
  Kr  Kr11  1  0.75000001  0.77769401  0.57468599  1
