# generated using pymatgen
data_RbSrYbPmSm2TmNe2ThUMnInGaBiPOsI
_symmetry_space_group_name_H-M   'P 1'
_cell_length_a   6.03626728
_cell_length_b   6.03626728
_cell_length_c   10.67514324
_cell_angle_alpha   98.08169556
_cell_angle_beta   98.08169556
_cell_angle_gamma   91.33126068
_symmetry_Int_Tables_number   1
_chemical_formula_structural   RbSrYbPmSm2TmNe2ThUMnInGaBiPOsI
_chemical_formula_sum
'Rb1 Sr1 Yb1 Pm1 Sm2 Tm1 Ne2 Th1 U1 Mn1 In1 Ga1 Bi1 P1 Os1 I1'
_cell_volume   380.91057133
_cell_formula_units_Z   1
loop_
 _symmetry_equiv_pos_site_id
 _symmetry_equiv_pos_as_xyz
  1  'x, y, z'
loop_
 _atom_site_type_symbol
 _atom_site_label
 _atom_site_symmetry_multiplicity
 _atom_site_fract_x
 _atom_site_fract_y
 _atom_site_fract_z
 _atom_site_occupancy
  Rb  Rb0  1  0.16378698  0.66638800  0.66356698  1
  Tm  Tm1  1  0.66638800  0.16378700  0.66356698  1
  Sm  Sm2  1  0.83621299  0.33361200  0.33643299  1
  Yb  Yb3  1  0.33361198  0.83621300  0.33643299  1
  Ne  Ne4  1  0.19962199  0.19962200  0.80136498  1
  Pm  Pm5  1  0.80037798  0.80037800  0.19863499  1
  P  P6  1  0.85283098  0.85283100  0.43778099  1
  Th  Th7  1  0.14716900  0.14716900  0.56221898  1
  Ga  Ga8  1  0.63855798  0.63855800  0.58445798  1
  U  U9  1  0.36144199  0.36144200  0.41554199  1
  Ne  Ne10  1  0.93499099  0.50577800  0.88392797  1
  Mn  Mn11  1  0.50577797  0.93499100  0.88392797  1
  I  I12  1  0.06500899  0.49422200  0.11607200  1
  Os  Os13  1  0.49422200  0.06500900  0.11607200  1
  Sr  Sr14  1  0.93274298  0.93274300  0.88394097  1
  Sm  Sm15  1  0.06725700  0.06725700  0.11605900  1
  In  In16  1  0.50817299  0.50817300  0.88362897  1
  Bi  Bi17  1  0.49182699  0.49182700  0.11637100  1
