# generated using pymatgen
data_KLaHo2TmUNbVFeSnBMoCSINClO
_symmetry_space_group_name_H-M   'P 1'
_cell_length_a   5.57471943
_cell_length_b   5.57471943
_cell_length_c   7.86550379
_cell_angle_alpha   90.00000000
_cell_angle_beta   90.00000000
_cell_angle_gamma   90.70603943
_symmetry_Int_Tables_number   1
_chemical_formula_structural   KLaHo2TmUNbVFeSnBMoCSINClO
_chemical_formula_sum
'K1 La1 Ho2 Tm1 U1 Nb1 V1 Fe1 Sn1 B1 Mo1 C1 S1 I1 N1 Cl1 O1'
_cell_volume   244.42160932
_cell_formula_units_Z   1
loop_
 _symmetry_equiv_pos_site_id
 _symmetry_equiv_pos_as_xyz
  1  'x, y, z'
loop_
 _atom_site_type_symbol
 _atom_site_label
 _atom_site_symmetry_multiplicity
 _atom_site_fract_x
 _atom_site_fract_y
 _atom_site_fract_z
 _atom_site_occupancy
  O  O0  1  0.98151846  0.01848153  0.49999999  1
  U  U1  1  0.51437115  0.48562882  -0.00000000  1
  Ho  Ho2  1  0.00098421  0.50073167  0.74734999  1
  N  N3  1  0.00098421  0.50073167  0.25264998  1
  I  I4  1  0.49926829  0.99901577  0.25264998  1
  S  S5  1  0.49926829  0.99901577  0.74734999  1
  Ho  Ho6  1  0.21828853  0.21934733  0.75657395  1
  K  K7  1  0.78065264  0.78171145  0.75657395  1
  Fe  Fe8  1  0.78065264  0.78171145  0.24342603  1
  Mo  Mo9  1  0.21828853  0.21934733  0.24342603  1
  Sn  Sn10  1  0.70754692  0.29245307  0.72028916  1
  Cl  Cl11  1  0.28997410  0.71002587  0.78828473  1
  Tm  Tm12  1  0.28997410  0.71002587  0.21171525  1
  B  B13  1  0.70754692  0.29245307  0.27971082  1
  V  V14  1  0.95757367  0.46397401  -0.00000000  1
  La  La15  1  0.04379527  0.53561418  0.49999999  1
  C  C16  1  0.53602597  0.04242631  -0.00000000  1
  Nb  Nb17  1  0.46438578  0.95620471  0.49999999  1
