# generated using pymatgen
data_SmTlVFeAgHg2AsIrOs
_symmetry_space_group_name_H-M   'P 1'
_cell_length_a   5.69320393
_cell_length_b   5.69320393
_cell_length_c   5.69320393
_cell_angle_alpha   60.00000000
_cell_angle_beta   60.00000000
_cell_angle_gamma   60.00000000
_symmetry_Int_Tables_number   1
_chemical_formula_structural   SmTlVFeAgHg2AsIrOs
_chemical_formula_sum   'Sm1 Tl1 V1 Fe1 Ag1 Hg2 As1 Ir1 Os1'
_cell_volume   130.48338742
_cell_formula_units_Z   1
loop_
 _symmetry_equiv_pos_site_id
 _symmetry_equiv_pos_as_xyz
  1  'x, y, z'
loop_
 _atom_site_type_symbol
 _atom_site_label
 _atom_site_symmetry_multiplicity
 _atom_site_fract_x
 _atom_site_fract_y
 _atom_site_fract_z
 _atom_site_occupancy
  Tl  Tl0  1  0.74999998  0.74999998  0.74999998  1
  Hg  Hg1  1  0.24999999  0.24999999  0.24999999  1
  Ir  Ir2  1  0.49999999  0.49999999  0.49999999  1
  Hg  Hg3  1  0.00000000  0.00000000  0.00000000  1
  V  V4  1  0.24109099  0.75890898  0.24109099  1
  Fe  Fe5  1  0.75890898  0.24109099  0.75890898  1
  Sm  Sm6  1  0.24109099  0.75890898  0.75890898  1
  As  As7  1  0.75890898  0.24109099  0.24109099  1
  Os  Os8  1  0.24109099  0.24109099  0.75890898  1
  Ag  Ag9  1  0.75890898  0.75890898  0.24109099  1
