# generated using pymatgen
data_BaPmNe2LaMgUSiAgSbOsPd
_symmetry_space_group_name_H-M   'P 1'
_cell_length_a   3.88809991
_cell_length_b   3.92681289
_cell_length_c   17.36956978
_cell_angle_alpha   90.00000000
_cell_angle_beta   90.00000000
_cell_angle_gamma   90.00000000
_symmetry_Int_Tables_number   1
_chemical_formula_structural   BaPmNe2LaMgUSiAgSbOsPd
_chemical_formula_sum   'Ba1 Pm1 Ne2 La1 Mg1 U1 Si1 Ag1 Sb1 Pd1 Os1'
_cell_volume   265.19582664
_cell_formula_units_Z   1
loop_
 _symmetry_equiv_pos_site_id
 _symmetry_equiv_pos_as_xyz
  1  'x, y, z'
loop_
 _atom_site_type_symbol
 _atom_site_label
 _atom_site_symmetry_multiplicity
 _atom_site_fract_x
 _atom_site_fract_y
 _atom_site_fract_z
 _atom_site_occupancy
  Pm  Pm0  1  0.25000001  0.24522001  0.85403596  1
  Ba  Ba1  1  0.75000002  0.74522002  0.64596397  1
  Ne  Ne2  1  0.75000002  0.75478002  0.14596399  1
  Pd  Pd3  1  0.25000001  0.25478001  0.35403598  1
  Ag  Ag4  1  0.25000001  0.78181702  0.49893398  1
  Sb  Sb5  1  0.75000002  0.21818301  0.50106598  1
  Os  Os6  1  0.25000001  0.71818302  0.99893396  1
  Si  Si7  1  0.75000002  0.28181701  0.00106600  1
  Ne  Ne8  1  0.25000001  0.24898901  0.68658497  1
  U  U9  1  0.25000001  0.25101101  0.18658499  1
  Mg  Mg10  1  0.75000002  0.75101102  0.31341499  1
  La  La11  1  0.75000002  0.74898902  0.81341496  1
