# generated using pymatgen
data_Rb2TbPrNdEuYTmLuScBe3ZnCdHgSNeIr
_symmetry_space_group_name_H-M   'P 1'
_cell_length_a   7.50358200
_cell_length_b   7.56466436
_cell_length_c   7.57725525
_cell_angle_alpha   119.69903564
_cell_angle_beta   90.00000000
_cell_angle_gamma   119.73324585
_symmetry_Int_Tables_number   1
_chemical_formula_structural   Rb2TbPrNdEuYTmLuScBe3ZnCdHgSNeIr
_chemical_formula_sum
'Rb2 Tb1 Pr1 Nd1 Eu1 Y1 Tm1 Lu1 Sc1 Be3 Zn1 Cd1 Hg1 S1 Ne1 Ir1'
_cell_volume   306.71832750
_cell_formula_units_Z   1
loop_
 _symmetry_equiv_pos_site_id
 _symmetry_equiv_pos_as_xyz
  1  'x, y, z'
loop_
 _atom_site_type_symbol
 _atom_site_label
 _atom_site_symmetry_multiplicity
 _atom_site_fract_x
 _atom_site_fract_y
 _atom_site_fract_z
 _atom_site_occupancy
  Be  Be0  1  0.50341998  0.50839401  0.98632599  1
  Y  Y1  1  0.00497398  0.50839401  0.98632599  1
  Cd  Cd2  1  0.50199000  0.00398000  0.51471299  1
  Zn  Zn3  1  0.50348000  0.00696000  0.01338600  1
  Hg  Hg4  1  0.98840198  0.50637401  0.43117100  1
  Tm  Tm5  1  0.51797198  0.50637401  0.43117100  1
  Rb  Rb6  1  0.57439897  0.76684101  0.95405800  1
  Nd  Nd7  1  0.17507697  0.72892001  0.33495601  1
  Tb  Tb8  1  0.19244197  0.76684101  0.95405800  1
  Pr  Pr9  1  0.55384297  0.72892001  0.33495601  1
  S  S10  1  0.20200198  0.40400400  0.96375399  1
  Ne  Ne11  1  0.56070499  0.12141000  0.32424900  1
  Rb  Rb12  1  0.44807199  0.27061200  0.10399000  1
  Sc  Sc13  1  0.80879099  0.24787300  0.69718699  1
  Be  Be14  1  0.82253999  0.27061200  0.10399000  1
  Ir  Ir15  1  0.43908199  0.24787300  0.69718699  1
  Lu  Lu16  1  0.80319398  0.60638801  0.06034601  1
  Eu  Eu17  1  0.44362097  0.88724201  0.70845200  1
  Be  Be18  1  0.83099597  0.66199201  0.52472200  1
