# generated using pymatgen
data_HePmSmNpTlZnBPKrCl
_symmetry_space_group_name_H-M   'P 1'
_cell_length_a   9.14944267
_cell_length_b   9.14944267
_cell_length_c   9.14944267
_cell_angle_alpha   60.00000000
_cell_angle_beta   60.00000000
_cell_angle_gamma   60.00000000
_symmetry_Int_Tables_number   1
_chemical_formula_structural   HePmSmNpTlZnBPKrCl
_chemical_formula_sum   'He1 Pm1 Sm1 Np1 Tl1 Zn1 B1 P1 Kr1 Cl1'
_cell_volume   541.58786297
_cell_formula_units_Z   1
loop_
 _symmetry_equiv_pos_site_id
 _symmetry_equiv_pos_as_xyz
  1  'x, y, z'
loop_
 _atom_site_type_symbol
 _atom_site_label
 _atom_site_symmetry_multiplicity
 _atom_site_fract_x
 _atom_site_fract_y
 _atom_site_fract_z
 _atom_site_occupancy
  He  He0  1  0.25000000  0.25000000  0.25000000  1
  Pm  Pm1  1  0.75000000  0.75000000  0.75000000  1
  Sm  Sm2  1  0.50000000  0.50000000  0.50000000  1
  Kr  Kr3  1  0.00000000  0.00000000  0.00000000  1
  B  B4  1  0.23831100  0.76168900  0.23831100  1
  P  P5  1  0.23831100  0.23831100  0.76168900  1
  Cl  Cl6  1  0.76168900  0.23831100  0.76168900  1
  Np  Np7  1  0.23831100  0.76168900  0.76168900  1
  Tl  Tl8  1  0.76168900  0.23831100  0.23831100  1
  Zn  Zn9  1  0.76168900  0.76168900  0.23831100  1
