# generated using pymatgen
data_CsKCeEuDyHoErPaTiGaHgBMoIrOsPdXeClOHe
_symmetry_space_group_name_H-M   'P 1'
_cell_length_a   5.02398968
_cell_length_b   6.43935013
_cell_length_c   7.83243322
_cell_angle_alpha   89.99295044
_cell_angle_beta   89.99364471
_cell_angle_gamma   68.98462677
_symmetry_Int_Tables_number   1
_chemical_formula_structural   CsKCeEuDyHoErPaTiGaHgBMoIrOsPdXeClOHe
_chemical_formula_sum
;
Cs1 K1 Ce1 Eu1 Dy1 Ho1 Er1 Pa1 Ti1 Ga1 Hg1 B1 Mo1 Pd1 Os1 Ir1 Xe1 Cl1
O1 He1
;
_cell_volume   236.53448349
_cell_formula_units_Z   1
loop_
 _symmetry_equiv_pos_site_id
 _symmetry_equiv_pos_as_xyz
  1  'x, y, z'
loop_
 _atom_site_type_symbol
 _atom_site_label
 _atom_site_symmetry_multiplicity
 _atom_site_fract_x
 _atom_site_fract_y
 _atom_site_fract_z
 _atom_site_occupancy
  Pd  Pd0  1  0.64679296  0.61704903  0.94761699  1
  Pa  Pa1  1  0.35295993  0.88277705  0.44762102  1
  Xe  Xe2  1  0.00384196  0.49020103  0.49608301  1
  Ti  Ti3  1  0.99610102  0.00989600  0.99611895  1
  Dy  Dy4  1  0.12578399  0.13632001  0.73491698  1
  Os  Os5  1  0.87446198  0.36366902  0.23487499  1
  Cs  Cs6  1  0.13715895  0.64605603  0.75521101  1
  Cl  Cl7  1  0.86269794  0.85395804  0.25518601  1
  Ir  Ir8  1  0.28632700  0.10360101  0.86845597  1
  O  O9  1  0.71384498  0.39635702  0.36843499  1
  Er  Er10  1  0.20773599  0.18003301  0.58584999  1
  Ga  Ga11  1  0.79249499  0.31998302  0.08583799  1
  Eu  Eu12  1  0.11915897  0.38735202  0.25697301  1
  He  He13  1  0.88098500  0.11267201  0.75699296  1
  Ce  Ce14  1  0.27875795  0.62208303  0.61324801  1
  Ho  Ho15  1  0.72100594  0.87807705  0.11322902  1
  K  K16  1  0.22609394  0.70405904  0.89565701  1
  B  B17  1  0.77380195  0.79600704  0.39566101  1
  Hg  Hg18  1  0.09660293  0.89800405  0.24711504  1
  Mo  Mo19  1  0.90338896  0.60184703  0.74719798  1
