# generated using pymatgen
data_KLiLaTbZrV(OsRu)2
_symmetry_space_group_name_H-M   'P 1'
_cell_length_a   8.57594776
_cell_length_b   8.57594776
_cell_length_c   8.57594776
_cell_angle_alpha   60.00000000
_cell_angle_beta   60.00000000
_cell_angle_gamma   60.00000000
_symmetry_Int_Tables_number   1
_chemical_formula_structural   KLiLaTbZrV(OsRu)2
_chemical_formula_sum   'K1 Li1 La1 Tb1 Zr1 V1 Ru2 Os2'
_cell_volume   445.99643064
_cell_formula_units_Z   1
loop_
 _symmetry_equiv_pos_site_id
 _symmetry_equiv_pos_as_xyz
  1  'x, y, z'
loop_
 _atom_site_type_symbol
 _atom_site_label
 _atom_site_symmetry_multiplicity
 _atom_site_fract_x
 _atom_site_fract_y
 _atom_site_fract_z
 _atom_site_occupancy
  V  V0  1  0.25000001  0.25000001  0.25000001  1
  K  K1  1  0.75000002  0.75000002  0.75000002  1
  Ru  Ru2  1  0.50000002  0.50000002  0.50000002  1
  Zr  Zr3  1  0.00000000  0.00000000  0.00000000  1
  Li  Li4  1  0.25389901  0.74610102  0.25389901  1
  La  La5  1  0.25389901  0.25389901  0.74610102  1
  Ru  Ru6  1  0.74610102  0.25389901  0.74610102  1
  Tb  Tb7  1  0.25389901  0.74610102  0.74610102  1
  Os  Os8  1  0.74610102  0.25389901  0.25389901  1
  Os  Os9  1  0.74610102  0.74610102  0.25389901  1
