# generated using pymatgen
data_BaLiCaPmPr2SmGdTmPuHfZrMnTlZnTePdXeIHe
_symmetry_space_group_name_H-M   'P 1'
_cell_length_a   5.45967817
_cell_length_b   5.49600983
_cell_length_c   7.78899813
_cell_angle_alpha   90.00000000
_cell_angle_beta   90.00000000
_cell_angle_gamma   90.00000000
_symmetry_Int_Tables_number   1
_chemical_formula_structural   BaLiCaPmPr2SmGdTmPuHfZrMnTlZnTePdXeIHe
_chemical_formula_sum
;
Ba1 Li1 Ca1 Pm1 Pr2 Sm1 Gd1 Tm1 Pu1 Hf1 Zr1 Mn1 Tl1 Zn1 Te1 Pd1 Xe1 I1
He1
;
_cell_volume   233.72014304
_cell_formula_units_Z   1
loop_
 _symmetry_equiv_pos_site_id
 _symmetry_equiv_pos_as_xyz
  1  'x, y, z'
loop_
 _atom_site_type_symbol
 _atom_site_label
 _atom_site_symmetry_multiplicity
 _atom_site_fract_x
 _atom_site_fract_y
 _atom_site_fract_z
 _atom_site_occupancy
  Li  Li0  1  0.24639999  0.47171501  0.49999999  1
  Gd  Gd1  1  0.75359998  0.97171503  0.49999999  1
  Ba  Ba2  1  0.25712499  0.53929802  0.00000000  1
  Pd  Pd3  1  0.74287498  0.03929800  0.00000000  1
  Tl  Tl4  1  0.75090798  0.50014402  0.75211599  1
  Pm  Pm5  1  0.24909199  0.00014400  0.24788400  1
  Zn  Zn6  1  0.75090798  0.50014402  0.24788400  1
  I  I7  1  0.24909199  0.00014400  0.75211599  1
  Tm  Tm8  1  0.53636298  0.78625202  0.21119500  1
  Te  Te9  1  0.46363699  0.28625201  0.78880499  1
  Pr  Pr10  1  0.96046297  0.21015401  0.71939599  1
  Pr  Pr11  1  0.03953700  0.71015402  0.28060400  1
  Mn  Mn12  1  0.96046297  0.21015401  0.28060400  1
  Zr  Zr13  1  0.03953700  0.71015402  0.71939599  1
  Pu  Pu14  1  0.53636298  0.78625202  0.78880499  1
  Xe  Xe15  1  0.46363699  0.28625201  0.21119500  1
  He  He16  1  0.17915899  0.98679203  0.00000000  1
  Ca  Ca17  1  0.82084097  0.48679202  0.00000000  1
  Sm  Sm18  1  0.31119099  0.00909300  0.49999999  1
  Hf  Hf19  1  0.68880898  0.50909302  0.49999999  1
