# generated using pymatgen
data_LiCaTbPrSmMgZrPaBeInCoCuSnHgBiBCSICl
_symmetry_space_group_name_H-M   'P 1'
_cell_length_a   5.21557999
_cell_length_b   6.50422907
_cell_length_c   7.28392696
_cell_angle_alpha   90.00000000
_cell_angle_beta   90.00000000
_cell_angle_gamma   90.00000000
_symmetry_Int_Tables_number   1
_chemical_formula_structural   LiCaTbPrSmMgZrPaBeInCoCuSnHgBiBCSICl
_chemical_formula_sum
;
Li1 Ca1 Tb1 Pr1 Sm1 Mg1 Zr1 Pa1 Be1 In1 Co1 Cu1 Sn1 Hg1 Bi1 B1 C1 S1
I1 Cl1
;
_cell_volume   247.09503594
_cell_formula_units_Z   1
loop_
 _symmetry_equiv_pos_site_id
 _symmetry_equiv_pos_as_xyz
  1  'x, y, z'
loop_
 _atom_site_type_symbol
 _atom_site_label
 _atom_site_symmetry_multiplicity
 _atom_site_fract_x
 _atom_site_fract_y
 _atom_site_fract_z
 _atom_site_occupancy
  Pr  Pr0  1  0.50000000  0.01730000  0.70254900  1
  S  S1  1  0.50000000  0.98269999  0.20254900  1
  Mg  Mg2  1  0.00000000  0.63230299  0.50297900  1
  In  In3  1  0.00000000  0.36769700  0.00297900  1
  Be  Be4  1  0.50000000  0.53388599  0.17402600  1
  I  I5  1  0.00000000  0.91866799  0.91742500  1
  Tb  Tb6  1  0.50000000  0.46611400  0.67402600  1
  Sm  Sm7  1  0.00000000  0.08133200  0.41742500  1
  Co  Co8  1  0.50000000  0.35898900  0.08888600  1
  Zr  Zr9  1  0.50000000  0.64101099  0.58888600  1
  Li  Li10  1  0.78818000  0.98638099  0.45436300  1
  Sn  Sn11  1  0.71808600  0.37881700  0.71081300  1
  Pa  Pa12  1  0.71808600  0.62118299  0.21081300  1
  Cu  Cu13  1  0.21182000  0.98638099  0.45436300  1
  Cl  Cl14  1  0.00000000  0.73774199  0.83978500  1
  Hg  Hg15  1  0.21182000  0.01361900  0.95436300  1
  Ca  Ca16  1  0.28191400  0.37881700  0.71081300  1
  C  C17  1  0.28191400  0.62118299  0.21081300  1
  Bi  Bi18  1  0.00000000  0.26225800  0.33978500  1
  B  B19  1  0.78818000  0.01361900  0.95436300  1
