# generated using pymatgen
data_SrLiYbSmZrNbGeBSbMoPIrRuPbSXeHeNe
_symmetry_space_group_name_H-M   'P 1'
_cell_length_a   6.95031595
_cell_length_b   7.44735909
_cell_length_c   7.44735909
_cell_angle_alpha   60.13099289
_cell_angle_beta   62.18426514
_cell_angle_gamma   62.18426514
_symmetry_Int_Tables_number   1
_chemical_formula_structural   SrLiYbSmZrNbGeBSbMoPIrRuPbSXeHeNe
_chemical_formula_sum
'Sr1 Li1 Yb1 Sm1 Zr1 Nb1 Ge1 B1 Sb1 Mo1 P1 Ir1 Ru1 Pb1 S1 Xe1 He1 Ne1'
_cell_volume   281.52955456
_cell_formula_units_Z   1
loop_
 _symmetry_equiv_pos_site_id
 _symmetry_equiv_pos_as_xyz
  1  'x, y, z'
loop_
 _atom_site_type_symbol
 _atom_site_label
 _atom_site_symmetry_multiplicity
 _atom_site_fract_x
 _atom_site_fract_y
 _atom_site_fract_z
 _atom_site_occupancy
  Zr  Zr0  1  0.00000000  0.00000000  0.50000001  1
  Xe  Xe1  1  0.00000001  0.50000002  1.00000001  1
  Pb  Pb2  1  0.50000002  1.00000003  1.00000000  1
  Yb  Yb3  1  0.00000001  0.50000002  0.49999999  1
  B  B4  1  0.30902102  0.94847603  0.94847599  1
  Nb  Nb5  1  0.93948202  0.80727803  0.43560200  1
  Sb  Sb6  1  0.93948201  0.43560201  0.80727802  1
  Sm  Sm7  1  0.29402701  0.44847601  0.44847600  1
  P  P8  1  0.09158702  0.75000002  0.74999999  1
  He  He9  1  0.31763801  0.30727801  0.93560202  1
  Ne  Ne10  1  0.31763802  0.93560203  0.30727798  1
  Ir  Ir11  1  0.68236200  0.06439800  0.69272202  1
  Sr  Sr12  1  0.68236202  0.69272202  0.06439799  1
  S  S13  1  0.90841301  0.25000001  0.25000001  1
  Ru  Ru14  1  0.70597301  0.55152402  0.55152400  1
  Li  Li15  1  0.06051801  0.56439802  0.19272199  1
  Mo  Mo16  1  0.06051800  0.19272201  0.56439801  1
  Ge  Ge17  1  0.69097900  0.05152400  0.05152401  1
