# generated using pymatgen
data_SmTmBeAlFeCuTcGeNeSe
_symmetry_space_group_name_H-M   'P 1'
_cell_length_a   5.65433121
_cell_length_b   5.71564579
_cell_length_c   6.95597363
_cell_angle_alpha   114.25788879
_cell_angle_beta   90.00000000
_cell_angle_gamma   90.00000000
_symmetry_Int_Tables_number   1
_chemical_formula_structural   SmTmBeAlFeCuTcGeNeSe
_chemical_formula_sum   'Sm1 Tm1 Be1 Al1 Fe1 Cu1 Tc1 Ge1 Ne1 Se1'
_cell_volume   204.95524893
_cell_formula_units_Z   1
loop_
 _symmetry_equiv_pos_site_id
 _symmetry_equiv_pos_as_xyz
  1  'x, y, z'
loop_
 _atom_site_type_symbol
 _atom_site_label
 _atom_site_symmetry_multiplicity
 _atom_site_fract_x
 _atom_site_fract_y
 _atom_site_fract_z
 _atom_site_occupancy
  Sm  Sm0  1  0.24999999  0.08757100  0.17514199  1
  Ge  Ge1  1  0.74999997  0.91242901  0.82485794  1
  Fe  Fe2  1  0.24999999  0.39322900  0.78645796  1
  Cu  Cu3  1  0.74999997  0.60677101  0.21354196  1
  Tm  Tm4  1  0.24999999  0.74606601  0.49213195  1
  Be  Be5  1  0.74999997  0.25393400  0.50786798  1
  Tc  Tc6  1  0.49999998  0.76227301  0.99999994  1
  Ne  Ne7  1  0.99999996  0.23772700  -0.00000001  1
  Al  Al8  1  0.49999998  0.23772700  -0.00000001  1
  Se  Se9  1  0.99999996  0.76227301  0.99999994  1
