# generated using pymatgen
data_PmErThTlReBiHeKr
_symmetry_space_group_name_H-M   'P 1'
_cell_length_a   6.22315788
_cell_length_b   6.22315788
_cell_length_c   6.22315788
_cell_angle_alpha   60.00000000
_cell_angle_beta   60.00000000
_cell_angle_gamma   60.00000000
_symmetry_Int_Tables_number   1
_chemical_formula_structural   PmErThTlReBiHeKr
_chemical_formula_sum   'Pm1 Er1 Th1 Tl1 Re1 Bi1 He1 Kr1'
_cell_volume   170.41878314
_cell_formula_units_Z   1
loop_
 _symmetry_equiv_pos_site_id
 _symmetry_equiv_pos_as_xyz
  1  'x, y, z'
loop_
 _atom_site_type_symbol
 _atom_site_label
 _atom_site_symmetry_multiplicity
 _atom_site_fract_x
 _atom_site_fract_y
 _atom_site_fract_z
 _atom_site_occupancy
  Re  Re0  1  0.49999998  0.49999998  0.49999998  1
  Er  Er1  1  0.00000000  0.00000000  0.00000000  1
  Bi  Bi2  1  0.72860698  0.72860698  0.27139299  1
  Tl  Tl3  1  0.72860698  0.27139299  0.27139299  1
  Pm  Pm4  1  0.27139299  0.27139299  0.72860698  1
  He  He5  1  0.72860698  0.27139299  0.72860698  1
  Th  Th6  1  0.27139299  0.72860698  0.27139299  1
  Kr  Kr7  1  0.27139299  0.72860698  0.72860698  1
