# generated using pymatgen
data_TbGdNpScMnSiTcAg2Ne
_symmetry_space_group_name_H-M   'P 1'
_cell_length_a   8.80951977
_cell_length_b   8.80951977
_cell_length_c   8.80951977
_cell_angle_alpha   60.00000000
_cell_angle_beta   60.00000000
_cell_angle_gamma   60.00000000
_symmetry_Int_Tables_number   1
_chemical_formula_structural   TbGdNpScMnSiTcAg2Ne
_chemical_formula_sum   'Tb1 Gd1 Np1 Sc1 Mn1 Si1 Tc1 Ag2 Ne1'
_cell_volume   483.43902507
_cell_formula_units_Z   1
loop_
 _symmetry_equiv_pos_site_id
 _symmetry_equiv_pos_as_xyz
  1  'x, y, z'
loop_
 _atom_site_type_symbol
 _atom_site_label
 _atom_site_symmetry_multiplicity
 _atom_site_fract_x
 _atom_site_fract_y
 _atom_site_fract_z
 _atom_site_occupancy
  Si  Si0  1  0.24999999  0.24999999  0.24999999  1
  Tb  Tb1  1  0.74999998  0.74999998  0.74999998  1
  Gd  Gd2  1  0.49999999  0.49999999  0.49999999  1
  Np  Np3  1  0.00000000  0.00000000  0.00000000  1
  Tc  Tc4  1  0.23159899  0.76840098  0.23159899  1
  Mn  Mn5  1  0.23159899  0.23159899  0.76840098  1
  Ag  Ag6  1  0.76840098  0.23159899  0.76840098  1
  Ne  Ne7  1  0.23159899  0.76840098  0.76840098  1
  Ag  Ag8  1  0.76840098  0.23159899  0.23159899  1
  Sc  Sc9  1  0.76840098  0.76840098  0.23159899  1
