# generated using pymatgen
data_CsCaYbPmYTmPuTh2Ta2CdGaHPdRuPbHeRhXe
_symmetry_space_group_name_H-M   'P 1'
_cell_length_a   3.89225507
_cell_length_b   7.47695589
_cell_length_c   9.76536369
_cell_angle_alpha   90.00000000
_cell_angle_beta   90.00000000
_cell_angle_gamma   90.00000000
_symmetry_Int_Tables_number   1
_chemical_formula_structural   CsCaYbPmYTmPuTh2Ta2CdGaHPdRuPbHeRhXe
_chemical_formula_sum
'Cs1 Ca1 Yb1 Pm1 Y1 Tm1 Pu1 Th2 Ta2 Cd1 Ga1 Pd1 Ru1 Rh1 Pb1 He1 H1 Xe1'
_cell_volume   284.19375728
_cell_formula_units_Z   1
loop_
 _symmetry_equiv_pos_site_id
 _symmetry_equiv_pos_as_xyz
  1  'x, y, z'
loop_
 _atom_site_type_symbol
 _atom_site_label
 _atom_site_symmetry_multiplicity
 _atom_site_fract_x
 _atom_site_fract_y
 _atom_site_fract_z
 _atom_site_occupancy
  Pd  Pd0  1  0.55557199  0.00000000  0.61227002  1
  Pb  Pb1  1  0.44442799  0.50000001  0.11227000  1
  Th  Th2  1  0.99084598  0.66872201  0.79009202  1
  Ta  Ta3  1  0.00915400  0.83127801  0.29009201  1
  Ca  Ca4  1  0.00915400  0.16872200  0.29009201  1
  Pu  Pu5  1  0.99084598  0.33127800  0.79009202  1
  Cs  Cs6  1  0.93397098  0.00000000  0.00909400  1
  Ru  Ru7  1  0.06602900  0.50000001  0.50909402  1
  He  He8  1  0.93273098  0.80709101  0.15317000  1
  Pm  Pm9  1  0.06726900  0.69290901  0.65317002  1
  Yb  Yb10  1  0.06726900  0.30709100  0.65317002  1
  H  H11  1  0.93273098  0.19290900  0.15317000  1
  Th  Th12  1  0.02639500  0.00000000  0.35340401  1
  Y  Y13  1  0.97360498  0.50000001  0.85340403  1
  Tm  Tm14  1  0.43335499  0.00000000  0.00604800  1
  Ga  Ga15  1  0.56664499  0.50000001  0.50604802  1
  Cd  Cd16  1  0.91597898  0.81770201  0.86263903  1
  Ta  Ta17  1  0.08402100  0.68229801  0.36263901  1
  Xe  Xe18  1  0.08402100  0.31770200  0.36263901  1
  Rh  Rh19  1  0.91597898  0.18229800  0.86263903  1
