# generated using pymatgen
data_Ca2YbCeNdEuGdLuScMnCdSn2HgBiIrPdAuKrCl
_symmetry_space_group_name_H-M   'P 1'
_cell_length_a   5.77027225
_cell_length_b   5.80946827
_cell_length_c   8.62757683
_cell_angle_alpha   108.69288635
_cell_angle_beta   101.54510498
_cell_angle_gamma   102.54099274
_symmetry_Int_Tables_number   1
_chemical_formula_structural   Ca2YbCeNdEuGdLuScMnCdSn2HgBiIrPdAuKrCl
_chemical_formula_sum
;
Ca2 Yb1 Ce1 Nd1 Eu1 Gd1 Lu1 Sc1 Mn1 Cd1 Sn2 Hg1 Bi1 Ir1 Pd1 Au1 Kr1
Cl1
;
_cell_volume   255.79174358
_cell_formula_units_Z   1
loop_
 _symmetry_equiv_pos_site_id
 _symmetry_equiv_pos_as_xyz
  1  'x, y, z'
loop_
 _atom_site_type_symbol
 _atom_site_label
 _atom_site_symmetry_multiplicity
 _atom_site_fract_x
 _atom_site_fract_y
 _atom_site_fract_z
 _atom_site_occupancy
  Nd  Nd0  1  0.21031900  0.41457799  0.90006094  1
  Sc  Sc1  1  0.41363199  0.79606099  0.30166895  1
  Ir  Ir2  1  0.70348001  0.39642099  0.40062696  1
  Yb  Yb3  1  0.29651999  0.60357899  0.59937294  1
  Lu  Lu4  1  0.78968101  0.58542199  0.09993896  1
  Eu  Eu5  1  1.00000003  0.00000000  0.49999997  1
  Sn  Sn6  1  0.50000001  0.00000000  -0.00000000  1
  Bi  Bi7  1  0.58636801  0.20393900  0.69833095  1
  Mn  Mn8  1  0.89606800  0.80364999  0.79716492  1
  Ce  Ce9  1  0.10393200  0.19635000  0.20283498  1
  Cd  Cd10  1  0.60539300  0.63207299  0.84566393  1
  Gd  Gd11  1  0.39460700  0.36792699  0.15433597  1
  Kr  Kr12  1  0.68872300  0.82536099  0.59910593  1
  Cl  Cl13  1  0.31127700  0.17463900  0.40089397  1
  Ca  Ca14  1  0.80668802  0.01599500  0.23991798  1
  Sn  Sn15  1  0.19331198  0.98400499  0.76008192  1
  Pd  Pd16  1  0.88520502  0.15431000  0.96188894  1
  Ca  Ca17  1  0.11479498  0.84568999  0.03811096  1
  Au  Au18  1  0.05492199  0.51949399  0.31249396  1
  Hg  Hg19  1  0.94507801  0.48050599  0.68750594  1
