# generated using pymatgen
data_CsNdSmTmScUPaVCdSiWCF
_symmetry_space_group_name_H-M   'P 1'
_cell_length_a   5.61307383
_cell_length_b   5.61307383
_cell_length_c   7.73871183
_cell_angle_alpha   68.73622894
_cell_angle_beta   68.73622894
_cell_angle_gamma   60.00000000
_symmetry_Int_Tables_number   1
_chemical_formula_structural   CsNdSmTmScUPaVCdSiWCF
_chemical_formula_sum
'Cs1 Nd1 Sm1 Tm1 Sc1 U1 Pa1 V1 Cd1 Si1 W1 C1 F1'
_cell_volume   191.74837688
_cell_formula_units_Z   1
loop_
 _symmetry_equiv_pos_site_id
 _symmetry_equiv_pos_as_xyz
  1  'x, y, z'
loop_
 _atom_site_type_symbol
 _atom_site_label
 _atom_site_symmetry_multiplicity
 _atom_site_fract_x
 _atom_site_fract_y
 _atom_site_fract_z
 _atom_site_occupancy
  Cd  Cd0  1  0.20858400  0.20858401  0.37424801  1
  Nd  Nd1  1  0.79141600  0.79141602  0.62575204  1
  Sc  Sc2  1  0.00000000  0.00000000  0.00000000  1
  Sm  Sm3  1  0.40385500  0.40385501  0.78843503  1
  F  F4  1  0.59614500  0.59614501  0.21156502  1
  Cs  Cs5  1  0.73246501  0.27696401  0.71360703  1
  W  W6  1  0.27696400  0.27696401  0.71360702  1
  Pa  Pa7  1  0.27696399  0.73246502  0.71360703  1
  C  C8  1  0.26753499  0.72303602  0.28639302  1
  U  U9  1  0.72303600  0.72303602  0.28639303  1
  V  V10  1  0.72303601  0.26753501  0.28639302  1
  Tm  Tm11  1  0.33073400  0.33073401  0.00779801  1
  Si  Si12  1  0.66926600  0.66926602  0.99220204  1
