# generated using pymatgen
data_BaNaErLuHfUTaTiNb2SiGeBiCClF
_symmetry_space_group_name_H-M   'P 1'
_cell_length_a   7.15555143
_cell_length_b   7.15555143
_cell_length_c   7.15555143
_cell_angle_alpha   60.00000000
_cell_angle_beta   60.00000000
_cell_angle_gamma   60.00000000
_symmetry_Int_Tables_number   1
_chemical_formula_structural   BaNaErLuHfUTaTiNb2SiGeBiCClF
_chemical_formula_sum
'Ba1 Na1 Er1 Lu1 Hf1 U1 Ta1 Ti1 Nb2 Si1 Ge1 Bi1 C1 Cl1 F1'
_cell_volume   259.06832989
_cell_formula_units_Z   1
loop_
 _symmetry_equiv_pos_site_id
 _symmetry_equiv_pos_as_xyz
  1  'x, y, z'
loop_
 _atom_site_type_symbol
 _atom_site_label
 _atom_site_symmetry_multiplicity
 _atom_site_fract_x
 _atom_site_fract_y
 _atom_site_fract_z
 _atom_site_occupancy
  Ti  Ti0  1  0.11299500  0.11299500  0.11299500  1
  U  U1  1  0.63700501  0.08898500  0.63700501  1
  Na  Na2  1  0.08898500  0.63700501  0.63700501  1
  Hf  Hf3  1  0.63700501  0.63700501  0.08898500  1
  Ge  Ge4  1  0.66101501  0.11299500  0.11299500  1
  Nb  Nb5  1  0.11299500  0.11299500  0.66101501  1
  Er  Er6  1  0.11299500  0.66101501  0.11299500  1
  C  C7  1  0.63700501  0.63700501  0.63700501  1
  Ta  Ta8  1  0.87500001  0.37500000  0.37500000  1
  F  F9  1  0.37500000  0.37500000  0.87500001  1
  Lu  Lu10  1  0.37500000  0.87500001  0.37500000  1
  Bi  Bi11  1  0.37500000  0.37500000  0.37500000  1
  Si  Si12  1  0.37500000  0.87500001  0.87500001  1
  Ba  Ba13  1  0.87500001  0.87500001  0.37500000  1
  Nb  Nb14  1  0.87500001  0.37500000  0.87500001  1
  Cl  Cl15  1  0.87500001  0.87500001  0.87500001  1
