# generated using pymatgen
data_KTbPrDyThZrTiGeMoKr
_symmetry_space_group_name_H-M   'P 1'
_cell_length_a   6.58298874
_cell_length_b   6.58298874
_cell_length_c   6.58298874
_cell_angle_alpha   60.00000000
_cell_angle_beta   60.00000000
_cell_angle_gamma   60.00000000
_symmetry_Int_Tables_number   1
_chemical_formula_structural   KTbPrDyThZrTiGeMoKr
_chemical_formula_sum   'K1 Tb1 Pr1 Dy1 Th1 Zr1 Ti1 Ge1 Mo1 Kr1'
_cell_volume   201.72249854
_cell_formula_units_Z   1
loop_
 _symmetry_equiv_pos_site_id
 _symmetry_equiv_pos_as_xyz
  1  'x, y, z'
loop_
 _atom_site_type_symbol
 _atom_site_label
 _atom_site_symmetry_multiplicity
 _atom_site_fract_x
 _atom_site_fract_y
 _atom_site_fract_z
 _atom_site_occupancy
  Kr  Kr0  1  0.25000000  0.25000000  0.25000000  1
  Dy  Dy1  1  0.75000000  0.75000000  0.75000000  1
  Tb  Tb2  1  0.00000000  0.00000000  0.00000000  1
  Ti  Ti3  1  0.50000000  0.50000000  0.50000000  1
  Ge  Ge4  1  0.73611100  0.73611100  0.26388900  1
  Zr  Zr5  1  0.26388900  0.73611100  0.26388900  1
  Mo  Mo6  1  0.26388900  0.26388900  0.73611100  1
  K  K7  1  0.73611100  0.26388900  0.26388900  1
  Pr  Pr8  1  0.26388900  0.73611100  0.73611100  1
  Th  Th9  1  0.73611100  0.26388900  0.73611100  1
