# generated using pymatgen
data_NbFeReAgGeBAsPPtO
_symmetry_space_group_name_H-M   'P 1'
_cell_length_a   5.49607849
_cell_length_b   5.49607563
_cell_length_c   5.83102083
_cell_angle_alpha   94.51853180
_cell_angle_beta   117.09505463
_cell_angle_gamma   115.66267395
_symmetry_Int_Tables_number   1
_chemical_formula_structural   NbFeReAgGeBAsPPtO
_chemical_formula_sum   'Nb1 Fe1 Re1 Ag1 Ge1 B1 As1 P1 Pt1 O1'
_cell_volume   132.71319301
_cell_formula_units_Z   1
loop_
 _symmetry_equiv_pos_site_id
 _symmetry_equiv_pos_as_xyz
  1  'x, y, z'
loop_
 _atom_site_type_symbol
 _atom_site_label
 _atom_site_symmetry_multiplicity
 _atom_site_fract_x
 _atom_site_fract_y
 _atom_site_fract_z
 _atom_site_occupancy
  As  As0  1  0.34809499  0.69270801  0.91653200  1
  Fe  Fe1  1  0.72237600  0.36012400  0.05862702  1
  Nb  Nb2  1  0.22380600  0.06842800  0.41653202  1
  Ag  Ag3  1  0.69849899  0.83628001  0.55860701  1
  Re  Re4  1  0.76170099  0.72435901  0.24288101  1
  P  P5  1  0.51853398  0.98118601  0.74288800  1
  Ge  Ge6  1  0.87014299  0.59643400  0.79472503  1
  O  O7  1  0.19825099  0.42459500  0.29477900  1
  B  B8  1  0.48674000  0.06538400  0.23720602  1
  Pt  Pt9  1  0.17185400  0.25050200  0.73722001  1
