# generated using pymatgen
data_Eu2ZrOsNeMgFeReHg2
_symmetry_space_group_name_H-M   'P 1'
_cell_length_a   7.54934359
_cell_length_b   7.54934359
_cell_length_c   7.54934359
_cell_angle_alpha   60.00000000
_cell_angle_beta   60.00000000
_cell_angle_gamma   60.00000000
_symmetry_Int_Tables_number   1
_chemical_formula_structural   Eu2ZrOsNeMgFeReHg2
_chemical_formula_sum   'Eu2 Zr1 Os1 Ne1 Mg1 Fe1 Re1 Hg2'
_cell_volume   304.23738287
_cell_formula_units_Z   1
loop_
 _symmetry_equiv_pos_site_id
 _symmetry_equiv_pos_as_xyz
  1  'x, y, z'
loop_
 _atom_site_type_symbol
 _atom_site_label
 _atom_site_symmetry_multiplicity
 _atom_site_fract_x
 _atom_site_fract_y
 _atom_site_fract_z
 _atom_site_occupancy
  Zr  Zr0  1  0.50000000  0.50000000  0.50000000  1
  Os  Os1  1  0.25000000  0.25000000  0.25000000  1
  Ne  Ne2  1  0.74999999  0.74999999  0.74999999  1
  Re  Re3  1  0.00000000  0.00000000  0.00000000  1
  Hg  Hg4  1  0.21976300  0.78023699  0.21976300  1
  Fe  Fe5  1  0.21976300  0.21976300  0.78023699  1
  Eu  Eu6  1  0.78023699  0.21976300  0.78023699  1
  Eu  Eu7  1  0.21976300  0.78023699  0.78023699  1
  Hg  Hg8  1  0.78023699  0.21976300  0.21976300  1
  Mg  Mg9  1  0.78023699  0.78023699  0.21976300  1
