# generated using pymatgen
data_CsBaCa2PmMnTlVCdNiPdPtPbWXeF
_symmetry_space_group_name_H-M   'P 1'
_cell_length_a   5.23219109
_cell_length_b   6.27222443
_cell_length_c   7.46548223
_cell_angle_alpha   111.09455109
_cell_angle_beta   90.00000000
_cell_angle_gamma   114.65114594
_symmetry_Int_Tables_number   1
_chemical_formula_structural   CsBaCa2PmMnTlVCdNiPdPtPbWXeF
_chemical_formula_sum
'Cs1 Ba1 Ca2 Pm1 Mn1 Tl1 V1 Cd1 Ni1 Pd1 Pt1 Pb1 W1 Xe1 F1'
_cell_volume   204.46721365
_cell_formula_units_Z   1
loop_
 _symmetry_equiv_pos_site_id
 _symmetry_equiv_pos_as_xyz
  1  'x, y, z'
loop_
 _atom_site_type_symbol
 _atom_site_label
 _atom_site_symmetry_multiplicity
 _atom_site_fract_x
 _atom_site_fract_y
 _atom_site_fract_z
 _atom_site_occupancy
  Ba  Ba0  1  0.64236801  0.27414500  0.74553103  1
  Cd  Cd1  1  0.63177701  0.27414500  0.24553101  1
  V  V2  1  0.36822304  0.72585499  0.75446903  1
  Mn  Mn3  1  0.35763204  0.72585499  0.25446902  1
  Pb  Pb4  1  0.00000000  0.00000000  0.50000001  1
  Pd  Pd5  1  0.00000000  0.00000000  0.00000000  1
  Tl  Tl6  1  0.39419600  0.14503600  0.95404303  1
  F  F7  1  0.75084000  0.14503600  0.45404302  1
  Ca  Ca8  1  0.31487901  0.34383100  0.64254202  1
  W  W9  1  0.97104702  0.65616899  0.85745803  1
  Ni  Ni10  1  0.02895302  0.34383100  0.14254201  1
  Ca  Ca11  1  0.68512103  0.65616899  0.35745802  1
  Pm  Pm12  1  0.24916004  0.85496399  0.54595703  1
  Pt  Pt13  1  0.82546999  0.00000000  0.75000002  1
  Cs  Cs14  1  0.60580404  0.85496399  0.04595701  1
  Xe  Xe15  1  0.17453000  0.00000000  0.25000001  1
