# generated using pymatgen
data_LaCeHoErTaMnNbZnCuPPbNOF
_symmetry_space_group_name_H-M   'P 1'
_cell_length_a   5.90429497
_cell_length_b   5.90429497
_cell_length_c   5.90429497
_cell_angle_alpha   60.00000000
_cell_angle_beta   60.00000000
_cell_angle_gamma   60.00000000
_symmetry_Int_Tables_number   1
_chemical_formula_structural   LaCeHoErTaMnNbZnCuPPbNOF
_chemical_formula_sum
'La1 Ce1 Ho1 Er1 Ta1 Mn1 Nb1 Zn1 Cu1 P1 Pb1 N1 O1 F1'
_cell_volume   145.54226853
_cell_formula_units_Z   1
loop_
 _symmetry_equiv_pos_site_id
 _symmetry_equiv_pos_as_xyz
  1  'x, y, z'
loop_
 _atom_site_type_symbol
 _atom_site_label
 _atom_site_symmetry_multiplicity
 _atom_site_fract_x
 _atom_site_fract_y
 _atom_site_fract_z
 _atom_site_occupancy
  Pb  Pb0  1  0.87500000  0.37500000  0.37500000  1
  Zn  Zn1  1  0.37500000  0.37500000  0.87500000  1
  Mn  Mn2  1  0.37500000  0.87500000  0.37500000  1
  Cu  Cu3  1  0.37500000  0.37500000  0.37500000  1
  P  P4  1  0.75000000  0.75000000  0.75000000  1
  Er  Er5  1  0.00000000  0.00000000  0.00000000  1
  O  O6  1  0.62517000  0.12449200  0.62516900  1
  N  N7  1  0.12483000  0.12483100  0.12483100  1
  Ce  Ce8  1  0.62550700  0.12483100  0.12483100  1
  Ho  Ho9  1  0.12483000  0.12483100  0.62550800  1
  Nb  Nb10  1  0.62517000  0.62516900  0.12449200  1
  Ta  Ta11  1  0.62517000  0.62516900  0.62516900  1
  La  La12  1  0.12483000  0.62550800  0.12483100  1
  F  F13  1  0.12449300  0.62516900  0.62516900  1
