# generated using pymatgen
data_NdUTaNb2CoCuHgRuAu
_symmetry_space_group_name_H-M   'P 1'
_cell_length_a   8.02595043
_cell_length_b   8.02595043
_cell_length_c   8.02595043
_cell_angle_alpha   60.00000000
_cell_angle_beta   60.00000000
_cell_angle_gamma   60.00000000
_symmetry_Int_Tables_number   1
_chemical_formula_structural   NdUTaNb2CoCuHgRuAu
_chemical_formula_sum   'Nd1 U1 Ta1 Nb2 Co1 Cu1 Hg1 Ru1 Au1'
_cell_volume   365.57326018
_cell_formula_units_Z   1
loop_
 _symmetry_equiv_pos_site_id
 _symmetry_equiv_pos_as_xyz
  1  'x, y, z'
loop_
 _atom_site_type_symbol
 _atom_site_label
 _atom_site_symmetry_multiplicity
 _atom_site_fract_x
 _atom_site_fract_y
 _atom_site_fract_z
 _atom_site_occupancy
  Cu  Cu0  1  0.25000000  0.25000000  0.25000000  1
  Nd  Nd1  1  0.75000000  0.75000000  0.75000000  1
  Co  Co2  1  0.50000000  0.50000000  0.50000000  1
  Ta  Ta3  1  0.00000000  0.00000000  0.00000000  1
  Ru  Ru4  1  0.23400400  0.76599600  0.23400400  1
  Nb  Nb5  1  0.23400400  0.23400400  0.76599600  1
  Au  Au6  1  0.76599600  0.23400400  0.76599600  1
  Nb  Nb7  1  0.23400400  0.76599600  0.76599600  1
  U  U8  1  0.76599600  0.23400400  0.23400400  1
  Hg  Hg9  1  0.76599600  0.76599600  0.23400400  1
