# generated using pymatgen
data_AcNpUTlGeRhKrO
_symmetry_space_group_name_H-M   'P 1'
_cell_length_a   5.72337580
_cell_length_b   5.72337580
_cell_length_c   5.72337580
_cell_angle_alpha   60.00000000
_cell_angle_beta   60.00000000
_cell_angle_gamma   60.00000000
_symmetry_Int_Tables_number   1
_chemical_formula_structural   AcNpUTlGeRhKrO
_chemical_formula_sum   'Ac1 Np1 U1 Tl1 Ge1 Rh1 Kr1 O1'
_cell_volume   132.56894195
_cell_formula_units_Z   1
loop_
 _symmetry_equiv_pos_site_id
 _symmetry_equiv_pos_as_xyz
  1  'x, y, z'
loop_
 _atom_site_type_symbol
 _atom_site_label
 _atom_site_symmetry_multiplicity
 _atom_site_fract_x
 _atom_site_fract_y
 _atom_site_fract_z
 _atom_site_occupancy
  Ge  Ge0  1  0.50000002  0.50000002  0.50000002  1
  Rh  Rh1  1  0.00000000  0.00000000  0.00000000  1
  O  O2  1  0.25216501  0.74783503  0.25216501  1
  Kr  Kr3  1  0.74783503  0.25216501  0.74783503  1
  Tl  Tl4  1  0.25216501  0.74783503  0.74783503  1
  U  U5  1  0.74783503  0.25216501  0.25216501  1
  Ac  Ac6  1  0.25216501  0.25216501  0.74783503  1
  Np  Np7  1  0.74783503  0.74783503  0.25216501  1
