# generated using pymatgen
data_KSrTbCeErMgTlCdSiTePIrPbAuNeCOHe
_symmetry_space_group_name_H-M   'P 1'
_cell_length_a   4.76166725
_cell_length_b   4.76300526
_cell_length_c   9.24916840
_cell_angle_alpha   89.83195496
_cell_angle_beta   89.91850281
_cell_angle_gamma   89.70383453
_symmetry_Int_Tables_number   1
_chemical_formula_structural   KSrTbCeErMgTlCdSiTePIrPbAuNeCOHe
_chemical_formula_sum
'K1 Sr1 Tb1 Ce1 Er1 Mg1 Tl1 Cd1 Si1 Te1 P1 Ir1 Pb1 Au1 Ne1 C1 O1 He1'
_cell_volume   209.76580387
_cell_formula_units_Z   1
loop_
 _symmetry_equiv_pos_site_id
 _symmetry_equiv_pos_as_xyz
  1  'x, y, z'
loop_
 _atom_site_type_symbol
 _atom_site_label
 _atom_site_symmetry_multiplicity
 _atom_site_fract_x
 _atom_site_fract_y
 _atom_site_fract_z
 _atom_site_occupancy
  K  K0  1  0.00924503  0.98879395  0.66014696  1
  Pb  Pb1  1  0.00026403  0.97627995  0.33537596  1
  Au  Au2  1  0.50105300  0.49197598  0.83618698  1
  Ir  Ir3  1  0.51250300  0.50236398  0.17818299  1
  Te  Te4  1  0.49889200  0.50182098  0.49970999  1
  Er  Er5  1  0.99766197  0.00391500  0.99842001  1
  Mg  Mg6  1  0.69565900  0.69982097  0.33078799  1
  Sr  Sr7  1  0.19675402  0.80603096  0.50130097  1
  Ne  Ne8  1  0.80911298  0.19694599  0.50135700  1
  Tb  Tb9  1  0.80407498  0.20206299  0.16414401  1
  Ce  Ce10  1  0.79827798  0.20086799  0.83306600  1
  Si  Si11  1  0.30033100  0.30509399  0.67354099  1
  Cd  Cd12  1  0.30073300  0.30689599  0.32790799  1
  P  P13  1  0.29932700  0.30730599  0.99395398  1
  C  C14  1  0.69007400  0.69645597  0.99753998  1
  Tl  Tl15  1  0.69491400  0.69927897  0.67231098  1
  O  O16  1  0.19393102  0.80597096  0.83153396  1
  He  He17  1  0.19719102  0.80811896  0.16453598  1
