# generated using pymatgen
data_LaDyYHoHfBeNbAlZnInFeGeRuIBrNe
_symmetry_space_group_name_H-M   'P 1'
_cell_length_a   5.83887100
_cell_length_b   5.83887100
_cell_length_c   5.83887100
_cell_angle_alpha   90.00000000
_cell_angle_beta   90.00000000
_cell_angle_gamma   90.00000000
_symmetry_Int_Tables_number   1
_chemical_formula_structural   LaDyYHoHfBeNbAlZnInFeGeRuIBrNe
_chemical_formula_sum
'La1 Dy1 Y1 Ho1 Hf1 Be1 Nb1 Al1 Zn1 In1 Fe1 Ge1 Ru1 I1 Br1 Ne1'
_cell_volume   199.06121089
_cell_formula_units_Z   1
loop_
 _symmetry_equiv_pos_site_id
 _symmetry_equiv_pos_as_xyz
  1  'x, y, z'
loop_
 _atom_site_type_symbol
 _atom_site_label
 _atom_site_symmetry_multiplicity
 _atom_site_fract_x
 _atom_site_fract_y
 _atom_site_fract_z
 _atom_site_occupancy
  La  La0  1  0.50000000  0.50000000  0.50000000  1
  In  In1  1  0.00000000  0.00000000  0.00000000  1
  Zn  Zn2  1  -0.00000000  0.50000000  0.75000000  1
  Ge  Ge3  1  0.50000000  0.25000000  -0.00000000  1
  Nb  Nb4  1  0.75000000  0.00000000  0.50000000  1
  Dy  Dy5  1  -0.00000000  0.50000000  0.25000000  1
  Y  Y6  1  0.50000000  0.75000000  -0.00000000  1
  Ho  Ho7  1  0.25000000  0.00000000  0.50000000  1
  I  I8  1  0.75000000  0.25000000  0.75000000  1
  Al  Al9  1  0.25000000  0.75000000  0.25000000  1
  Hf  Hf10  1  0.75000000  0.75000000  0.25000000  1
  Ru  Ru11  1  0.25000000  0.25000000  0.75000000  1
  Fe  Fe12  1  0.25000000  0.75000000  0.75000000  1
  Br  Br13  1  0.75000000  0.25000000  0.25000000  1
  Be  Be14  1  0.25000000  0.25000000  0.25000000  1
  Ne  Ne15  1  0.75000000  0.75000000  0.75000000  1
