# generated using pymatgen
data_KNaLiPrEuHfThNpNbCdCuBiPbC
_symmetry_space_group_name_H-M   'P 1'
_cell_length_a   7.63110065
_cell_length_b   7.63110065
_cell_length_c   7.63110065
_cell_angle_alpha   109.64476013
_cell_angle_beta   109.38452148
_cell_angle_gamma   109.38452148
_symmetry_Int_Tables_number   1
_chemical_formula_structural   KNaLiPrEuHfThNpNbCdCuBiPbC
_chemical_formula_sum
'K1 Na1 Li1 Pr1 Eu1 Th1 Hf1 Np1 Nb1 Cd1 Cu1 Bi1 Pb1 C1'
_cell_volume   342.08706808
_cell_formula_units_Z   1
loop_
 _symmetry_equiv_pos_site_id
 _symmetry_equiv_pos_as_xyz
  1  'x, y, z'
loop_
 _atom_site_type_symbol
 _atom_site_label
 _atom_site_symmetry_multiplicity
 _atom_site_fract_x
 _atom_site_fract_y
 _atom_site_fract_z
 _atom_site_occupancy
  Pb  Pb0  1  0.00000000  0.00000000  0.00000000  1
  Th  Th1  1  0.50000002  0.25000001  0.75000002  1
  Cd  Cd2  1  0.12149002  0.62500001  0.24649001  1
  C  C3  1  0.37851003  0.75351002  0.87500002  1
  Bi  Bi4  1  0.87851002  0.12500000  0.50351002  1
  Np  Np5  1  0.62149003  0.49649001  0.37500002  1
  Hf  Hf6  1  0.90175103  0.51950601  0.76853003  1
  Na  Na7  1  0.59824904  0.86775402  0.61677903  1
  Eu  Eu8  1  0.24902502  0.38224601  0.48049501  1
  Nb  Nb9  1  0.74902504  0.73049502  0.13224602  1
  Cu  Cu10  1  0.09824903  0.86677902  0.61775402  1
  Li  Li11  1  0.75097502  0.23147001  0.13322002  1
  Pr  Pr12  1  0.25097502  0.38322001  0.98147002  1
  K  K13  1  0.40175101  0.01853000  0.26950601  1
