# generated using pymatgen
data_ScUMnAgBiBPCl
_symmetry_space_group_name_H-M   'P 1'
_cell_length_a   3.85968995
_cell_length_b   3.86677194
_cell_length_c   7.72025204
_cell_angle_alpha   90.00000000
_cell_angle_beta   90.00000000
_cell_angle_gamma   90.00000000
_symmetry_Int_Tables_number   1
_chemical_formula_structural   ScUMnAgBiBPCl
_chemical_formula_sum   'Sc1 U1 Mn1 Ag1 Bi1 B1 P1 Cl1'
_cell_volume   115.22121640
_cell_formula_units_Z   1
loop_
 _symmetry_equiv_pos_site_id
 _symmetry_equiv_pos_as_xyz
  1  'x, y, z'
loop_
 _atom_site_type_symbol
 _atom_site_label
 _atom_site_symmetry_multiplicity
 _atom_site_fract_x
 _atom_site_fract_y
 _atom_site_fract_z
 _atom_site_occupancy
  Bi  Bi0  1  -0.00000000  0.01077500  0.75000000  1
  P  P1  1  0.00000000  0.98922502  0.25000000  1
  B  B2  1  0.50000001  0.01033800  0.25000000  1
  Cl  Cl3  1  0.50000001  0.98966202  0.75000000  1
  Mn  Mn4  1  -0.00000000  0.49664401  0.75000000  1
  U  U5  1  -0.00000000  0.50335601  0.25000000  1
  Sc  Sc6  1  0.00000000  0.00000000  0.50000000  1
  Ag  Ag7  1  0.00000000  0.00000000  0.00000000  1
