# generated using pymatgen
data_LiMgReSbPHBrNHeNeRhF
_symmetry_space_group_name_H-M   'P 1'
_cell_length_a   4.96620703
_cell_length_b   5.53302193
_cell_length_c   6.64748144
_cell_angle_alpha   90.00000000
_cell_angle_beta   110.88010406
_cell_angle_gamma   90.00000000
_symmetry_Int_Tables_number   1
_chemical_formula_structural   LiMgReSbPHBrNHeNeRhF
_chemical_formula_sum   'Li1 Mg1 Re1 Sb1 P1 H1 Br1 N1 He1 Ne1 Rh1 F1'
_cell_volume   170.66475678
_cell_formula_units_Z   1
loop_
 _symmetry_equiv_pos_site_id
 _symmetry_equiv_pos_as_xyz
  1  'x, y, z'
loop_
 _atom_site_type_symbol
 _atom_site_label
 _atom_site_symmetry_multiplicity
 _atom_site_fract_x
 _atom_site_fract_y
 _atom_site_fract_z
 _atom_site_occupancy
  Mg  Mg0  1  0.28778499  0.75000001  0.25106099  1
  H  H1  1  0.71221498  0.25000000  0.74893899  1
  N  N2  1  0.82751198  0.25000000  0.26861297  1
  P  P3  1  0.17248800  0.75000001  0.73138701  1
  He  He4  1  0.08590800  0.25000000  0.45892301  1
  Ne  Ne5  1  0.91409198  0.75000001  0.54107697  1
  Re  Re6  1  0.57105199  0.25000000  0.33403998  1
  Rh  Rh7  1  0.42894799  0.75000001  0.66596000  1
  F  F8  1  0.81884298  0.03436100  0.13616997  1
  Sb  Sb9  1  0.18115700  0.53436101  0.86383001  1
  Br  Br10  1  0.18115700  0.96563901  0.86383001  1
  Li  Li11  1  0.81884298  0.46563901  0.13616997  1
