# generated using pymatgen
data_SrAcTbYbGdHfThNp2NbReTcGeAuF
_symmetry_space_group_name_H-M   'P 1'
_cell_length_a   6.78437185
_cell_length_b   6.78437185
_cell_length_c   6.78437185
_cell_angle_alpha   89.23844910
_cell_angle_beta   89.23844910
_cell_angle_gamma   89.23844910
_symmetry_Int_Tables_number   1
_chemical_formula_structural   SrAcTbYbGdHfThNp2NbReTcGeAuF
_chemical_formula_sum
'Sr1 Yb1 Tb1 Ac1 Gd1 Hf1 Th1 Np2 Nb1 Re1 Tc1 Ge1 Au1 F1'
_cell_volume   312.18701847
_cell_formula_units_Z   1
loop_
 _symmetry_equiv_pos_site_id
 _symmetry_equiv_pos_as_xyz
  1  'x, y, z'
loop_
 _atom_site_type_symbol
 _atom_site_label
 _atom_site_symmetry_multiplicity
 _atom_site_fract_x
 _atom_site_fract_y
 _atom_site_fract_z
 _atom_site_occupancy
  Sr  Sr0  1  0.00000000  0.00000000  0.00000000  1
  Np  Np1  1  0.42268602  0.23403800  0.55910102  1
  Yb  Yb2  1  0.23403802  0.55910101  0.42268602  1
  Tb  Tb3  1  0.55910102  0.42268601  0.23403802  1
  Np  Np4  1  0.57731403  0.76596201  0.44089903  1
  Ac  Ac5  1  0.76596203  0.44089901  0.57731403  1
  Ge  Ge6  1  0.44089903  0.57731401  0.76596203  1
  Re  Re7  1  0.23690801  0.23690800  0.23690801  1
  Nb  Nb8  1  0.76309204  0.76309201  0.76309204  1
  Hf  Hf9  1  0.37181203  0.75559801  0.12237903  1
  F  F10  1  0.75559802  0.12237900  0.37181202  1
  Tc  Tc11  1  0.12237901  0.37181201  0.75559801  1
  Th  Th12  1  0.62818802  0.24440200  0.87762102  1
  Au  Au13  1  0.24440203  0.87762102  0.62818803  1
  Gd  Gd14  1  0.87762104  0.62818801  0.24440204  1
