# generated using pymatgen
data_SeNeKSrLiAcTbGdHoPuZrVCdBiSbPt2Cl
_symmetry_space_group_name_H-M   'P 1'
_cell_length_a   4.76250887
_cell_length_b   4.76250887
_cell_length_c   9.43747044
_cell_angle_alpha   90.00000000
_cell_angle_beta   90.00000000
_cell_angle_gamma   90.00000000
_symmetry_Int_Tables_number   1
_chemical_formula_structural   SeNeKSrLiAcTbGdHoPuZrVCdBiSbPt2Cl
_chemical_formula_sum
'Se1 Ne1 K1 Sr1 Li1 Ac1 Tb1 Gd1 Ho1 Pu1 Zr1 V1 Cd1 Bi1 Sb1 Pt2 Cl1'
_cell_volume   214.05589820
_cell_formula_units_Z   1
loop_
 _symmetry_equiv_pos_site_id
 _symmetry_equiv_pos_as_xyz
  1  'x, y, z'
loop_
 _atom_site_type_symbol
 _atom_site_label
 _atom_site_symmetry_multiplicity
 _atom_site_fract_x
 _atom_site_fract_y
 _atom_site_fract_z
 _atom_site_occupancy
  Se  Se0  1  0.50000001  0.50000001  0.49933798  1
  Ne  Ne1  1  0.00000000  0.00000000  0.99933795  1
  Cd  Cd2  1  0.50000001  0.50000001  0.16908199  1
  Bi  Bi3  1  0.00000000  0.00000000  0.66908197  1
  Ac  Ac4  1  0.50000001  0.50000001  0.83246596  1
  V  V5  1  0.00000000  0.00000000  0.33246598  1
  Pu  Pu6  1  0.19345701  0.80654302  0.49649598  1
  Gd  Gd7  1  0.80654302  0.19345701  0.49649598  1
  Cl  Cl8  1  0.30654301  0.30654301  0.99649595  1
  Ho  Ho9  1  0.69345702  0.69345702  0.99649595  1
  Sb  Sb10  1  0.19391701  0.80608302  0.16888799  1
  Tb  Tb11  1  0.80608302  0.19391701  0.16888799  1
  Zr  Zr12  1  0.30608301  0.30608301  0.66888797  1
  Li  Li13  1  0.69391702  0.69391702  0.66888797  1
  Pt  Pt14  1  0.80015202  0.19984801  0.83417296  1
  Sr  Sr15  1  0.19984801  0.80015202  0.83417296  1
  Pt  Pt16  1  0.69984802  0.69984802  0.33417298  1
  K  K17  1  0.30015201  0.30015201  0.33417298  1
