# generated using pymatgen
data_LiYbTmHfNpAlCdAgSnRhAuSe
_symmetry_space_group_name_H-M   'P 1'
_cell_length_a   5.39030313
_cell_length_b   5.77304125
_cell_length_c   5.77714682
_cell_angle_alpha   119.97648621
_cell_angle_beta   90.00000000
_cell_angle_gamma   90.00000000
_symmetry_Int_Tables_number   1
_chemical_formula_structural   LiYbTmHfNpAlCdAgSnRhAuSe
_chemical_formula_sum
'Li1 Yb1 Tm1 Hf1 Np1 Al1 Cd1 Ag1 Sn1 Rh1 Au1 Se1'
_cell_volume   155.72729479
_cell_formula_units_Z   1
loop_
 _symmetry_equiv_pos_site_id
 _symmetry_equiv_pos_as_xyz
  1  'x, y, z'
loop_
 _atom_site_type_symbol
 _atom_site_label
 _atom_site_symmetry_multiplicity
 _atom_site_fract_x
 _atom_site_fract_y
 _atom_site_fract_z
 _atom_site_occupancy
  Al  Al0  1  0.48969599  0.32526498  1.00000002  1
  Li  Li1  1  0.98969598  0.67473495  0.99999999  1
  Ag  Ag2  1  0.49257499  0.00708800  0.34094001  1
  Au  Au3  1  0.49257499  0.66614795  0.65905998  1
  Rh  Rh4  1  0.99257498  0.99291193  0.65905996  1
  Yb  Yb5  1  0.99257498  0.33385197  0.34093999  1
  Tm  Tm6  1  0.85888298  0.02682500  0.36050401  1
  Sn  Sn7  1  0.85888298  0.66632195  0.63949598  1
  Se  Se8  1  0.35888299  0.97317493  0.63949596  1
  Hf  Hf9  1  0.35888299  0.33367797  0.36050399  1
  Cd  Cd10  1  0.89538898  0.30744498  1.00000002  1
  Np  Np11  1  0.39538899  0.69255495  0.99999999  1
