# generated using pymatgen
data_AcPmZrMo2PRu
_symmetry_space_group_name_H-M   'P 1'
_cell_length_a   3.73688602
_cell_length_b   3.73688579
_cell_length_c   8.20137596
_cell_angle_alpha   90.00000000
_cell_angle_beta   90.00000000
_cell_angle_gamma   120.00000000
_symmetry_Int_Tables_number   1
_chemical_formula_structural   AcPmZrMo2PRu
_chemical_formula_sum   'Ac1 Pm1 Zr1 Mo2 P1 Ru1'
_cell_volume   99.18295173
_cell_formula_units_Z   1
loop_
 _symmetry_equiv_pos_site_id
 _symmetry_equiv_pos_as_xyz
  1  'x, y, z'
loop_
 _atom_site_type_symbol
 _atom_site_label
 _atom_site_symmetry_multiplicity
 _atom_site_fract_x
 _atom_site_fract_y
 _atom_site_fract_z
 _atom_site_occupancy
  Mo  Mo0  1  0.33333331  0.66666666  0.17705200  1
  Ac  Ac1  1  0.66666665  0.33333333  0.82294800  1
  Mo  Mo2  1  0.00000000  0.00000000  0.50000000  1
  P  P3  1  0.00000000  0.00000000  0.34928700  1
  Ru  Ru4  1  0.00000000  0.00000000  0.65071300  1
  Pm  Pm5  1  0.66666665  0.33333333  0.10280900  1
  Zr  Zr6  1  0.33333331  0.66666666  0.89719100  1
