# generated using pymatgen
data_SrYbEuUMnHgPCXe
_symmetry_space_group_name_H-M   'P 1'
_cell_length_a   4.45990181
_cell_length_b   4.49767828
_cell_length_c   6.35550117
_cell_angle_alpha   90.00000000
_cell_angle_beta   90.00000000
_cell_angle_gamma   119.72254944
_symmetry_Int_Tables_number   1
_chemical_formula_structural   SrYbEuUMnHgPCXe
_chemical_formula_sum   'Sr1 Yb1 Eu1 U1 Mn1 Hg1 P1 C1 Xe1'
_cell_volume   110.71374278
_cell_formula_units_Z   1
loop_
 _symmetry_equiv_pos_site_id
 _symmetry_equiv_pos_as_xyz
  1  'x, y, z'
loop_
 _atom_site_type_symbol
 _atom_site_label
 _atom_site_symmetry_multiplicity
 _atom_site_fract_x
 _atom_site_fract_y
 _atom_site_fract_z
 _atom_site_occupancy
  Xe  Xe0  1  0.50000007  1.00000006  -0.00000000  1
  U  U1  1  0.50000005  0.50000003  0.33005599  1
  Mn  Mn2  1  0.00000003  0.50000003  0.66994398  1
  C  C3  1  0.83501207  0.67002404  -0.00000000  1
  Eu  Eu4  1  0.83452004  0.16349701  0.33238899  1
  P  P5  1  0.32897702  0.16349701  0.66761098  1
  Yb  Yb6  1  0.16498802  0.32997602  0.99999997  1
  Sr  Sr7  1  0.16548005  0.83650305  0.33238899  1
  Hg  Hg8  1  0.67102307  0.83650305  0.66761098  1
