# generated using pymatgen
data_LiHeRbSrAcSmDyOsRuPt
_symmetry_space_group_name_H-M   'P 1'
_cell_length_a   8.24168873
_cell_length_b   8.24168873
_cell_length_c   8.24168873
_cell_angle_alpha   60.00000000
_cell_angle_beta   60.00000000
_cell_angle_gamma   60.00000000
_symmetry_Int_Tables_number   1
_chemical_formula_structural   LiHeRbSrAcSmDyOsRuPt
_chemical_formula_sum   'Li1 He1 Rb1 Sr1 Ac1 Sm1 Dy1 Ru1 Os1 Pt1'
_cell_volume   395.85271362
_cell_formula_units_Z   1
loop_
 _symmetry_equiv_pos_site_id
 _symmetry_equiv_pos_as_xyz
  1  'x, y, z'
loop_
 _atom_site_type_symbol
 _atom_site_label
 _atom_site_symmetry_multiplicity
 _atom_site_fract_x
 _atom_site_fract_y
 _atom_site_fract_z
 _atom_site_occupancy
  Li  Li0  1  0.25000000  0.25000000  0.25000000  1
  He  He1  1  0.75000000  0.75000000  0.75000000  1
  Rb  Rb2  1  0.50000000  0.50000000  0.50000000  1
  Ru  Ru3  1  0.00000000  0.00000000  0.00000000  1
  Sm  Sm4  1  0.23298500  0.76701500  0.23298500  1
  Dy  Dy5  1  0.23298500  0.23298500  0.76701500  1
  Os  Os6  1  0.76701500  0.23298500  0.76701500  1
  Pt  Pt7  1  0.23298500  0.76701500  0.76701500  1
  Ac  Ac8  1  0.76701500  0.23298500  0.23298500  1
  Sr  Sr9  1  0.76701500  0.76701500  0.23298500  1
