# generated using pymatgen
data_CePrMgBeNiTeIrSe
_symmetry_space_group_name_H-M   'P 1'
_cell_length_a   5.98257303
_cell_length_b   5.98257303
_cell_length_c   5.98257303
_cell_angle_alpha   90.00000000
_cell_angle_beta   90.00000000
_cell_angle_gamma   90.00000000
_symmetry_Int_Tables_number   1
_chemical_formula_structural   CePrMgBeNiTeIrSe
_chemical_formula_sum   'Ce1 Pr1 Mg1 Be1 Ni1 Te1 Ir1 Se1'
_cell_volume   214.12334879
_cell_formula_units_Z   1
loop_
 _symmetry_equiv_pos_site_id
 _symmetry_equiv_pos_as_xyz
  1  'x, y, z'
loop_
 _atom_site_type_symbol
 _atom_site_label
 _atom_site_symmetry_multiplicity
 _atom_site_fract_x
 _atom_site_fract_y
 _atom_site_fract_z
 _atom_site_occupancy
  Ce  Ce0  1  0.00000000  0.00000000  0.00000000  1
  Be  Be1  1  0.00000000  0.00000000  0.50000000  1
  Ir  Ir2  1  -0.00000000  0.50000000  0.00000000  1
  Pr  Pr3  1  0.50000000  0.00000000  0.00000000  1
  Te  Te4  1  0.74198200  0.74198200  0.25801800  1
  Mg  Mg5  1  0.74198200  0.25801800  0.74198200  1
  Ni  Ni6  1  0.25801800  0.74198200  0.74198200  1
  Se  Se7  1  0.25801800  0.25801800  0.25801800  1
