# generated using pymatgen
data_KCeLuZrNpUTiHgSbAsIrPdBr
_symmetry_space_group_name_H-M   'P 1'
_cell_length_a   6.73312378
_cell_length_b   6.73312378
_cell_length_c   8.78790283
_cell_angle_alpha   90.00000000
_cell_angle_beta   90.00000000
_cell_angle_gamma   120.00000000
_symmetry_Int_Tables_number   1
_chemical_formula_structural   KCeLuZrNpUTiHgSbAsIrPdBr
_chemical_formula_sum
'K1 Ce1 Lu1 Zr1 Np1 U1 Ti1 Hg1 Sb1 As1 Pd1 Ir1 Br1'
_cell_volume   345.02381653
_cell_formula_units_Z   1
loop_
 _symmetry_equiv_pos_site_id
 _symmetry_equiv_pos_as_xyz
  1  'x, y, z'
loop_
 _atom_site_type_symbol
 _atom_site_label
 _atom_site_symmetry_multiplicity
 _atom_site_fract_x
 _atom_site_fract_y
 _atom_site_fract_z
 _atom_site_occupancy
  Zr  Zr0  1  0.66666668  0.33333332  0.63514601  1
  Sb  Sb1  1  0.33333332  0.66666664  0.36485401  1
  K  K2  1  0.00000000  0.00000000  0.00000000  1
  Pd  Pd3  1  0.33333332  0.66666664  0.78153701  1
  Hg  Hg4  1  0.66666668  0.33333332  0.21846300  1
  Np  Np5  1  0.17058698  0.82941197  0.69177701  1
  Ti  Ti6  1  0.82941302  0.17058799  0.30822301  1
  Br  Br7  1  0.34117501  0.17058799  0.30822301  1
  Ce  Ce8  1  0.66666668  0.33333332  0.98854102  1
  U  U9  1  0.33333332  0.66666664  0.01145900  1
  Ir  Ir10  1  0.65882499  0.82941197  0.69177701  1
  Lu  Lu11  1  0.17058699  0.34117399  0.69177701  1
  As  As12  1  0.82941300  0.65882597  0.30822301  1
