# generated using pymatgen
data_RbGdPuZrNpBeInGaTcBiSbTeMoAsH2PbAuSeI
_symmetry_space_group_name_H-M   'P 1'
_cell_length_a   5.33985567
_cell_length_b   6.62309504
_cell_length_c   6.62309504
_cell_angle_alpha   84.91793823
_cell_angle_beta   83.85118866
_cell_angle_gamma   83.85118866
_symmetry_Int_Tables_number   1
_chemical_formula_structural   RbGdPuZrNpBeInGaTcBiSbTeMoAsH2PbAuSeI
_chemical_formula_sum
;
Rb1 Gd1 Pu1 Zr1 Np1 Be1 In1 Ga1 Tc1 Bi1 Sb1 Te1 Mo1 As1 H2 Pb1 Au1 Se1
I1
;
_cell_volume   230.84198682
_cell_formula_units_Z   1
loop_
 _symmetry_equiv_pos_site_id
 _symmetry_equiv_pos_as_xyz
  1  'x, y, z'
loop_
 _atom_site_type_symbol
 _atom_site_label
 _atom_site_symmetry_multiplicity
 _atom_site_fract_x
 _atom_site_fract_y
 _atom_site_fract_z
 _atom_site_occupancy
  As  As0  1  0.31965600  0.39672500  0.21903702  1
  Sb  Sb1  1  0.81965599  0.21903700  0.39672502  1
  Gd  Gd2  1  0.18034401  0.78096299  0.60327504  1
  Be  Be3  1  0.68034400  0.60327499  0.78096303  1
  Tc  Tc4  1  0.25000001  0.92155499  0.07844505  1
  H  H5  1  0.25000000  0.25571100  0.74428901  1
  Rb  Rb6  1  0.75000000  0.74428899  0.25571104  1
  Bi  Bi7  1  0.74999999  0.07844500  0.92155501  1
  Pu  Pu8  1  0.39078000  0.19463600  0.01272701  1
  In  In9  1  0.89077998  0.01272700  0.19463601  1
  Zr  Zr10  1  0.10922001  0.98727299  0.80536404  1
  Te  Te11  1  0.60922000  0.80536399  0.98727304  1
  Np  Np12  1  0.13755800  0.28965600  0.46461801  1
  H  H13  1  0.11132301  0.63918199  0.13838103  1
  Au  Au14  1  0.63755799  0.46461800  0.28965603  1
  Ga  Ga15  1  0.61132299  0.13838100  0.63918201  1
  Mo  Mo16  1  0.38867701  0.86161899  0.36081804  1
  I  I17  1  0.36244200  0.53538200  0.71034403  1
  Pb  Pb18  1  0.88867699  0.36081800  0.86161903  1
  Se  Se19  1  0.86244199  0.71034399  0.53538204  1
