# generated using pymatgen
data_KBaTbYbY2ErTmUTi2TlZnCrNiBiSbRh
_symmetry_space_group_name_H-M   'P 1'
_cell_length_a   6.07122183
_cell_length_b   6.07122231
_cell_length_c   7.10516024
_cell_angle_alpha   90.00000000
_cell_angle_beta   90.00000000
_cell_angle_gamma   120.00000000
_symmetry_Int_Tables_number   1
_chemical_formula_structural   KBaTbYbY2ErTmUTi2TlZnCrNiBiSbRh
_chemical_formula_sum
'K1 Ba1 Yb1 Tb1 Y2 Er1 Tm1 U1 Ti2 Tl1 Zn1 Cr1 Ni1 Bi1 Sb1 Rh1'
_cell_volume   226.80715189
_cell_formula_units_Z   1
loop_
 _symmetry_equiv_pos_site_id
 _symmetry_equiv_pos_as_xyz
  1  'x, y, z'
loop_
 _atom_site_type_symbol
 _atom_site_label
 _atom_site_symmetry_multiplicity
 _atom_site_fract_x
 _atom_site_fract_y
 _atom_site_fract_z
 _atom_site_occupancy
  Ti  Ti0  1  0.00000000  0.00000000  0.71228898  1
  Zn  Zn1  1  0.00000000  0.00000000  0.28771099  1
  U  U2  1  0.66666670  0.33333335  0.49999998  1
  Ni  Ni3  1  0.33333338  0.66666670  0.25337799  1
  Y  Y4  1  0.33333338  0.66666670  0.74662198  1
  Er  Er5  1  0.66666670  0.33333335  0.99999997  1
  Tm  Tm6  1  0.08789802  0.39389902  0.99999997  1
  Ti  Ti7  1  0.10806402  0.38411602  0.49999998  1
  K  K8  1  0.30600105  0.91210204  0.99999997  1
  Yb  Yb9  1  0.27605205  0.89193604  0.49999998  1
  Sb  Sb10  1  0.92665406  0.60221203  0.23557399  1
  Tl  Tl11  1  0.92665406  0.60221203  0.76442597  1
  Ba  Ba12  1  0.61588405  0.72394804  0.49999998  1
  Tb  Tb13  1  0.60610105  0.69399903  0.99999997  1
  Bi  Bi14  1  0.67555802  0.07334600  0.23557399  1
  Y  Y15  1  0.67555802  0.07334600  0.76442597  1
  Rh  Rh16  1  0.39778803  0.32444202  0.23557399  1
  Cr  Cr17  1  0.39778803  0.32444202  0.76442597  1
