# generated using pymatgen
data_NaSrLiYbYErHfThScNbGaNiAuXe2He
_symmetry_space_group_name_H-M   'P 1'
_cell_length_a   4.54262018
_cell_length_b   7.48167276
_cell_length_c   9.52956200
_cell_angle_alpha   90.00000000
_cell_angle_beta   90.00000000
_cell_angle_gamma   90.00000000
_symmetry_Int_Tables_number   1
_chemical_formula_structural   NaSrLiYbYErHfThScNbGaNiAuXe2He
_chemical_formula_sum
'Na1 Sr1 Li1 Yb1 Y1 Er1 Hf1 Th1 Sc1 Nb1 Ga1 Ni1 Au1 Xe2 He1'
_cell_volume   323.87548385
_cell_formula_units_Z   1
loop_
 _symmetry_equiv_pos_site_id
 _symmetry_equiv_pos_as_xyz
  1  'x, y, z'
loop_
 _atom_site_type_symbol
 _atom_site_label
 _atom_site_symmetry_multiplicity
 _atom_site_fract_x
 _atom_site_fract_y
 _atom_site_fract_z
 _atom_site_occupancy
  Sc  Sc0  1  0.74999997  0.38119201  0.67341300  1
  Au  Au1  1  0.74999997  0.88119203  0.82658700  1
  Xe  Xe2  1  0.24999999  0.11880800  0.17341300  1
  Ni  Ni3  1  0.24999999  0.61880802  0.32658700  1
  Sr  Sr4  1  0.24999999  0.06435700  0.53445600  1
  Na  Na5  1  0.24999999  0.56435702  0.96554400  1
  Hf  Hf6  1  0.74999997  0.43564301  0.03445600  1
  Li  Li7  1  0.74999997  0.93564303  0.46554400  1
  Ga  Ga8  1  0.74999997  0.72043502  0.51846700  1
  Nb  Nb9  1  0.24999999  0.10374200  0.70685200  1
  Xe  Xe10  1  0.24999999  0.60374202  0.79314800  1
  Th  Th11  1  0.74999997  0.22043501  0.98153300  1
  Yb  Yb12  1  0.24999999  0.77956502  0.01846700  1
  He  He13  1  0.74999997  0.39625801  0.20685200  1
  Y  Y14  1  0.74999997  0.89625803  0.29314800  1
  Er  Er15  1  0.24999999  0.27956501  0.48153300  1
