# generated using pymatgen
data_ScNeLiEuHoErPuFeCoSiSn2HgGe2SbMoAuSeO
_symmetry_space_group_name_H-M   'P 1'
_cell_length_a   5.37756920
_cell_length_b   6.42439890
_cell_length_c   8.31644630
_cell_angle_alpha   90.00000000
_cell_angle_beta   90.00000000
_cell_angle_gamma   90.00000000
_symmetry_Int_Tables_number   1
_chemical_formula_structural   ScNeLiEuHoErPuFeCoSiSn2HgGe2SbMoAuSeO
_chemical_formula_sum
'Sc1 Ne1 Li1 Eu1 Ho1 Er1 Pu1 Fe1 Co1 Si1 Sn2 Hg1 Ge2 Sb1 Mo1 Au1 Se1 O1'
_cell_volume   287.31367317
_cell_formula_units_Z   1
loop_
 _symmetry_equiv_pos_site_id
 _symmetry_equiv_pos_as_xyz
  1  'x, y, z'
loop_
 _atom_site_type_symbol
 _atom_site_label
 _atom_site_symmetry_multiplicity
 _atom_site_fract_x
 _atom_site_fract_y
 _atom_site_fract_z
 _atom_site_occupancy
  Sc  Sc0  1  0.00000000  0.00000000  0.49999998  1
  Ne  Ne1  1  0.49999998  0.50000001  0.49999998  1
  Ge  Ge2  1  0.49999998  0.50000001  0.00000000  1
  Hg  Hg3  1  0.00000000  0.00000000  0.00000000  1
  Au  Au4  1  0.48355298  0.96816202  0.74999997  1
  Pu  Pu5  1  0.98355296  0.53183801  0.24999999  1
  Co  Co6  1  0.01644700  0.46816201  0.74999997  1
  Fe  Fe7  1  0.51644698  0.03183800  0.24999999  1
  Li  Li8  1  0.63205698  0.17626400  0.41201698  1
  Sn  Sn9  1  0.13205700  0.32373601  0.58798298  1
  Ho  Ho10  1  0.86794297  0.67626401  0.08798300  1
  Se  Se11  1  0.36794299  0.82373601  0.91201697  1
  O  O12  1  0.36794299  0.82373601  0.58798298  1
  Ge  Ge13  1  0.86794297  0.67626401  0.41201698  1
  Sn  Sn14  1  0.13205700  0.32373601  0.91201697  1
  Sb  Sb15  1  0.63205698  0.17626400  0.08798300  1
  Mo  Mo16  1  0.20173299  0.09233700  0.24999999  1
  Er  Er17  1  0.70173297  0.40766301  0.74999997  1
  Si  Si18  1  0.29826699  0.59233701  0.24999999  1
  Eu  Eu19  1  0.79826697  0.90766301  0.74999997  1
