# generated using pymatgen
data_RbAcYbPrEuTiMnAl2ZnTc2Ni2AgBiSbOs
_symmetry_space_group_name_H-M   'P 1'
_cell_length_a   4.75115824
_cell_length_b   4.75115824
_cell_length_c   9.42056274
_cell_angle_alpha   90.00000000
_cell_angle_beta   90.00000000
_cell_angle_gamma   90.00000000
_symmetry_Int_Tables_number   1
_chemical_formula_structural   RbAcYbPrEuTiMnAl2ZnTc2Ni2AgBiSbOs
_chemical_formula_sum
'Rb1 Yb1 Ac1 Pr1 Eu1 Ti1 Mn1 Al2 Zn1 Tc2 Ni2 Ag1 Bi1 Sb1 Os1'
_cell_volume   212.65511641
_cell_formula_units_Z   1
loop_
 _symmetry_equiv_pos_site_id
 _symmetry_equiv_pos_as_xyz
  1  'x, y, z'
loop_
 _atom_site_type_symbol
 _atom_site_label
 _atom_site_symmetry_multiplicity
 _atom_site_fract_x
 _atom_site_fract_y
 _atom_site_fract_z
 _atom_site_occupancy
  Ti  Ti0  1  0.00000000  0.00000000  0.00000000  1
  Os  Os1  1  0.49999998  0.49999998  0.50000001  1
  Eu  Eu2  1  0.49999998  0.49999998  0.83218202  1
  Ni  Ni3  1  0.00000000  0.00000000  0.33218201  1
  Pr  Pr4  1  0.49999998  0.49999998  0.16781800  1
  Yb  Yb5  1  0.00000000  0.00000000  0.66781802  1
  Tc  Tc6  1  0.69857797  0.69857797  0.67291302  1
  Ni  Ni7  1  0.30142198  0.30142198  0.67291302  1
  Al  Al8  1  0.69857797  0.69857797  0.32708701  1
  Ag  Ag9  1  0.19857799  0.80142196  0.17291300  1
  Al  Al10  1  0.80142196  0.19857799  0.17291300  1
  Tc  Tc11  1  0.80142196  0.19857799  0.82708702  1
  Sb  Sb12  1  0.31163798  0.31163798  0.00000000  1
  Zn  Zn13  1  0.18836199  0.81163796  0.50000001  1
  Ac  Ac14  1  0.81163796  0.18836199  0.50000001  1
  Rb  Rb15  1  0.68836197  0.68836197  0.00000000  1
  Mn  Mn16  1  0.30142198  0.30142198  0.32708701  1
  Bi  Bi17  1  0.19857799  0.80142196  0.82708702  1
