# generated using pymatgen
data_Na2AcEu2Dy2HoTmPtBrO
_symmetry_space_group_name_H-M   'P 1'
_cell_length_a   6.26144886
_cell_length_b   6.26144886
_cell_length_c   6.26144886
_cell_angle_alpha   90.00000000
_cell_angle_beta   90.00000000
_cell_angle_gamma   90.00000000
_symmetry_Int_Tables_number   1
_chemical_formula_structural   Na2AcEu2Dy2HoTmPtBrO
_chemical_formula_sum   'Na2 Ac1 Eu2 Dy2 Ho1 Tm1 Pt1 Br1 O1'
_cell_volume   245.48474748
_cell_formula_units_Z   1
loop_
 _symmetry_equiv_pos_site_id
 _symmetry_equiv_pos_as_xyz
  1  'x, y, z'
loop_
 _atom_site_type_symbol
 _atom_site_label
 _atom_site_symmetry_multiplicity
 _atom_site_fract_x
 _atom_site_fract_y
 _atom_site_fract_z
 _atom_site_occupancy
  Dy  Dy0  1  0.87724402  0.37724401  0.12275600  1
  Eu  Eu1  1  0.37724401  0.12275600  0.87724402  1
  Tm  Tm2  1  0.12275600  0.87724402  0.37724401  1
  Pt  Pt3  1  0.62275601  0.62275601  0.62275601  1
  Br  Br4  1  0.50505601  0.00505600  0.49494401  1
  Eu  Eu5  1  0.00505600  0.49494401  0.50505601  1
  Ac  Ac6  1  0.49494401  0.50505601  0.00505600  1
  O  O7  1  0.99494402  0.99494402  0.99494402  1
  Na  Na8  1  0.12192200  0.62192201  0.87807802  1
  Dy  Dy9  1  0.62192201  0.87807802  0.12192200  1
  Ho  Ho10  1  0.87807802  0.12192200  0.62192201  1
  Na  Na11  1  0.37807801  0.37807801  0.37807801  1
