# generated using pymatgen
data_CsLi2GdHfZrNp2BeCoRe2SiAsHOsPdPbAuKr
_symmetry_space_group_name_H-M   'P 1'
_cell_length_a   5.52122593
_cell_length_b   5.84036303
_cell_length_c   8.17680359
_cell_angle_alpha   90.00000000
_cell_angle_beta   90.00000000
_cell_angle_gamma   90.00000000
_symmetry_Int_Tables_number   1
_chemical_formula_structural   CsLi2GdHfZrNp2BeCoRe2SiAsHOsPdPbAuKr
_chemical_formula_sum
'Cs1 Li2 Gd1 Hf1 Zr1 Np2 Be1 Co1 Si1 Re2 As1 H1 Pd1 Os1 Pb1 Au1 Kr1'
_cell_volume   263.66891231
_cell_formula_units_Z   1
loop_
 _symmetry_equiv_pos_site_id
 _symmetry_equiv_pos_as_xyz
  1  'x, y, z'
loop_
 _atom_site_type_symbol
 _atom_site_label
 _atom_site_symmetry_multiplicity
 _atom_site_fract_x
 _atom_site_fract_y
 _atom_site_fract_z
 _atom_site_occupancy
  As  As0  1  0.01791600  0.93732000  0.75000004  1
  Be  Be1  1  0.48208401  0.43732000  0.75000004  1
  Kr  Kr2  1  0.51791601  0.56268000  0.25000001  1
  Np  Np3  1  0.98208401  0.06268000  0.25000001  1
  H  H4  1  -0.00000000  0.50000000  0.00000000  1
  Pd  Pd5  1  -0.00000000  0.50000000  0.50000003  1
  Hf  Hf6  1  0.50000001  0.00000000  0.00000000  1
  Si  Si7  1  0.50000001  0.00000000  0.50000003  1
  Re  Re8  1  0.14814500  0.42331500  0.25000001  1
  Co  Co9  1  0.17978700  0.18348700  0.57515803  1
  Gd  Gd10  1  0.17978700  0.18348700  0.92484205  1
  Au  Au11  1  0.32021300  0.68348700  0.57515803  1
  Pb  Pb12  1  0.32021300  0.68348700  0.92484205  1
  Li  Li13  1  0.35185500  0.92331500  0.25000001  1
  Cs  Cs14  1  0.64814501  0.07668500  0.75000004  1
  Np  Np15  1  0.67978701  0.31651300  0.07515800  1
  Li  Li16  1  0.67978701  0.31651300  0.42484202  1
  Os  Os17  1  0.82021301  0.81651300  0.07515800  1
  Re  Re18  1  0.82021301  0.81651300  0.42484202  1
  Zr  Zr19  1  0.85185501  0.57668500  0.75000004  1
