# generated using pymatgen
data_PmEuHoMgTlNiMoH2PdAuNe
_symmetry_space_group_name_H-M   'P 1'
_cell_length_a   4.06895304
_cell_length_b   6.64732885
_cell_length_c   8.07205868
_cell_angle_alpha   90.00000000
_cell_angle_beta   90.00000000
_cell_angle_gamma   90.00000000
_symmetry_Int_Tables_number   1
_chemical_formula_structural   PmEuHoMgTlNiMoH2PdAuNe
_chemical_formula_sum   'Pm1 Eu1 Ho1 Mg1 Tl1 Ni1 Mo1 H2 Pd1 Au1 Ne1'
_cell_volume   218.33037069
_cell_formula_units_Z   1
loop_
 _symmetry_equiv_pos_site_id
 _symmetry_equiv_pos_as_xyz
  1  'x, y, z'
loop_
 _atom_site_type_symbol
 _atom_site_label
 _atom_site_symmetry_multiplicity
 _atom_site_fract_x
 _atom_site_fract_y
 _atom_site_fract_z
 _atom_site_occupancy
  Au  Au0  1  0.74999999  0.03132500  0.80622203  1
  H  H1  1  0.25000000  0.46867501  0.30622201  1
  Mo  Mo2  1  0.74999999  0.53132501  0.69377803  1
  Ho  Ho3  1  0.25000000  0.96867502  0.19377801  1
  Mg  Mg4  1  0.25000000  0.93283702  0.53771502  1
  Tl  Tl5  1  0.74999999  0.56716301  0.03771500  1
  Ni  Ni6  1  0.25000000  0.43283701  0.96228504  1
  Ne  Ne7  1  0.74999999  0.06716300  0.46228502  1
  Pd  Pd8  1  0.74999999  0.20746200  0.42804002  1
  H  H9  1  0.25000000  0.29253801  0.92804004  1
  Eu  Eu10  1  0.74999999  0.70746202  0.07196000  1
  Pm  Pm11  1  0.25000000  0.79253802  0.57196002  1
