# generated using pymatgen
data_YbHgTeHKr
_symmetry_space_group_name_H-M   'P 1'
_cell_length_a   4.52957249
_cell_length_b   4.52957249
_cell_length_c   4.52957249
_cell_angle_alpha   80.01502991
_cell_angle_beta   80.01502991
_cell_angle_gamma   80.01502228
_symmetry_Int_Tables_number   1
_chemical_formula_structural   YbHgTeHKr
_chemical_formula_sum   'Yb1 Hg1 Te1 H1 Kr1'
_cell_volume   89.14985699
_cell_formula_units_Z   1
loop_
 _symmetry_equiv_pos_site_id
 _symmetry_equiv_pos_as_xyz
  1  'x, y, z'
loop_
 _atom_site_type_symbol
 _atom_site_label
 _atom_site_symmetry_multiplicity
 _atom_site_fract_x
 _atom_site_fract_y
 _atom_site_fract_z
 _atom_site_occupancy
  Te  Te0  1  0.01853700  0.01853700  0.01853700  1
  H  H1  1  0.51086397  0.51086400  0.51086402  1
  Hg  Hg2  1  0.17113896  0.58724800  0.58724802  1
  Kr  Kr3  1  0.58724796  0.58724800  0.17113901  1
  Yb  Yb4  1  0.58724799  0.17113900  0.58724802  1
