# generated using pymatgen
data_SmMgNbCrFePOsRhF
_symmetry_space_group_name_H-M   'P 1'
_cell_length_a   4.18656301
_cell_length_b   4.18656301
_cell_length_c   8.30715370
_cell_angle_alpha   90.00000000
_cell_angle_beta   90.00000000
_cell_angle_gamma   90.00000000
_symmetry_Int_Tables_number   1
_chemical_formula_structural   SmMgNbCrFePOsRhF
_chemical_formula_sum   'Sm1 Mg1 Nb1 Cr1 Fe1 P1 Os1 Rh1 F1'
_cell_volume   145.60205714
_cell_formula_units_Z   1
loop_
 _symmetry_equiv_pos_site_id
 _symmetry_equiv_pos_as_xyz
  1  'x, y, z'
loop_
 _atom_site_type_symbol
 _atom_site_label
 _atom_site_symmetry_multiplicity
 _atom_site_fract_x
 _atom_site_fract_y
 _atom_site_fract_z
 _atom_site_occupancy
  Cr  Cr0  1  0.00000000  0.00000000  0.00000000  1
  Nb  Nb1  1  0.00000000  0.00000000  0.50000002  1
  Sm  Sm2  1  0.50000000  0.50000000  0.26134101  1
  Fe  Fe3  1  0.50000000  0.50000000  0.73865903  1
  Rh  Rh4  1  0.50000000  0.00000000  0.22069601  1
  F  F5  1  0.50000000  0.00000000  0.77930403  1
  Mg  Mg6  1  0.00000000  0.50000000  0.22069601  1
  Os  Os7  1  0.00000000  0.50000000  0.77930403  1
  P  P8  1  0.50000000  0.50000000  0.50000002  1
