# generated using pymatgen
data_RbCaCePmLuPaFe3CuMoPPdXeFHe
_symmetry_space_group_name_H-M   'P 1'
_cell_length_a   3.94141889
_cell_length_b   3.94141889
_cell_length_c   15.31271839
_cell_angle_alpha   90.00000000
_cell_angle_beta   90.00000000
_cell_angle_gamma   90.00000000
_symmetry_Int_Tables_number   1
_chemical_formula_structural   RbCaCePmLuPaFe3CuMoPPdXeFHe
_chemical_formula_sum
'Rb1 Ca1 Ce1 Pm1 Lu1 Pa1 Fe3 Cu1 Mo1 P1 Pd1 Xe1 F1 He1'
_cell_volume   237.87975485
_cell_formula_units_Z   1
loop_
 _symmetry_equiv_pos_site_id
 _symmetry_equiv_pos_as_xyz
  1  'x, y, z'
loop_
 _atom_site_type_symbol
 _atom_site_label
 _atom_site_symmetry_multiplicity
 _atom_site_fract_x
 _atom_site_fract_y
 _atom_site_fract_z
 _atom_site_occupancy
  Pa  Pa0  1  0.50000001  0.50000001  0.49999999  1
  Fe  Fe1  1  0.50000001  0.50000001  0.84980498  1
  Ca  Ca2  1  0.50000001  0.50000001  0.15019500  1
  F  F3  1  0.00000000  0.00000000  0.00000000  1
  Xe  Xe4  1  0.00000000  0.00000000  0.27995199  1
  Lu  Lu5  1  0.00000000  0.00000000  0.72004798  1
  Mo  Mo6  1  0.00000000  0.00000000  0.60260498  1
  He  He7  1  0.00000000  0.00000000  0.39739499  1
  Cu  Cu8  1  0.50000001  0.00000000  0.74736098  1
  P  P9  1  0.00000000  0.50000001  0.74736098  1
  Pm  Pm10  1  0.50000001  0.00000000  0.25263899  1
  Rb  Rb11  1  0.00000000  0.50000001  0.25263899  1
  Pd  Pd12  1  0.00000000  0.50000001  0.00000000  1
  Fe  Fe13  1  0.50000001  0.00000000  0.00000000  1
  Ce  Ce14  1  0.00000000  0.00000000  0.12876200  1
  Fe  Fe15  1  0.00000000  0.00000000  0.87123798  1
