# generated using pymatgen
data_SrEuDyLuHf2ZrTiInFeReTeIrOsRhSe
_symmetry_space_group_name_H-M   'P 1'
_cell_length_a   5.44809961
_cell_length_b   6.65061760
_cell_length_c   6.69425631
_cell_angle_alpha   70.42644501
_cell_angle_beta   89.97434235
_cell_angle_gamma   89.50746155
_symmetry_Int_Tables_number   1
_chemical_formula_structural   SrEuDyLuHf2ZrTiInFeReTeIrOsRhSe
_chemical_formula_sum
'Sr1 Eu1 Dy1 Lu1 Hf2 Zr1 Ti1 In1 Fe1 Re1 Te1 Ir1 Os1 Rh1 Se1'
_cell_volume   228.52860773
_cell_formula_units_Z   1
loop_
 _symmetry_equiv_pos_site_id
 _symmetry_equiv_pos_as_xyz
  1  'x, y, z'
loop_
 _atom_site_type_symbol
 _atom_site_label
 _atom_site_symmetry_multiplicity
 _atom_site_fract_x
 _atom_site_fract_y
 _atom_site_fract_z
 _atom_site_occupancy
  Hf  Hf0  1  0.00021000  0.50055000  0.50126202  1
  Ir  Ir1  1  0.49641299  0.24772300  0.24787004  1
  Eu  Eu2  1  0.99735997  0.00076500  0.00072705  1
  Se  Se3  1  0.50048599  0.75063300  0.75070006  1
  Fe  Fe4  1  0.74834098  0.13471400  0.12682004  1
  Dy  Dy5  1  0.24762599  0.86462100  0.86611405  1
  Rh  Rh6  1  0.73900798  0.62821500  0.62665107  1
  Hf  Hf7  1  0.26796799  0.37315900  0.38044803  1
  Te  Te8  1  0.23866599  0.61936900  0.61911804  1
  Lu  Lu9  1  0.77067398  0.37908800  0.37929306  1
  Os  Os10  1  0.24881799  0.12332200  0.12383002  1
  Ti  Ti11  1  0.74395198  0.87841900  0.87751608  1
  In  In12  1  0.50055499  0.49644200  0.99979205  1
  Zr  Zr13  1  0.00001600  0.24400000  0.75992401  1
  Re  Re14  1  0.49979199  0.99989799  0.49685807  1
  Sr  Sr15  1  0.00011600  0.75908500  0.24307804  1
