# generated using pymatgen
data_CsBaTbLuUTlFeSiPtRhBrCl
_symmetry_space_group_name_H-M   'P 1'
_cell_length_a   3.84317207
_cell_length_b   6.63458347
_cell_length_c   6.72708464
_cell_angle_alpha   107.16138458
_cell_angle_beta   90.00000000
_cell_angle_gamma   106.83590698
_symmetry_Int_Tables_number   1
_chemical_formula_structural   CsBaTbLuUTlFeSiPtRhBrCl
_chemical_formula_sum
'Cs1 Ba1 Tb1 Lu1 U1 Tl1 Fe1 Si1 Pt1 Rh1 Br1 Cl1'
_cell_volume   156.17837891
_cell_formula_units_Z   1
loop_
 _symmetry_equiv_pos_site_id
 _symmetry_equiv_pos_as_xyz
  1  'x, y, z'
loop_
 _atom_site_type_symbol
 _atom_site_label
 _atom_site_symmetry_multiplicity
 _atom_site_fract_x
 _atom_site_fract_y
 _atom_site_fract_z
 _atom_site_occupancy
  U  U0  1  0.89666189  0.79332398  0.76696200  1
  Cl  Cl1  1  0.10333797  0.20667599  0.23303800  1
  Si  Si2  1  0.80287392  0.60574798  0.18391999  1
  Tb  Tb3  1  0.19712595  0.39425199  0.81608001  1
  Pt  Pt4  1  0.13667597  0.27335199  0.51679100  1
  Rh  Rh5  1  0.86332390  0.72664798  0.48320899  1
  Lu  Lu6  1  0.05415399  0.10830800  0.86486702  1
  Br  Br7  1  0.94584588  0.89169198  0.13513298  1
  Tl  Tl8  1  0.74171693  0.48343399  0.85509701  1
  Cs  Cs9  1  0.25828294  0.51656599  0.14490399  1
  Fe  Fe10  1  0.63899596  0.27799199  0.20414300  1
  Ba  Ba11  1  0.36100391  0.72200798  0.79585700  1
