# generated using pymatgen
data_CaYZr2NpTiBeNbCu2ReHOsPtCIKrN2
_symmetry_space_group_name_H-M   'P 1'
_cell_length_a   5.87253618
_cell_length_b   6.67529154
_cell_length_c   8.19451904
_cell_angle_alpha   73.77540588
_cell_angle_beta   69.05623627
_cell_angle_gamma   89.93393707
_symmetry_Int_Tables_number   1
_chemical_formula_structural   CaYZr2NpTiBeNbCu2ReHOsPtCIKrN2
_chemical_formula_sum
'Ca1 Y1 Zr2 Np1 Ti1 Be1 Nb1 Cu2 Re1 Os1 H1 Pt1 C1 I1 Kr1 N2'
_cell_volume   286.31007513
_cell_formula_units_Z   1
loop_
 _symmetry_equiv_pos_site_id
 _symmetry_equiv_pos_as_xyz
  1  'x, y, z'
loop_
 _atom_site_type_symbol
 _atom_site_label
 _atom_site_symmetry_multiplicity
 _atom_site_fract_x
 _atom_site_fract_y
 _atom_site_fract_z
 _atom_site_occupancy
  I  I0  1  0.78589700  0.59622501  0.40473197  1
  Cu  Cu1  1  0.60399299  0.22174400  0.78187397  1
  Ti  Ti2  1  0.39600704  0.77825601  0.21812595  1
  Ca  Ca3  1  0.21410302  0.40377500  0.59526795  1
  Zr  Zr4  1  0.90145198  0.28556200  0.18920500  1
  N  N5  1  0.71483303  0.90160101  0.60078093  1
  Kr  Kr6  1  0.50000001  0.50000000  -0.00000002  1
  Cu  Cu7  1  0.28516699  0.09839900  0.39921898  1
  C  C8  1  0.09854804  0.71443801  0.81079492  1
  N  N9  1  0.39062404  0.85549801  0.90235491  1
  Os  Os10  1  0.58835299  0.24518100  0.48635298  1
  Np  Np11  1  0.98803696  0.05665100  0.70164300  1
  Re  Re12  1  0.17110202  0.44087100  0.30138696  1
  Pt  Pt13  1  0.78370301  0.63821201  0.10345498  1
  H  H14  1  0.21629701  0.36178800  0.89654494  1
  Y  Y15  1  0.41164703  0.75481901  0.51364694  1
  Zr  Zr16  1  0.82889800  0.55912901  0.69861296  1
  Nb  Nb17  1  0.01196306  0.94334901  0.29835692  1
  Be  Be18  1  0.60937598  0.14450200  0.09764501  1
