# generated using pymatgen
data_CaLa2CdReTcRuSKr
_symmetry_space_group_name_H-M   'P 1'
_cell_length_a   7.96104240
_cell_length_b   7.96104240
_cell_length_c   7.96104240
_cell_angle_alpha   60.00000000
_cell_angle_beta   60.00000000
_cell_angle_gamma   60.00000000
_symmetry_Int_Tables_number   1
_chemical_formula_structural   CaLa2CdReTcRuSKr
_chemical_formula_sum   'Ca1 La2 Cd1 Tc1 Re1 Ru1 S1 Kr1'
_cell_volume   356.77532769
_cell_formula_units_Z   1
loop_
 _symmetry_equiv_pos_site_id
 _symmetry_equiv_pos_as_xyz
  1  'x, y, z'
loop_
 _atom_site_type_symbol
 _atom_site_label
 _atom_site_symmetry_multiplicity
 _atom_site_fract_x
 _atom_site_fract_y
 _atom_site_fract_z
 _atom_site_occupancy
  Tc  Tc0  1  0.25000000  0.25000000  0.25000000  1
  Re  Re1  1  0.74999999  0.74999999  0.74999999  1
  Ca  Ca2  1  0.00000000  0.00000000  0.00000000  1
  La  La3  1  0.75614999  0.24385000  0.24385000  1
  Cd  Cd4  1  0.24385000  0.24385000  0.75614999  1
  La  La5  1  0.75614999  0.75614999  0.24385000  1
  S  S6  1  0.24385000  0.75614999  0.75614999  1
  Ru  Ru7  1  0.75614999  0.24385000  0.75614999  1
  Kr  Kr8  1  0.24385000  0.75614999  0.24385000  1
