# generated using pymatgen
data_RbLaCeUBeNbAlCrTcBiSbPdRhPbAuI
_symmetry_space_group_name_H-M   'P 1'
_cell_length_a   5.65749216
_cell_length_b   6.44956541
_cell_length_c   7.65287113
_cell_angle_alpha   90.00000000
_cell_angle_beta   90.00000000
_cell_angle_gamma   116.01425934
_symmetry_Int_Tables_number   1
_chemical_formula_structural   RbLaCeUBeNbAlCrTcBiSbPdRhPbAuI
_chemical_formula_sum
'Rb1 La1 Ce1 U1 Be1 Nb1 Al1 Cr1 Tc1 Bi1 Sb1 Pd1 Rh1 Pb1 Au1 I1'
_cell_volume   250.94946087
_cell_formula_units_Z   1
loop_
 _symmetry_equiv_pos_site_id
 _symmetry_equiv_pos_as_xyz
  1  'x, y, z'
loop_
 _atom_site_type_symbol
 _atom_site_label
 _atom_site_symmetry_multiplicity
 _atom_site_fract_x
 _atom_site_fract_y
 _atom_site_fract_z
 _atom_site_occupancy
  Tc  Tc0  1  0.83636496  0.67272998  0.43626399  1
  I  I1  1  0.16363499  0.32726999  0.56373599  1
  Nb  Nb2  1  0.66363497  0.32726999  0.93626398  1
  Be  Be3  1  0.33636498  0.67272998  0.06373600  1
  U  U4  1  0.04851200  0.09702400  0.14025300  1
  Rb  Rb5  1  0.45148797  0.90297597  0.64025299  1
  La  La6  1  0.95148795  0.90297597  0.85974699  1
  Pb  Pb7  1  0.54851198  0.09702400  0.35974699  1
  Rh  Rh8  1  0.84539797  0.19079599  0.25000000  1
  Ce  Ce9  1  0.65460197  0.80920398  0.74999999  1
  Al  Al10  1  0.15460198  0.80920398  0.74999999  1
  Au  Au11  1  0.34539799  0.19079599  0.25000000  1
  Pd  Pd12  1  0.89918196  0.79836398  0.07979900  1
  Cr  Cr13  1  0.39918197  0.79836398  0.42020099  1
  Sb  Sb14  1  0.60081798  0.20163599  0.57979899  1
  Bi  Bi15  1  0.10081799  0.20163599  0.92020098  1
