# generated using pymatgen
data_CsK2TbMgCdCo2HPd
_symmetry_space_group_name_H-M   'P 1'
_cell_length_a   6.62069464
_cell_length_b   6.62069464
_cell_length_c   6.62069464
_cell_angle_alpha   60.00000000
_cell_angle_beta   60.00000000
_cell_angle_gamma   60.00000000
_symmetry_Int_Tables_number   1
_chemical_formula_structural   CsK2TbMgCdCo2HPd
_chemical_formula_sum   'Cs1 K2 Tb1 Mg1 Cd1 Co2 Pd1 H1'
_cell_volume   205.20865553
_cell_formula_units_Z   1
loop_
 _symmetry_equiv_pos_site_id
 _symmetry_equiv_pos_as_xyz
  1  'x, y, z'
loop_
 _atom_site_type_symbol
 _atom_site_label
 _atom_site_symmetry_multiplicity
 _atom_site_fract_x
 _atom_site_fract_y
 _atom_site_fract_z
 _atom_site_occupancy
  Cd  Cd0  1  0.25000000  0.25000000  0.25000000  1
  K  K1  1  0.74999999  0.74999999  0.74999999  1
  Co  Co2  1  0.49999999  0.49999999  0.49999999  1
  Co  Co3  1  0.00000000  0.00000000  0.00000000  1
  Pd  Pd4  1  0.22425000  0.77574999  0.22425000  1
  Cs  Cs5  1  0.22425000  0.22425000  0.77574999  1
  H  H6  1  0.77574999  0.22425000  0.77574999  1
  K  K7  1  0.22425000  0.77574999  0.77574999  1
  Tb  Tb8  1  0.77574999  0.22425000  0.22425000  1
  Mg  Mg9  1  0.77574999  0.77574999  0.22425000  1
