# generated using pymatgen
data_LiCaAcLaErPuMnNbTlSiTcBMo2RuRhPbSClF
_symmetry_space_group_name_H-M   'P 1'
_cell_length_a   6.38242722
_cell_length_b   6.41910124
_cell_length_c   10.20449066
_cell_angle_alpha   102.82022858
_cell_angle_beta   90.00000000
_cell_angle_gamma   90.00000000
_symmetry_Int_Tables_number   1
_chemical_formula_structural   LiCaAcLaErPuMnNbTlSiTcBMo2RuRhPbSClF
_chemical_formula_sum
;
Li1 Ca1 La1 Ac1 Er1 Pu1 Mn1 Nb1 Tl1 Tc1 Si1 B1 Mo2 Ru1 Rh1 Pb1 S1 Cl1
F1
;
_cell_volume   407.65023965
_cell_formula_units_Z   1
loop_
 _symmetry_equiv_pos_site_id
 _symmetry_equiv_pos_as_xyz
  1  'x, y, z'
loop_
 _atom_site_type_symbol
 _atom_site_label
 _atom_site_symmetry_multiplicity
 _atom_site_fract_x
 _atom_site_fract_y
 _atom_site_fract_z
 _atom_site_occupancy
  Mo  Mo0  1  0.50595798  0.90644696  0.99787302  1
  Tl  Tl1  1  0.97671297  0.40035198  0.00036099  1
  La  La2  1  0.49404198  0.40644698  0.49787301  1
  Ca  Ca3  1  0.02328700  0.90035196  0.50036100  1
  Rh  Rh4  1  0.09201400  0.55459698  0.12409900  1
  Pb  Pb5  1  0.38071699  0.68841597  0.94071302  1
  Er  Er6  1  0.61928298  0.18841599  0.44071301  1
  Nb  Nb7  1  0.90798597  0.05459700  0.62409902  1
  Cl  Cl8  1  0.06680300  0.03274300  0.36994901  1
  Mn  Mn9  1  0.74337497  0.83557896  0.06467299  1
  Mo  Mo10  1  0.56019198  0.01867600  0.85935503  1
  Ac  Ac11  1  0.26031999  0.81900796  0.56330701  1
  Ru  Ru12  1  0.86279997  0.67553197  0.43880501  1
  Tc  Tc13  1  0.43980799  0.51867598  0.35935501  1
  S  S14  1  0.73967998  0.31900799  0.06330700  1
  Si  Si15  1  0.63660298  0.55814498  0.63360701  1
  F  F16  1  0.93319697  0.53274298  0.86994902  1
  Li  Li17  1  0.25662499  0.33557899  0.56467302  1
  B  B18  1  0.36339699  0.05814500  0.13360700  1
  Pu  Pu19  1  0.13720000  0.17553199  0.93880503  1
