# generated using pymatgen
data_CeYPuScAs2KrCl2F
_symmetry_space_group_name_H-M   'P 1'
_cell_length_a   8.55461597
_cell_length_b   8.55461597
_cell_length_c   8.55461597
_cell_angle_alpha   60.00000000
_cell_angle_beta   60.00000000
_cell_angle_gamma   60.00000000
_symmetry_Int_Tables_number   1
_chemical_formula_structural   CeYPuScAs2KrCl2F
_chemical_formula_sum   'Ce1 Y1 Pu1 Sc1 As2 Kr1 Cl2 F1'
_cell_volume   442.67659150
_cell_formula_units_Z   1
loop_
 _symmetry_equiv_pos_site_id
 _symmetry_equiv_pos_as_xyz
  1  'x, y, z'
loop_
 _atom_site_type_symbol
 _atom_site_label
 _atom_site_symmetry_multiplicity
 _atom_site_fract_x
 _atom_site_fract_y
 _atom_site_fract_z
 _atom_site_occupancy
  Pu  Pu0  1  0.25000000  0.25000000  0.25000000  1
  As  As1  1  0.75000000  0.75000000  0.75000000  1
  F  F2  1  0.50000000  0.50000000  0.50000000  1
  Cl  Cl3  1  0.00000000  0.00000000  0.00000000  1
  Kr  Kr4  1  0.23780200  0.76219800  0.23780200  1
  Sc  Sc5  1  0.23780200  0.23780200  0.76219800  1
  Y  Y6  1  0.76219800  0.23780200  0.76219800  1
  Cl  Cl7  1  0.23780200  0.76219800  0.76219800  1
  Ce  Ce8  1  0.76219800  0.23780200  0.23780200  1
  As  As9  1  0.76219800  0.76219800  0.23780200  1
