# generated using pymatgen
data_NaSrCaTbUPaTiZn2Cr2GaCuMoOsAuXeI2Br
_symmetry_space_group_name_H-M   'P 1'
_cell_length_a   5.76605177
_cell_length_b   5.76605177
_cell_length_c   7.77402306
_cell_angle_alpha   90.00000000
_cell_angle_beta   90.00000000
_cell_angle_gamma   95.15831757
_symmetry_Int_Tables_number   1
_chemical_formula_structural   NaSrCaTbUPaTiZn2Cr2GaCuMoOsAuXeI2Br
_chemical_formula_sum
'Na1 Sr1 Ca1 Tb1 U1 Pa1 Ti1 Zn2 Cr2 Ga1 Cu1 Mo1 Os1 Au1 Xe1 I2 Br1'
_cell_volume   257.41892084
_cell_formula_units_Z   1
loop_
 _symmetry_equiv_pos_site_id
 _symmetry_equiv_pos_as_xyz
  1  'x, y, z'
loop_
 _atom_site_type_symbol
 _atom_site_label
 _atom_site_symmetry_multiplicity
 _atom_site_fract_x
 _atom_site_fract_y
 _atom_site_fract_z
 _atom_site_occupancy
  U  U0  1  0.01507403  0.98492598  0.50000000  1
  Ti  Ti1  1  0.53255100  0.46744899  -0.00000000  1
  Mo  Mo2  1  0.52243301  0.97757698  0.24741300  1
  Xe  Xe3  1  0.02242301  0.47756699  0.24741300  1
  Pa  Pa4  1  0.52243301  0.97757698  0.75258699  1
  Au  Au5  1  0.02242301  0.47756699  0.75258699  1
  Cr  Cr6  1  0.06907202  0.93092798  0.99999999  1
  Cr  Cr7  1  0.57200500  0.42799499  0.50000000  1
  Br  Br8  1  0.72415599  0.27584399  0.25652000  1
  Cu  Cu9  1  0.22790502  0.77209498  0.23723200  1
  I  I10  1  0.72415599  0.27584399  0.74347999  1
  Os  Os11  1  0.22790502  0.77209498  0.76276799  1
  Tb  Tb12  1  0.46737499  0.02203800  -0.00000000  1
  I  I13  1  0.97796199  0.53262499  -0.00000000  1
  Zn  Zn14  1  0.49026499  0.03329100  0.50000000  1
  Ga  Ga15  1  0.96670899  0.50973499  0.50000000  1
  Ca  Ca16  1  0.72732300  0.77074598  0.24482900  1
  Zn  Zn17  1  0.22925400  0.27267699  0.24482900  1
  Sr  Sr18  1  0.72732300  0.77074598  0.75517099  1
  Na  Na19  1  0.22925400  0.27267699  0.75517099  1
