# generated using pymatgen
data_KNaTbCePrLuHfTiNiSnPtRhKrF
_symmetry_space_group_name_H-M   'P 1'
_cell_length_a   4.82891703
_cell_length_b   6.01454210
_cell_length_c   6.01454258
_cell_angle_alpha   60.00000381
_cell_angle_beta   90.00000000
_cell_angle_gamma   90.00000000
_symmetry_Int_Tables_number   1
_chemical_formula_structural   KNaTbCePrLuHfTiNiSnPtRhKrF
_chemical_formula_sum
'K1 Na1 Tb1 Ce1 Pr1 Lu1 Hf1 Ti1 Ni1 Sn1 Rh1 Pt1 Kr1 F1'
_cell_volume   151.28141037
_cell_formula_units_Z   1
loop_
 _symmetry_equiv_pos_site_id
 _symmetry_equiv_pos_as_xyz
  1  'x, y, z'
loop_
 _atom_site_type_symbol
 _atom_site_label
 _atom_site_symmetry_multiplicity
 _atom_site_fract_x
 _atom_site_fract_y
 _atom_site_fract_z
 _atom_site_occupancy
  Pr  Pr0  1  0.50000000  0.00000000  0.50000001  1
  Hf  Hf1  1  0.50000000  0.49999999  0.50000001  1
  Na  Na2  1  0.00000000  0.00000000  0.00000000  1
  Rh  Rh3  1  0.50000000  0.49999999  -0.00000000  1
  Ti  Ti4  1  0.07316200  0.33333333  0.33333334  1
  Ce  Ce5  1  0.92683799  0.66666666  0.66666668  1
  Ni  Ni6  1  0.73527300  0.33333333  0.33333334  1
  F  F7  1  0.77675600  0.81131099  0.37737801  1
  K  K8  1  0.26472700  0.66666666  0.66666668  1
  Pt  Pt9  1  0.77675600  0.37737799  0.81131102  1
  Sn  Sn10  1  0.77675600  0.81131099  0.81131102  1
  Kr  Kr11  1  0.22324400  0.18868900  0.62262201  1
  Tb  Tb12  1  0.22324400  0.62262199  0.18868900  1
  Lu  Lu13  1  0.22324400  0.18868900  0.18868900  1
