# generated using pymatgen
data_CsAcLaSmPuTiCoTcHgSb
_symmetry_space_group_name_H-M   'P 1'
_cell_length_a   8.02260208
_cell_length_b   8.02260208
_cell_length_c   8.02260208
_cell_angle_alpha   60.00000000
_cell_angle_beta   60.00000000
_cell_angle_gamma   60.00000000
_symmetry_Int_Tables_number   1
_chemical_formula_structural   CsAcLaSmPuTiCoTcHgSb
_chemical_formula_sum   'Cs1 Ac1 La1 Sm1 Pu1 Ti1 Co1 Tc1 Hg1 Sb1'
_cell_volume   365.11590992
_cell_formula_units_Z   1
loop_
 _symmetry_equiv_pos_site_id
 _symmetry_equiv_pos_as_xyz
  1  'x, y, z'
loop_
 _atom_site_type_symbol
 _atom_site_label
 _atom_site_symmetry_multiplicity
 _atom_site_fract_x
 _atom_site_fract_y
 _atom_site_fract_z
 _atom_site_occupancy
  Co  Co0  1  0.24999999  0.24999999  0.24999999  1
  Ti  Ti1  1  0.74999996  0.74999996  0.74999996  1
  Pu  Pu2  1  0.49999997  0.49999997  0.49999997  1
  Sb  Sb3  1  0.00000000  0.00000000  0.00000000  1
  Ac  Ac4  1  0.25364699  0.74635296  0.25364699  1
  Tc  Tc5  1  0.25364699  0.25364699  0.74635296  1
  Hg  Hg6  1  0.74635296  0.25364699  0.74635296  1
  Cs  Cs7  1  0.25364699  0.74635296  0.74635296  1
  Sm  Sm8  1  0.74635296  0.25364699  0.25364699  1
  La  La9  1  0.74635296  0.74635296  0.25364699  1
