# generated using pymatgen
data_KSrAlZnCoAgGeBiSbPHSe
_symmetry_space_group_name_H-M   'P 1'
_cell_length_a   4.82136440
_cell_length_b   4.82139063
_cell_length_c   5.90323162
_cell_angle_alpha   90.03826904
_cell_angle_beta   90.03842926
_cell_angle_gamma   83.36825562
_symmetry_Int_Tables_number   1
_chemical_formula_structural   KSrAlZnCoAgGeBiSbPHSe
_chemical_formula_sum
'K1 Sr1 Al1 Zn1 Co1 Ag1 Ge1 Bi1 Sb1 P1 H1 Se1'
_cell_volume   136.30640599
_cell_formula_units_Z   1
loop_
 _symmetry_equiv_pos_site_id
 _symmetry_equiv_pos_as_xyz
  1  'x, y, z'
loop_
 _atom_site_type_symbol
 _atom_site_label
 _atom_site_symmetry_multiplicity
 _atom_site_fract_x
 _atom_site_fract_y
 _atom_site_fract_z
 _atom_site_occupancy
  Zn  Zn0  1  0.99997196  0.99998902  0.50005793  1
  Sb  Sb1  1  0.00000200  0.00003300  0.99992001  1
  Co  Co2  1  0.55904398  0.55896101  0.24994596  1
  Sr  Sr3  1  0.44098398  0.44095401  0.75005597  1
  H  H4  1  0.19479799  0.19482900  0.75055999  1
  Ge  Ge5  1  0.80518896  0.80521301  0.24943694  1
  Se  Se6  1  0.69101398  0.30899101  0.99998797  1
  K  K7  1  0.69050698  0.30949601  0.50001397  1
  Bi  Bi8  1  0.30900697  0.69100101  0.99999197  1
  Ag  Ag9  1  0.30950097  0.69050301  0.50000897  1
  P  P10  1  0.19184999  0.19187600  0.24940099  1
  Al  Al11  1  0.80813396  0.80815401  0.75061895  1
