# generated using pymatgen
data_CaTbPrTmHICl
_symmetry_space_group_name_H-M   'P 1'
_cell_length_a   3.42336392
_cell_length_b   5.90958929
_cell_length_c   7.09035873
_cell_angle_alpha   113.82061768
_cell_angle_beta   103.96976471
_cell_angle_gamma   90.00000000
_symmetry_Int_Tables_number   1
_chemical_formula_structural   CaTbPrTmHICl
_chemical_formula_sum   'Ca1 Tb1 Pr1 Tm1 H1 I1 Cl1'
_cell_volume   126.57199840
_cell_formula_units_Z   1
loop_
 _symmetry_equiv_pos_site_id
 _symmetry_equiv_pos_as_xyz
  1  'x, y, z'
loop_
 _atom_site_type_symbol
 _atom_site_label
 _atom_site_symmetry_multiplicity
 _atom_site_fract_x
 _atom_site_fract_y
 _atom_site_fract_z
 _atom_site_occupancy
  H  H0  1  0.50000002  0.49999999  -0.00000001  1
  Cl  Cl1  1  0.75372803  0.76084798  0.50745598  1
  I  I2  1  0.24627201  0.23915199  0.49254399  1
  Ca  Ca3  1  0.63249003  0.96711297  0.26497997  1
  Pr  Pr4  1  0.13562701  0.47393499  0.27125398  1
  Tm  Tm5  1  0.86437303  0.52606499  0.72874599  1
  Tb  Tb6  1  0.36751001  0.03288700  0.73502000  1
