# generated using pymatgen
data_AcYbCe2SmNpCrFeCoBSbTeH2OsRuRhXeOF
_symmetry_space_group_name_H-M   'P 1'
_cell_length_a   5.84709120
_cell_length_b   5.91232777
_cell_length_c   8.29829502
_cell_angle_alpha   90.00000000
_cell_angle_beta   90.00000000
_cell_angle_gamma   90.00000000
_symmetry_Int_Tables_number   1
_chemical_formula_structural   AcYbCe2SmNpCrFeCoBSbTeH2OsRuRhXeOF
_chemical_formula_sum
'Ac1 Yb1 Ce2 Sm1 Np1 Cr1 Fe1 Co1 B1 Sb1 Te1 Os1 Ru1 H2 Rh1 Xe1 O1 F1'
_cell_volume   286.87139205
_cell_formula_units_Z   1
loop_
 _symmetry_equiv_pos_site_id
 _symmetry_equiv_pos_as_xyz
  1  'x, y, z'
loop_
 _atom_site_type_symbol
 _atom_site_label
 _atom_site_symmetry_multiplicity
 _atom_site_fract_x
 _atom_site_fract_y
 _atom_site_fract_z
 _atom_site_occupancy
  Te  Te0  1  0.00734200  0.53296302  0.25000000  1
  B  B1  1  0.50734198  0.96703704  0.75000000  1
  Rh  Rh2  1  0.49265798  0.03296300  0.25000000  1
  Co  Co3  1  0.99265797  0.46703702  0.75000000  1
  F  F4  1  0.00000000  0.00000000  0.00000000  1
  Ac  Ac5  1  0.49999998  0.50000002  0.00000000  1
  Fe  Fe6  1  0.49999998  0.50000002  0.50000000  1
  Sb  Sb7  1  0.00000000  0.00000000  0.50000000  1
  Sm  Sm8  1  0.21272499  0.28690401  0.45912400  1
  Ce  Ce9  1  0.71272498  0.21309601  0.54087600  1
  O  O10  1  0.28727499  0.78690403  0.04087600  1
  Os  Os11  1  0.78727497  0.71309603  0.95912400  1
  Ru  Ru12  1  0.78727497  0.71309603  0.54087600  1
  Xe  Xe13  1  0.28727499  0.78690403  0.45912400  1
  H  H14  1  0.71272498  0.21309601  0.95912400  1
  H  H15  1  0.21272499  0.28690401  0.04087600  1
  Cr  Cr16  1  0.92260697  0.97891604  0.25000000  1
  Np  Np17  1  0.42260699  0.52108402  0.75000000  1
  Yb  Yb18  1  0.57739298  0.47891602  0.25000000  1
  Ce  Ce19  1  0.07739300  0.02108400  0.75000000  1
