# generated using pymatgen
data_DyThZrTaAlCdSb2MoIrOsPbXeIBrO
_symmetry_space_group_name_H-M   'P 1'
_cell_length_a   4.77937603
_cell_length_b   5.07763290
_cell_length_c   15.66970444
_cell_angle_alpha   90.00000000
_cell_angle_beta   98.77204895
_cell_angle_gamma   90.00000000
_symmetry_Int_Tables_number   1
_chemical_formula_structural   DyThZrTaAlCdSb2MoIrOsPbXeIBrO
_chemical_formula_sum
'Dy1 Th1 Zr1 Ta1 Al1 Cd1 Sb2 Mo1 Ir1 Os1 Pb1 Xe1 I1 Br1 O1'
_cell_volume   375.82301615
_cell_formula_units_Z   1
loop_
 _symmetry_equiv_pos_site_id
 _symmetry_equiv_pos_as_xyz
  1  'x, y, z'
loop_
 _atom_site_type_symbol
 _atom_site_label
 _atom_site_symmetry_multiplicity
 _atom_site_fract_x
 _atom_site_fract_y
 _atom_site_fract_z
 _atom_site_occupancy
  Ta  Ta0  1  0.65160100  0.75000001  0.30320200  1
  Cd  Cd1  1  0.34839900  0.25000000  0.69679799  1
  Sb  Sb2  1  0.77450300  0.75000001  0.54900599  1
  Ir  Ir3  1  0.06765600  0.25000000  0.13531200  1
  Br  Br4  1  0.53080400  0.75000001  0.06160800  1
  Dy  Dy5  1  0.22549700  0.25000000  0.45099399  1
  I  I6  1  0.46919600  0.25000000  0.93839198  1
  Al  Al7  1  0.93234400  0.75000001  0.86468799  1
  Sb  Sb8  1  0.85198100  0.75000001  0.70396199  1
  Zr  Zr9  1  0.75192300  0.25000000  0.50384599  1
  Xe  Xe10  1  0.54634500  0.25000000  0.09269000  1
  Th  Th11  1  0.45365500  0.75000001  0.90730998  1
  O  O12  1  0.05464000  0.75000001  0.10928000  1
  Pb  Pb13  1  0.14801900  0.25000000  0.29603799  1
  Mo  Mo14  1  0.24807700  0.75000001  0.49615399  1
  Os  Os15  1  0.94536000  0.25000000  0.89071999  1
