# generated using pymatgen
data_KSrSmThUPaTaTiZnInGaNiSnBPbCXeBrNF
_symmetry_space_group_name_H-M   'P 1'
_cell_length_a   6.68960619
_cell_length_b   6.68960619
_cell_length_c   6.68960619
_cell_angle_alpha   90.00000000
_cell_angle_beta   90.00000000
_cell_angle_gamma   90.00000000
_symmetry_Int_Tables_number   1
_chemical_formula_structural   KSrSmThUPaTaTiZnInGaNiSnBPbCXeBrNF
_chemical_formula_sum
;
K1 Sr1 Sm1 Th1 U1 Ta1 Pa1 Ti1 Zn1 In1 Ga1 Ni1 Sn1 B1 Pb1 C1 Xe1 Br1 N1
F1
;
_cell_volume   299.36543588
_cell_formula_units_Z   1
loop_
 _symmetry_equiv_pos_site_id
 _symmetry_equiv_pos_as_xyz
  1  'x, y, z'
loop_
 _atom_site_type_symbol
 _atom_site_label
 _atom_site_symmetry_multiplicity
 _atom_site_fract_x
 _atom_site_fract_y
 _atom_site_fract_z
 _atom_site_occupancy
  K  K0  1  0.06422900  0.06422900  0.06422900  1
  Br  Br1  1  0.43577099  0.93577097  0.56422898  1
  Ta  Ta2  1  0.56422898  0.43577099  0.93577097  1
  Pa  Pa3  1  0.93577097  0.56422898  0.43577099  1
  Sr  Sr4  1  0.42174499  0.42174499  0.42174499  1
  Xe  Xe5  1  0.07825500  0.57825498  0.92174497  1
  C  C6  1  0.92174497  0.07825500  0.57825498  1
  Ti  Ti7  1  0.57825498  0.92174497  0.07825500  1
  In  In8  1  0.19285799  0.40387299  0.00798400  1
  U  U9  1  0.69285798  0.09612700  0.99201597  1
  Ga  Ga10  1  0.80714198  0.90387297  0.49201599  1
  Sn  Sn11  1  0.09612700  0.99201597  0.69285798  1
  Ni  Ni12  1  0.49201599  0.80714198  0.90387297  1
  Zn  Zn13  1  0.99201597  0.69285798  0.09612700  1
  Th  Th14  1  0.40387299  0.00798400  0.19285799  1
  Pb  Pb15  1  0.00798400  0.19285799  0.40387299  1
  B  B16  1  0.30714199  0.59612698  0.50798399  1
  F  F17  1  0.50798399  0.30714199  0.59612698  1
  Sm  Sm18  1  0.59612698  0.50798399  0.30714199  1
  N  N19  1  0.90387297  0.49201599  0.80714198  1
