# generated using pymatgen
data_BaNaSrLiYbEuGdZrTiBeZnGaReNiBSbCBrNeHe
_symmetry_space_group_name_H-M   'P 1'
_cell_length_a   3.85405397
_cell_length_b   3.85405350
_cell_length_c   31.48751259
_cell_angle_alpha   90.00000000
_cell_angle_beta   90.00000000
_cell_angle_gamma   120.00000763
_symmetry_Int_Tables_number   1
_chemical_formula_structural   BaNaSrLiYbEuGdZrTiBeZnGaReNiBSbCBrNeHe
_chemical_formula_sum
;
Ba1 Na1 Sr1 Li1 Yb1 Eu1 Gd1 Zr1 Ti1 Be1 Zn1 Ga1 Re1 Ni1 B1 Sb1 C1 Br1
Ne1 He1
;
_cell_volume   405.04612676
_cell_formula_units_Z   1
loop_
 _symmetry_equiv_pos_site_id
 _symmetry_equiv_pos_as_xyz
  1  'x, y, z'
loop_
 _atom_site_type_symbol
 _atom_site_label
 _atom_site_symmetry_multiplicity
 _atom_site_fract_x
 _atom_site_fract_y
 _atom_site_fract_z
 _atom_site_occupancy
  Ti  Ti0  1  0.33333337  0.66666667  0.80000501  1
  B  B1  1  0.00000000  0.00000000  0.20001400  1
  Ba  Ba2  1  0.33333337  0.66666667  0.10001300  1
  Li  Li3  1  0.66666669  0.33333334  0.30000500  1
  Eu  Eu4  1  0.66666669  0.33333334  0.90000501  1
  Br  Br5  1  0.33333337  0.66666667  0.40000501  1
  Ga  Ga6  1  0.00000000  0.00000000  0.99998301  1
  Ni  Ni7  1  0.66666669  0.33333334  0.60001301  1
  Zr  Zr8  1  0.00000000  0.00000000  0.70001401  1
  Ne  Ne9  1  0.00000000  0.00000000  0.49998301  1
  Sb  Sb10  1  0.33333337  0.66666667  0.72499601  1
  Na  Na11  1  0.00000000  0.00000000  0.92499901  1
  He  He12  1  0.33333337  0.66666667  0.32499500  1
  C  C13  1  0.00000000  0.00000000  0.12505400  1
  Gd  Gd14  1  0.66666669  0.33333334  0.22499600  1
  Sr  Sr15  1  0.00000000  0.00000000  0.42499901  1
  Zn  Zn16  1  0.66666669  0.33333334  0.82499501  1
  Re  Re17  1  0.66666669  0.33333334  0.52493701  1
  Be  Be18  1  0.33333337  0.66666667  0.02493700  1
  Yb  Yb19  1  0.00000000  0.00000000  0.62505401  1
