# generated using pymatgen
data_CuHeCsPrLuPuNpSbPdN
_symmetry_space_group_name_H-M   'P 1'
_cell_length_a   6.02562666
_cell_length_b   6.02562666
_cell_length_c   6.34527683
_cell_angle_alpha   61.65288925
_cell_angle_beta   61.65288925
_cell_angle_gamma   59.99999619
_symmetry_Int_Tables_number   1
_chemical_formula_structural   CuHeCsPrLuPuNpSbPdN
_chemical_formula_sum   'Cu1 He1 Cs1 Pr1 Lu1 Pu1 Np1 Sb1 Pd1 N1'
_cell_volume   166.85910818
_cell_formula_units_Z   1
loop_
 _symmetry_equiv_pos_site_id
 _symmetry_equiv_pos_as_xyz
  1  'x, y, z'
loop_
 _atom_site_type_symbol
 _atom_site_label
 _atom_site_symmetry_multiplicity
 _atom_site_fract_x
 _atom_site_fract_y
 _atom_site_fract_z
 _atom_site_occupancy
  Cu  Cu0  1  0.35032698  0.35032698  0.94901904  1
  He  He1  1  0.14967299  0.14967299  0.55098102  1
  Lu  Lu2  1  0.85032696  0.85032696  0.44901906  1
  Np  Np3  1  0.64967297  0.64967297  0.05098104  1
  Pu  Pu4  1  0.04948700  0.74999996  0.75000004  1
  N  N5  1  0.45051298  0.04948700  0.75000003  1
  Pr  Pr6  1  0.74999996  0.45051298  0.75000005  1
  Cs  Cs7  1  0.24999999  0.54948697  0.25000003  1
  Sb  Sb8  1  0.54948697  0.95051295  0.25000005  1
  Pd  Pd9  1  0.95051295  0.24999999  0.25000004  1
