# generated using pymatgen
data_KLi2EuGdHoHeLaTmLuTh2ZrUPaTaNbReAuXe
_symmetry_space_group_name_H-M   'P 1'
_cell_length_a   5.58586311
_cell_length_b   5.72764015
_cell_length_c   7.90709496
_cell_angle_alpha   90.00000000
_cell_angle_beta   89.99113464
_cell_angle_gamma   90.00000000
_symmetry_Int_Tables_number   1
_chemical_formula_structural   KLi2EuGdHoHeLaTmLuTh2ZrUPaTaNbReAuXe
_chemical_formula_sum
'K1 Li2 Eu1 Gd1 Ho1 He1 La1 Tm1 Lu1 Th2 Zr1 U1 Pa1 Ta1 Nb1 Re1 Au1 Xe1'
_cell_volume   252.97812108
_cell_formula_units_Z   1
loop_
 _symmetry_equiv_pos_site_id
 _symmetry_equiv_pos_as_xyz
  1  'x, y, z'
loop_
 _atom_site_type_symbol
 _atom_site_label
 _atom_site_symmetry_multiplicity
 _atom_site_fract_x
 _atom_site_fract_y
 _atom_site_fract_z
 _atom_site_occupancy
  Ho  Ho0  1  0.50426799  0.79562398  0.24884398  1
  K  K1  1  0.00426800  0.20437599  0.74884401  1
  He  He2  1  0.99150298  0.29994299  0.24766796  1
  Au  Au3  1  0.49150299  0.70005698  0.74766799  1
  Th  Th4  1  0.49845799  0.24644799  0.49988799  1
  Pa  Pa5  1  0.99845798  0.75355198  0.99988798  1
  Th  Th6  1  0.99945198  0.75703098  0.49926297  1
  Eu  Eu7  1  0.49945199  0.24296899  0.99926300  1
  La  La8  1  0.91477398  0.78230998  0.74485998  1
  Lu  Lu9  1  0.81051898  0.04697300  0.45701497  1
  Li  Li10  1  0.79337298  0.05370300  0.04306397  1
  Zr  Zr11  1  0.70769699  0.56089199  0.45626098  1
  Ta  Ta12  1  0.69250899  0.53545999  0.04810397  1
  U  U13  1  0.58744499  0.27471399  0.75503399  1
  Nb  Nb14  1  0.41477399  0.21768999  0.24485999  1
  Gd  Gd15  1  0.31051899  0.95302697  0.95701500  1
  Xe  Xe16  1  0.29337299  0.94629697  0.54306400  1
  Tm  Tm17  1  0.20769700  0.43910799  0.95626101  1
  Re  Re18  1  0.19250900  0.46453999  0.54810400  1
  Li  Li19  1  0.08744500  0.72528598  0.25503400  1
