# generated using pymatgen
data_KRbPmErTmScUTaCoSiHgB2PdPtSNeIBrF
_symmetry_space_group_name_H-M   'P 1'
_cell_length_a   5.11207199
_cell_length_b   5.82640886
_cell_length_c   8.23081207
_cell_angle_alpha   90.00000000
_cell_angle_beta   90.00000000
_cell_angle_gamma   90.00000000
_symmetry_Int_Tables_number   1
_chemical_formula_structural   KRbPmErTmScUTaCoSiHgB2PdPtSNeIBrF
_chemical_formula_sum
'K1 Rb1 Pm1 Er1 Tm1 Sc1 U1 Ta1 Co1 Si1 Hg1 B2 Pd1 Pt1 S1 Ne1 I1 Br1 F1'
_cell_volume   245.15491502
_cell_formula_units_Z   1
loop_
 _symmetry_equiv_pos_site_id
 _symmetry_equiv_pos_as_xyz
  1  'x, y, z'
loop_
 _atom_site_type_symbol
 _atom_site_label
 _atom_site_symmetry_multiplicity
 _atom_site_fract_x
 _atom_site_fract_y
 _atom_site_fract_z
 _atom_site_occupancy
  S  S0  1  0.25000000  0.25650401  0.41417400  1
  Pt  Pt1  1  0.75000000  0.74349602  0.58582599  1
  Sc  Sc2  1  0.25000000  0.75650402  0.08582600  1
  Ne  Ne3  1  0.75000000  0.24349601  0.91417399  1
  Ta  Ta4  1  0.25000000  0.42061101  0.75947699  1
  B  B5  1  0.75000000  0.57938901  0.24052300  1
  Pd  Pd6  1  0.25000000  0.92061102  0.74052299  1
  U  U7  1  0.75000000  0.07938900  0.25947700  1
  Si  Si8  1  0.75000000  0.09051800  0.42654200  1
  Pm  Pm9  1  0.25000000  0.90948202  0.57345799  1
  Er  Er10  1  0.75000000  0.59051801  0.07345800  1
  K  K11  1  0.25000000  0.40948201  0.92654199  1
  I  I12  1  0.98340900  0.08510600  0.17438000  1
  Tm  Tm13  1  0.48340900  0.91489402  0.82561999  1
  Rb  Rb14  1  0.51659100  0.58510601  0.32562000  1
  B  B15  1  0.01659100  0.41489401  0.67437999  1
  Hg  Hg16  1  0.01659100  0.91489402  0.82561999  1
  Co  Co17  1  0.51659100  0.08510600  0.17438000  1
  Br  Br18  1  0.48340900  0.41489401  0.67437999  1
  F  F19  1  0.98340900  0.58510601  0.32562000  1
