# generated using pymatgen
data_RbSrLiDyNpTiFe2NiIr
_symmetry_space_group_name_H-M   'P 1'
_cell_length_a   8.84749413
_cell_length_b   8.84749413
_cell_length_c   8.84749413
_cell_angle_alpha   60.00000000
_cell_angle_beta   60.00000000
_cell_angle_gamma   60.00000000
_symmetry_Int_Tables_number   1
_chemical_formula_structural   RbSrLiDyNpTiFe2NiIr
_chemical_formula_sum   'Rb1 Sr1 Li1 Dy1 Np1 Ti1 Fe2 Ni1 Ir1'
_cell_volume   489.71775624
_cell_formula_units_Z   1
loop_
 _symmetry_equiv_pos_site_id
 _symmetry_equiv_pos_as_xyz
  1  'x, y, z'
loop_
 _atom_site_type_symbol
 _atom_site_label
 _atom_site_symmetry_multiplicity
 _atom_site_fract_x
 _atom_site_fract_y
 _atom_site_fract_z
 _atom_site_occupancy
  Sr  Sr0  1  0.25000000  0.25000000  0.25000000  1
  Np  Np1  1  0.74999999  0.74999999  0.74999999  1
  Ti  Ti2  1  0.00000000  0.00000000  0.00000000  1
  Dy  Dy3  1  0.49999999  0.49999999  0.49999999  1
  Ir  Ir4  1  0.23143600  0.76856399  0.23143600  1
  Fe  Fe5  1  0.23143600  0.23143600  0.76856399  1
  Li  Li6  1  0.76856399  0.23143600  0.76856399  1
  Rb  Rb7  1  0.23143600  0.76856399  0.76856399  1
  Fe  Fe8  1  0.76856399  0.23143600  0.23143600  1
  Ni  Ni9  1  0.76856399  0.76856399  0.23143600  1
