# generated using pymatgen
data_FHeAcYZr2UTaBe2ZnCrSiNiBAu(XeCl)2
_symmetry_space_group_name_H-M   'P 1'
_cell_length_a   3.93750405
_cell_length_b   7.57800198
_cell_length_c   9.87155437
_cell_angle_alpha   90.00000000
_cell_angle_beta   90.00000000
_cell_angle_gamma   90.00000000
_symmetry_Int_Tables_number   1
_chemical_formula_structural   FHeAcYZr2UTaBe2ZnCrSiNiBAu(XeCl)2
_chemical_formula_sum
'F1 He1 Ac1 Y1 Zr2 U1 Ta1 Be2 Zn1 Cr1 Si1 Ni1 B1 Au1 Xe2 Cl2'
_cell_volume   294.55152127
_cell_formula_units_Z   1
loop_
 _symmetry_equiv_pos_site_id
 _symmetry_equiv_pos_as_xyz
  1  'x, y, z'
loop_
 _atom_site_type_symbol
 _atom_site_label
 _atom_site_symmetry_multiplicity
 _atom_site_fract_x
 _atom_site_fract_y
 _atom_site_fract_z
 _atom_site_occupancy
  F  F0  1  0.56558199  0.00000000  0.60836898  1
  He  He1  1  0.43441799  0.50000000  0.10836900  1
  Zr  Zr2  1  0.90738599  0.00000000  0.00248700  1
  Zn  Zn3  1  0.09261400  0.50000000  0.50248698  1
  Ni  Ni4  1  0.98982299  0.66441000  0.78985697  1
  Cl  Cl5  1  0.01017700  0.83559000  0.28985699  1
  Xe  Xe6  1  0.01017700  0.16441000  0.28985699  1
  Cl  Cl7  1  0.98982299  0.33559000  0.78985697  1
  Be  Be8  1  0.94200899  0.82013500  0.15506499  1
  Ta  Ta9  1  0.05799100  0.67986500  0.65506498  1
  Be  Be10  1  0.05799100  0.32013500  0.65506498  1
  B  B11  1  0.94200899  0.17986500  0.15506499  1
  Ac  Ac12  1  0.03196600  0.00000000  0.35580599  1
  Zr  Zr13  1  0.96803399  0.50000000  0.85580597  1
  Xe  Xe14  1  0.43130599  0.00000000  0.00213300  1
  Au  Au15  1  0.56869399  0.50000000  0.50213298  1
  U  U16  1  0.93514999  0.81044100  0.86699097  1
  Cr  Cr17  1  0.06485000  0.68955900  0.36699099  1
  Si  Si18  1  0.06485000  0.31044100  0.36699099  1
  Y  Y19  1  0.93514999  0.18955900  0.86699097  1
