# generated using pymatgen
data_Rb3PmNpCuSnXeIF
_symmetry_space_group_name_H-M   'P 1'
_cell_length_a   8.43163776
_cell_length_b   8.43163776
_cell_length_c   8.43163776
_cell_angle_alpha   60.00000000
_cell_angle_beta   60.00000000
_cell_angle_gamma   60.00000000
_symmetry_Int_Tables_number   1
_chemical_formula_structural   Rb3PmNpCuSnXeIF
_chemical_formula_sum   'Rb3 Pm1 Np1 Cu1 Sn1 Xe1 I1 F1'
_cell_volume   423.85842802
_cell_formula_units_Z   1
loop_
 _symmetry_equiv_pos_site_id
 _symmetry_equiv_pos_as_xyz
  1  'x, y, z'
loop_
 _atom_site_type_symbol
 _atom_site_label
 _atom_site_symmetry_multiplicity
 _atom_site_fract_x
 _atom_site_fract_y
 _atom_site_fract_z
 _atom_site_occupancy
  F  F0  1  0.24999999  0.24999999  0.24999999  1
  Xe  Xe1  1  0.74999997  0.74999997  0.74999997  1
  Cu  Cu2  1  0.00000000  0.00000000  0.00000000  1
  Rb  Rb3  1  0.49999998  0.49999998  0.49999998  1
  Rb  Rb4  1  0.23474399  0.76525597  0.23474399  1
  Sn  Sn5  1  0.23474399  0.23474399  0.76525597  1
  Rb  Rb6  1  0.76525597  0.23474399  0.76525597  1
  I  I7  1  0.23474399  0.76525597  0.76525597  1
  Pm  Pm8  1  0.76525597  0.23474399  0.23474399  1
  Np  Np9  1  0.76525597  0.76525597  0.23474399  1
