# generated using pymatgen
data_TbCePrYLu2U2MnVGa2ReNiBiTeOsRuSeS
_symmetry_space_group_name_H-M   'P 1'
_cell_length_a   5.86400366
_cell_length_b   6.03807116
_cell_length_c   8.41767883
_cell_angle_alpha   89.96695709
_cell_angle_beta   89.80928802
_cell_angle_gamma   89.95900726
_symmetry_Int_Tables_number   1
_chemical_formula_structural   TbCePrYLu2U2MnVGa2ReNiBiTeOsRuSeS
_chemical_formula_sum
'Tb1 Ce1 Pr1 Y1 Lu2 U2 Mn1 V1 Ga2 Re1 Ni1 Bi1 Te1 Os1 Ru1 Se1 S1'
_cell_volume   298.04526203
_cell_formula_units_Z   1
loop_
 _symmetry_equiv_pos_site_id
 _symmetry_equiv_pos_as_xyz
  1  'x, y, z'
loop_
 _atom_site_type_symbol
 _atom_site_label
 _atom_site_symmetry_multiplicity
 _atom_site_fract_x
 _atom_site_fract_y
 _atom_site_fract_z
 _atom_site_occupancy
  V  V0  1  0.51073444  0.54982514  0.25006633  1
  Ga  Ga1  1  0.48926558  0.45017484  0.74993371  1
  U  U2  1  0.98593174  0.04877272  0.24852819  1
  Se  Se3  1  0.01406828  0.95122727  0.75147184  1
  Mn  Mn4  1  0.50000001  0.00000000  0.00000001  1
  Ga  Ga5  1  0.00000000  0.49999999  0.50000001  1
  Ce  Ce6  1  0.00000000  0.49999999  -0.00000001  1
  Os  Os7  1  0.50000001  0.00000000  0.50000003  1
  Tb  Tb8  1  0.18612776  0.20385424  0.93733313  1
  Bi  Bi9  1  0.30971299  0.70760835  0.55395396  1
  Pr  Pr10  1  0.81387225  0.79614575  0.06266691  1
  S  S11  1  0.69028703  0.29239164  0.44604607  1
  Lu  Lu12  1  0.29421215  0.69598755  0.94978723  1
  U  U13  1  0.20458019  0.19163696  0.56350111  1
  Re  Re14  1  0.70578787  0.30401244  0.05021281  1
  Te  Te15  1  0.79541982  0.80836303  0.43649892  1
  Ni  Ni16  1  0.38068452  0.96629139  0.25818189  1
  Y  Y17  1  0.09819106  0.44156409  0.24232631  1
  Lu  Lu18  1  0.61931550  0.03370860  0.74181815  1
  Ru  Ru19  1  0.90180895  0.55843589  0.75767372  1
