# generated using pymatgen
data_TbPmNpPaMnBeCdSiPdF
_symmetry_space_group_name_H-M   'P 1'
_cell_length_a   6.55048466
_cell_length_b   6.55048466
_cell_length_c   6.55048466
_cell_angle_alpha   60.00000000
_cell_angle_beta   60.00000000
_cell_angle_gamma   60.00000000
_symmetry_Int_Tables_number   1
_chemical_formula_structural   TbPmNpPaMnBeCdSiPdF
_chemical_formula_sum   'Tb1 Pm1 Np1 Pa1 Mn1 Be1 Cd1 Si1 Pd1 F1'
_cell_volume   198.74916075
_cell_formula_units_Z   1
loop_
 _symmetry_equiv_pos_site_id
 _symmetry_equiv_pos_as_xyz
  1  'x, y, z'
loop_
 _atom_site_type_symbol
 _atom_site_label
 _atom_site_symmetry_multiplicity
 _atom_site_fract_x
 _atom_site_fract_y
 _atom_site_fract_z
 _atom_site_occupancy
  F  F0  1  0.24999999  0.24999999  0.24999999  1
  Pm  Pm1  1  0.74999998  0.74999998  0.74999998  1
  Pa  Pa2  1  0.49999999  0.49999999  0.49999999  1
  Si  Si3  1  0.00000000  0.00000000  0.00000000  1
  Np  Np4  1  0.21817699  0.78182298  0.21817699  1
  Pd  Pd5  1  0.21817699  0.21817699  0.78182298  1
  Be  Be6  1  0.78182298  0.21817699  0.78182298  1
  Cd  Cd7  1  0.21817699  0.78182298  0.78182298  1
  Mn  Mn8  1  0.78182298  0.21817699  0.21817699  1
  Tb  Tb9  1  0.78182298  0.78182298  0.21817699  1
