# generated using pymatgen
data_CsAcDy2PuMgZrTaGaSiAgGeCSe
_symmetry_space_group_name_H-M   'P 1'
_cell_length_a   5.33485126
_cell_length_b   5.33485126
_cell_length_c   7.48375607
_cell_angle_alpha   69.46050262
_cell_angle_beta   69.46050262
_cell_angle_gamma   73.09426880
_symmetry_Int_Tables_number   1
_chemical_formula_structural   CsAcDy2PuMgZrTaGaSiAgGeCSe
_chemical_formula_sum
'Cs1 Ac1 Dy2 Pu1 Mg1 Zr1 Ta1 Ga1 Si1 Ag1 Ge1 Se1 C1'
_cell_volume   183.32628514
_cell_formula_units_Z   1
loop_
 _symmetry_equiv_pos_site_id
 _symmetry_equiv_pos_as_xyz
  1  'x, y, z'
loop_
 _atom_site_type_symbol
 _atom_site_label
 _atom_site_symmetry_multiplicity
 _atom_site_fract_x
 _atom_site_fract_y
 _atom_site_fract_z
 _atom_site_occupancy
  Zr  Zr0  1  0.51752903  0.48247102  0.24999999  1
  Dy  Dy1  1  0.48247103  0.51752902  0.74999999  1
  Cs  Cs2  1  0.00000000  0.00000000  0.00000000  1
  Pu  Pu3  1  0.00000000  0.00000000  0.50000000  1
  Ta  Ta4  1  0.09559002  0.90441003  0.74999999  1
  Se  Se5  1  0.90441003  0.09559000  0.25000000  1
  Si  Si6  1  0.72024504  0.77969103  0.63075399  1
  Ge  Ge7  1  0.22030901  0.27975501  0.86924600  1
  Ga  Ga8  1  0.68566803  0.28717601  0.96259799  1
  Dy  Dy9  1  0.71282403  0.31433201  0.53740199  1
  Mg  Mg10  1  0.31433203  0.71282402  0.03740199  1
  C  C11  1  0.28717602  0.68566802  0.46259799  1
  Ac  Ac12  1  0.77969104  0.72024502  0.13075399  1
  Ag  Ag13  1  0.27975501  0.22030901  0.36924600  1
