# generated using pymatgen
data_SrCeEuGdThMgScPaTaNbReSiSnSbPdRhWS
_symmetry_space_group_name_H-M   'P 1'
_cell_length_a   5.55962610
_cell_length_b   5.55962658
_cell_length_c   12.43273926
_cell_angle_alpha   90.00000000
_cell_angle_beta   90.00000000
_cell_angle_gamma   120.00000000
_symmetry_Int_Tables_number   1
_chemical_formula_structural   SrCeEuGdThMgScPaTaNbReSiSnSbPdRhWS
_chemical_formula_sum
'Sr1 Ce1 Gd1 Eu1 Th1 Mg1 Sc1 Pa1 Ta1 Nb1 Re1 Si1 Sn1 Sb1 Pd1 Rh1 W1 S1'
_cell_volume   332.80409781
_cell_formula_units_Z   1
loop_
 _symmetry_equiv_pos_site_id
 _symmetry_equiv_pos_as_xyz
  1  'x, y, z'
loop_
 _atom_site_type_symbol
 _atom_site_label
 _atom_site_symmetry_multiplicity
 _atom_site_fract_x
 _atom_site_fract_y
 _atom_site_fract_z
 _atom_site_occupancy
  Sr  Sr0  1  0.00000000  0.00000000  0.00000000  1
  Pa  Pa1  1  0.00000000  0.00000000  0.49999999  1
  Ta  Ta2  1  0.33333337  0.66666669  0.74999998  1
  W  W3  1  0.66666668  0.33333334  0.24999999  1
  Sc  Sc4  1  0.66666668  0.33333334  0.74999998  1
  Mg  Mg5  1  0.33333337  0.66666669  0.24999999  1
  Gd  Gd6  1  0.36330006  0.96037003  0.34110899  1
  Th  Th7  1  0.36330002  0.40293001  0.15889100  1
  Sb  Sb8  1  0.03963004  0.63670002  0.15889100  1
  Eu  Eu9  1  0.59707005  0.96037003  0.15889100  1
  Pd  Pd10  1  0.96037001  0.36330001  0.65889099  1
  S  S11  1  0.59707003  0.63670002  0.34110899  1
  Ce  Ce12  1  0.63670003  0.59707002  0.65889099  1
  Re  Re13  1  0.63669999  0.03963000  0.84110898  1
  Si  Si14  1  0.03963003  0.40293001  0.34110899  1
  Nb  Nb15  1  0.40293002  0.36330001  0.84110898  1
  Sn  Sn16  1  0.96037002  0.59707002  0.84110898  1
  Rh  Rh17  1  0.40293000  0.03963000  0.65889099  1
