# generated using pymatgen
data_NaLiSmYHoPuHfMgNbGaCoTcNiAu2I
_symmetry_space_group_name_H-M   'P 1'
_cell_length_a   6.88373280
_cell_length_b   8.87973785
_cell_length_c   8.87973881
_cell_angle_alpha   60.00000381
_cell_angle_beta   90.00000000
_cell_angle_gamma   90.00000000
_symmetry_Int_Tables_number   1
_chemical_formula_structural   NaLiSmYHoPuHfMgNbGaCoTcNiAu2I
_chemical_formula_sum
'Na1 Li1 Sm1 Y1 Ho1 Pu1 Hf1 Mg1 Nb1 Ga1 Co1 Tc1 Ni1 Au2 I1'
_cell_volume   470.06183185
_cell_formula_units_Z   1
loop_
 _symmetry_equiv_pos_site_id
 _symmetry_equiv_pos_as_xyz
  1  'x, y, z'
loop_
 _atom_site_type_symbol
 _atom_site_label
 _atom_site_symmetry_multiplicity
 _atom_site_fract_x
 _atom_site_fract_y
 _atom_site_fract_z
 _atom_site_occupancy
  Mg  Mg0  1  0.00000000  0.66666668  0.66666669  1
  Li  Li1  1  0.00000000  0.33333334  0.33333334  1
  Na  Na2  1  0.50000001  0.33333334  0.33333334  1
  Tc  Tc3  1  0.50000001  0.66666668  0.66666669  1
  Au  Au4  1  0.25000001  0.25534201  1.00000004  1
  Ho  Ho5  1  0.25000001  0.00000000  0.74465803  1
  Ga  Ga6  1  0.25000001  0.74465802  0.25534200  1
  I  I7  1  0.75000002  0.74465802  -0.00000001  1
  Pu  Pu8  1  0.75000002  0.00000000  0.25534201  1
  Ni  Ni9  1  0.75000002  0.25534201  0.74465803  1
  Y  Y10  1  0.25000001  0.61024201  -0.00000001  1
  Hf  Hf11  1  0.25000001  0.00000000  0.38975801  1
  Au  Au12  1  0.25000001  0.38975801  0.61024202  1
  Nb  Nb13  1  0.75000002  0.38975801  -0.00000000  1
  Co  Co14  1  0.75000002  0.00000000  0.61024202  1
  Sm  Sm15  1  0.75000002  0.61024201  0.38975801  1
