# generated using pymatgen
data_CePuTh2MnRuOF
_symmetry_space_group_name_H-M   'P 1'
_cell_length_a   4.23870802
_cell_length_b   6.90922785
_cell_length_c   6.90922880
_cell_angle_alpha   119.99999237
_cell_angle_beta   90.00000000
_cell_angle_gamma   90.00000000
_symmetry_Int_Tables_number   1
_chemical_formula_structural   CePuTh2MnRuOF
_chemical_formula_sum   'Ce1 Pu1 Th2 Mn1 Ru1 O1 F1'
_cell_volume   175.23596969
_cell_formula_units_Z   1
loop_
 _symmetry_equiv_pos_site_id
 _symmetry_equiv_pos_as_xyz
  1  'x, y, z'
loop_
 _atom_site_type_symbol
 _atom_site_label
 _atom_site_symmetry_multiplicity
 _atom_site_fract_x
 _atom_site_fract_y
 _atom_site_fract_z
 _atom_site_occupancy
  Th  Th0  1  -0.00000000  0.99999999  0.66406694  1
  F  F1  1  -0.00000000  0.66406699  0.99999997  1
  Ru  Ru2  1  1.00000000  0.33593300  0.33593298  1
  Mn  Mn3  1  0.50000000  0.33333333  0.66666665  1
  O  O4  1  0.50000000  0.66666666  0.33333329  1
  Pu  Pu5  1  0.50000000  0.99999999  0.31773394  1
  Ce  Ce6  1  0.50000000  0.68226599  0.68226596  1
  Th  Th7  1  0.50000000  0.31773400  0.99999999  1
