# generated using pymatgen
data_YbTmUPaTiInReTcNiAsH2WF
_symmetry_space_group_name_H-M   'P 1'
_cell_length_a   5.35197020
_cell_length_b   5.35197020
_cell_length_c   7.14300537
_cell_angle_alpha   106.57234955
_cell_angle_beta   106.57234955
_cell_angle_gamma   99.72046661
_symmetry_Int_Tables_number   1
_chemical_formula_structural   YbTmUPaTiInReTcNiAsH2WF
_chemical_formula_sum
'Yb1 Tm1 U1 Pa1 Ti1 In1 Re1 Tc1 Ni1 As1 H2 W1 F1'
_cell_volume   180.85100562
_cell_formula_units_Z   1
loop_
 _symmetry_equiv_pos_site_id
 _symmetry_equiv_pos_as_xyz
  1  'x, y, z'
loop_
 _atom_site_type_symbol
 _atom_site_label
 _atom_site_symmetry_multiplicity
 _atom_site_fract_x
 _atom_site_fract_y
 _atom_site_fract_z
 _atom_site_occupancy
  F  F0  1  0.00000000  0.00000000  0.49999999  1
  H  H1  1  0.00000000  0.00000000  0.00000000  1
  Ti  Ti2  1  0.66813697  0.33186299  0.24999994  1
  H  H3  1  0.33186295  0.66813698  0.74999992  1
  Yb  Yb4  1  0.37461998  0.25917599  0.09747096  1
  U  U5  1  0.74082395  0.62537998  0.40252891  1
  Ni  Ni6  1  0.62537994  0.74082398  0.90252890  1
  Re  Re7  1  0.25917597  0.37461999  0.59747095  1
  W  W8  1  0.90643899  0.09356100  0.74999993  1
  As  As9  1  0.09356093  0.90643898  0.24999993  1
  Pa  Pa10  1  0.68581399  0.13338800  0.37232495  1
  In  In11  1  0.86661197  0.31418599  0.12767493  1
  Tm  Tm12  1  0.31418593  0.86661198  0.62767491  1
  Tc  Tc13  1  0.13338795  0.68581398  0.87232492  1
