# generated using pymatgen
data_BaEuYTaVInHgBIrPd
_symmetry_space_group_name_H-M   'P 1'
_cell_length_a   3.46687388
_cell_length_b   4.60040522
_cell_length_c   7.96624804
_cell_angle_alpha   90.00000000
_cell_angle_beta   90.00000000
_cell_angle_gamma   112.13566589
_symmetry_Int_Tables_number   1
_chemical_formula_structural   BaEuYTaVInHgBIrPd
_chemical_formula_sum   'Ba1 Eu1 Y1 Ta1 V1 In1 Hg1 B1 Pd1 Ir1'
_cell_volume   117.68928551
_cell_formula_units_Z   1
loop_
 _symmetry_equiv_pos_site_id
 _symmetry_equiv_pos_as_xyz
  1  'x, y, z'
loop_
 _atom_site_type_symbol
 _atom_site_label
 _atom_site_symmetry_multiplicity
 _atom_site_fract_x
 _atom_site_fract_y
 _atom_site_fract_z
 _atom_site_occupancy
  Pd  Pd0  1  0.00000000  0.00000000  0.00000000  1
  Ba  Ba1  1  0.00000000  0.00000000  0.50000000  1
  Eu  Eu2  1  0.71813703  0.43627401  0.75000000  1
  Ta  Ta3  1  0.28186302  0.56372601  0.25000000  1
  In  In4  1  0.87910304  0.75820601  0.75000000  1
  Ir  Ir5  1  0.63505502  0.27011000  0.90000700  1
  Y  Y6  1  0.63505502  0.27011000  0.59999300  1
  B  B7  1  0.36494502  0.72989001  0.40000700  1
  V  V8  1  0.36494502  0.72989001  0.09999300  1
  Hg  Hg9  1  0.12089701  0.24179400  0.25000000  1
