# generated using pymatgen
data_AcLaNd2EuMgPaBeTcTeHAu
_symmetry_space_group_name_H-M   'P 1'
_cell_length_a   5.54336309
_cell_length_b   5.54336309
_cell_length_c   5.54336309
_cell_angle_alpha   106.05220032
_cell_angle_beta   106.05220032
_cell_angle_gamma   116.54969788
_symmetry_Int_Tables_number   1
_chemical_formula_structural   AcLaNd2EuMgPaBeTcTeHAu
_chemical_formula_sum   'La1 Ac1 Nd2 Eu1 Mg1 Pa1 Be1 Tc1 Te1 H1 Au1'
_cell_volume   129.61000026
_cell_formula_units_Z   1
loop_
 _symmetry_equiv_pos_site_id
 _symmetry_equiv_pos_as_xyz
  1  'x, y, z'
loop_
 _atom_site_type_symbol
 _atom_site_label
 _atom_site_symmetry_multiplicity
 _atom_site_fract_x
 _atom_site_fract_y
 _atom_site_fract_z
 _atom_site_occupancy
  Mg  Mg0  1  0.00000000  0.00000000  0.00000000  1
  Nd  Nd1  1  0.74999995  0.24999998  0.49999996  1
  Nd  Nd2  1  0.24999993  0.74999994  0.49999994  1
  Tc  Tc3  1  0.49999994  0.49999996  -0.00000003  1
  La  La4  1  0.66936690  0.84870993  0.17934294  1
  Te  Te5  1  0.59871090  0.91936792  0.67934393  1
  Pa  Pa6  1  0.24002391  0.91936692  0.32065694  1
  Ac  Ac7  1  0.66936693  0.49002396  0.82065594  1
  Au  Au8  1  0.15128897  0.33063197  0.82065595  1
  Be  Be9  1  0.08063296  0.40128997  0.32065697  1
  Eu  Eu10  1  0.08063293  0.75997594  0.67934394  1
  H  H11  1  0.50997595  0.33063297  0.17934297  1
