# generated using pymatgen
data_AcEuHoThNbTlCdRu
_symmetry_space_group_name_H-M   'P 1'
_cell_length_a   6.46573019
_cell_length_b   7.82919216
_cell_length_c   7.82919168
_cell_angle_alpha   120.00000000
_cell_angle_beta   90.00000000
_cell_angle_gamma   90.00000000
_symmetry_Int_Tables_number   1
_chemical_formula_structural   AcEuHoThNbTlCdRu
_chemical_formula_sum   'Ac1 Eu1 Ho1 Th1 Nb1 Tl1 Cd1 Ru1'
_cell_volume   343.22750898
_cell_formula_units_Z   1
loop_
 _symmetry_equiv_pos_site_id
 _symmetry_equiv_pos_as_xyz
  1  'x, y, z'
loop_
 _atom_site_type_symbol
 _atom_site_label
 _atom_site_symmetry_multiplicity
 _atom_site_fract_x
 _atom_site_fract_y
 _atom_site_fract_z
 _atom_site_occupancy
  Ho  Ho0  1  0.74999998  0.83274198  0.16725699  1
  Tl  Tl1  1  0.74999998  0.33451499  0.16725700  1
  Nb  Nb2  1  0.74999998  0.83274198  0.66548400  1
  Cd  Cd3  1  0.24999999  0.16725800  0.83274302  1
  Th  Th4  1  0.24999999  0.66548498  0.83274301  1
  Ac  Ac5  1  0.24999999  0.16725800  0.33451601  1
  Ru  Ru6  1  0.24999999  0.66666665  0.33333333  1
  Eu  Eu7  1  0.74999998  0.33333332  0.66666668  1
