# generated using pymatgen
data_KAc2Yb2PmSm2EuGdPuTiVZnAgGeCBrNe
_symmetry_space_group_name_H-M   'P 1'
_cell_length_a   5.28503418
_cell_length_b   5.74623442
_cell_length_c   7.29517460
_cell_angle_alpha   84.83695221
_cell_angle_beta   80.23387909
_cell_angle_gamma   84.05414581
_symmetry_Int_Tables_number   1
_chemical_formula_structural   KAc2Yb2PmSm2EuGdPuTiVZnAgGeCBrNe
_chemical_formula_sum
'K1 Ac2 Yb2 Pm1 Sm2 Eu1 Gd1 Pu1 Ti1 V1 Zn1 Ag1 Ge1 C1 Br1 Ne1'
_cell_volume   216.56880776
_cell_formula_units_Z   1
loop_
 _symmetry_equiv_pos_site_id
 _symmetry_equiv_pos_as_xyz
  1  'x, y, z'
loop_
 _atom_site_type_symbol
 _atom_site_label
 _atom_site_symmetry_multiplicity
 _atom_site_fract_x
 _atom_site_fract_y
 _atom_site_fract_z
 _atom_site_occupancy
  Ac  Ac0  1  0.00000000  0.00000000  0.00000000  1
  Ti  Ti1  1  0.50710295  0.82288100  0.18537200  1
  C  C2  1  0.49289698  0.17711900  0.81462798  1
  Ac  Ac3  1  0.30675296  0.78271000  0.61950899  1
  V  V4  1  0.77929295  0.58759100  0.80219798  1
  Sm  Sm5  1  0.22070698  0.41240900  0.19780200  1
  Eu  Eu6  1  0.69324697  0.21729000  0.38049099  1
  Sm  Sm7  1  0.24252399  0.00588200  0.75402698  1
  Pm  Pm8  1  0.75747593  0.99411800  0.24597300  1
  Zn  Zn9  1  0.73035394  0.79103900  0.95537898  1
  Br  Br10  1  0.29457195  0.87746000  0.40433299  1
  Yb  Yb11  1  0.57743496  0.63105700  0.65284198  1
  K  K12  1  0.25335396  0.67919000  0.09752600  1
  Yb  Yb13  1  0.07621397  0.60858400  0.69861099  1
  Ag  Ag14  1  0.92378595  0.39141600  0.30138899  1
  Gd  Gd15  1  0.74664596  0.32081000  0.90247397  1
  Ge  Ge16  1  0.42256497  0.36894300  0.34715799  1
  Pu  Pu17  1  0.70542797  0.12254000  0.59566698  1
  Ne  Ne18  1  0.26964598  0.20896100  0.04462100  1
