# generated using pymatgen
data_CaYbEuDyThMn2BeZnFeCuReNiSnBTeAsPtRhF
_symmetry_space_group_name_H-M   'P 1'
_cell_length_a   6.41876841
_cell_length_b   6.41877031
_cell_length_c   6.93531704
_cell_angle_alpha   89.99976349
_cell_angle_beta   90.00003052
_cell_angle_gamma   91.12722778
_symmetry_Int_Tables_number   1
_chemical_formula_structural   CaYbEuDyThMn2BeZnFeCuReNiSnBTeAsPtRhF
_chemical_formula_sum
;
Ca1 Yb1 Eu1 Dy1 Th1 Mn2 Be1 Zn1 Fe1 Cu1 Re1 Ni1 Sn1 B1 Te1 As1 Rh1 Pt1
F1
;
_cell_volume   285.68392655
_cell_formula_units_Z   1
loop_
 _symmetry_equiv_pos_site_id
 _symmetry_equiv_pos_as_xyz
  1  'x, y, z'
loop_
 _atom_site_type_symbol
 _atom_site_label
 _atom_site_symmetry_multiplicity
 _atom_site_fract_x
 _atom_site_fract_y
 _atom_site_fract_z
 _atom_site_occupancy
  Cu  Cu0  1  0.49998095  0.99999202  0.00000494  1
  Sn  Sn1  1  0.99998496  0.49997801  0.49999897  1
  Eu  Eu2  1  0.00000100  0.00001200  0.25000900  1
  Te  Te3  1  0.99999499  0.00001100  0.74998799  1
  As  As4  1  0.64018297  0.35982001  0.25000098  1
  Rh  Rh5  1  0.35981596  0.64019001  0.75000096  1
  F  F6  1  0.64018297  0.35982001  0.75000097  1
  Fe  Fe7  1  0.35981496  0.64018801  0.24999896  1
  Ca  Ca8  1  0.61767695  0.83322901  0.49999095  1
  Re  Re9  1  0.16677298  0.38232001  0.00000698  1
  Zn  Zn10  1  0.83326296  0.61767901  0.99999496  1
  Dy  Dy11  1  0.38230899  0.16674500  0.50000199  1
  Mn  Mn12  1  0.67773096  0.67773801  0.25000496  1
  B  B13  1  0.67773596  0.67774101  0.74999596  1
  Pt  Pt14  1  0.32226498  0.32226901  0.74999998  1
  Mn  Mn15  1  0.32226398  0.32226801  0.25000098  1
  Ni  Ni16  1  0.29457096  0.84045501  0.50000295  1
  Th  Th17  1  0.84046597  0.29456600  0.99999798  1
  Be  Be18  1  0.15954896  0.70543701  0.99999895  1
  Yb  Yb19  1  0.70543698  0.15954000  0.49999999  1
