# generated using pymatgen
data_CsBa2PuAlReSbHe
_symmetry_space_group_name_H-M   'P 1'
_cell_length_a   3.99624991
_cell_length_b   5.65167713
_cell_length_c   7.92647505
_cell_angle_alpha   90.00000000
_cell_angle_beta   90.00000000
_cell_angle_gamma   90.00000000
_symmetry_Int_Tables_number   1
_chemical_formula_structural   CsBa2PuAlReSbHe
_chemical_formula_sum   'Cs1 Ba2 Pu1 Al1 Re1 Sb1 He1'
_cell_volume   179.02351517
_cell_formula_units_Z   1
loop_
 _symmetry_equiv_pos_site_id
 _symmetry_equiv_pos_as_xyz
  1  'x, y, z'
loop_
 _atom_site_type_symbol
 _atom_site_label
 _atom_site_symmetry_multiplicity
 _atom_site_fract_x
 _atom_site_fract_y
 _atom_site_fract_z
 _atom_site_occupancy
  Sb  Sb0  1  0.50000001  0.49999999  0.25280400  1
  Pu  Pu1  1  0.00000000  0.00000000  0.50000000  1
  Al  Al2  1  0.50000001  0.49999999  0.74719600  1
  He  He3  1  0.00000000  0.00000000  0.00000000  1
  Re  Re4  1  0.00000000  0.49999999  0.50000000  1
  Ba  Ba5  1  0.50000001  0.00000000  0.75821200  1
  Ba  Ba6  1  0.00000000  0.49999999  0.00000000  1
  Cs  Cs7  1  0.50000001  0.00000000  0.24178800  1
