# generated using pymatgen
data_CsBaCe2PmPrTmTiBeAlAgTeMo2AsF
_symmetry_space_group_name_H-M   'P 1'
_cell_length_a   6.71456385
_cell_length_b   7.13403320
_cell_length_c   7.91523504
_cell_angle_alpha   90.00000000
_cell_angle_beta   90.00000000
_cell_angle_gamma   90.00000000
_symmetry_Int_Tables_number   1
_chemical_formula_structural   CsBaCe2PmPrTmTiBeAlAgTeMo2AsF
_chemical_formula_sum
'Cs1 Ba1 Ce2 Pm1 Pr1 Tm1 Ti1 Be1 Al1 Ag1 Te1 Mo2 As1 F1'
_cell_volume   379.15496708
_cell_formula_units_Z   1
loop_
 _symmetry_equiv_pos_site_id
 _symmetry_equiv_pos_as_xyz
  1  'x, y, z'
loop_
 _atom_site_type_symbol
 _atom_site_label
 _atom_site_symmetry_multiplicity
 _atom_site_fract_x
 _atom_site_fract_y
 _atom_site_fract_z
 _atom_site_occupancy
  As  As0  1  0.01578900  0.14503400  -0.00000000  1
  Cs  Cs1  1  0.51578901  0.85496598  0.50000000  1
  Al  Al2  1  0.49560801  0.32104999  0.24351300  1
  Pm  Pm3  1  0.49560801  0.32104999  0.75648700  1
  Mo  Mo4  1  0.99560802  0.67894998  0.74351300  1
  F  F5  1  0.99560802  0.67894998  0.25648700  1
  Ce  Ce6  1  0.01228800  0.17476000  0.50000000  1
  Tm  Tm7  1  0.51228801  0.82523998  0.00000000  1
  Be  Be8  1  0.17651800  0.82072498  -0.00000000  1
  Mo  Mo9  1  0.61865901  0.66666665  0.76896000  1
  Ag  Ag10  1  0.62997201  0.12020200  0.00000000  1
  Ce  Ce11  1  0.67651802  0.17927499  0.50000000  1
  Pr  Pr12  1  0.11865900  0.33333332  0.73104000  1
  Te  Te13  1  0.61865901  0.66666665  0.23104000  1
  Ba  Ba14  1  0.12997200  0.87979797  0.50000000  1
  Ti  Ti15  1  0.11865900  0.33333332  0.26896000  1
