# generated using pymatgen
data_Sr2PrLuMgScTiNbCdSnBiRu2I
_symmetry_space_group_name_H-M   'P 1'
_cell_length_a   5.37287998
_cell_length_b   5.37288046
_cell_length_c   7.04243422
_cell_angle_alpha   90.00000000
_cell_angle_beta   90.00000000
_cell_angle_gamma   120.00000000
_symmetry_Int_Tables_number   1
_chemical_formula_structural   Sr2PrLuMgScTiNbCdSnBiRu2I
_chemical_formula_sum
'Sr2 Pr1 Lu1 Mg1 Sc1 Ti1 Nb1 Cd1 Sn1 Bi1 Ru2 I1'
_cell_volume   176.06285830
_cell_formula_units_Z   1
loop_
 _symmetry_equiv_pos_site_id
 _symmetry_equiv_pos_as_xyz
  1  'x, y, z'
loop_
 _atom_site_type_symbol
 _atom_site_label
 _atom_site_symmetry_multiplicity
 _atom_site_fract_x
 _atom_site_fract_y
 _atom_site_fract_z
 _atom_site_occupancy
  Bi  Bi0  1  0.00000000  0.00000000  0.49999998  1
  Lu  Lu1  1  0.33333337  0.66666667  0.82143797  1
  Sn  Sn2  1  0.66666668  0.33333334  0.17856199  1
  Ru  Ru3  1  0.00000000  0.00000000  0.00000000  1
  Sr  Sr4  1  0.66666668  0.33333334  0.74260098  1
  Cd  Cd5  1  0.33333337  0.66666667  0.25739899  1
  Sc  Sc6  1  0.35781501  0.12882400  0.82116297  1
  Ru  Ru7  1  0.77100903  0.64218400  0.82116297  1
  Mg  Mg8  1  0.87117501  0.22899000  0.82116297  1
  I  I9  1  0.66666668  0.33333334  0.52443398  1
  Nb  Nb10  1  0.33333337  0.66666667  0.47556599  1
  Ti  Ti11  1  0.12882504  0.77101001  0.17883699  1
  Pr  Pr12  1  0.22899102  0.35781600  0.17883699  1
  Sr  Sr13  1  0.64218504  0.87117601  0.17883699  1
