# generated using pymatgen
data_CsNaAcYbZrNpTlTcNiSnGeIrPt2RhWXeKrFNe
_symmetry_space_group_name_H-M   'P 1'
_cell_length_a   4.56018400
_cell_length_b   4.56018400
_cell_length_c   11.68673706
_cell_angle_alpha   90.00000000
_cell_angle_beta   90.00000000
_cell_angle_gamma   90.00000000
_symmetry_Int_Tables_number   1
_chemical_formula_structural   CsNaAcYbZrNpTlTcNiSnGeIrPt2RhWXeKrFNe
_chemical_formula_sum
;
Cs1 Na1 Yb1 Ac1 Zr1 Np1 Tl1 Tc1 Ni1 Sn1 Ge1 Ir1 Pt2 Rh1 W1 Xe1 Kr1 F1
Ne1
;
_cell_volume   243.02894762
_cell_formula_units_Z   1
loop_
 _symmetry_equiv_pos_site_id
 _symmetry_equiv_pos_as_xyz
  1  'x, y, z'
loop_
 _atom_site_type_symbol
 _atom_site_label
 _atom_site_symmetry_multiplicity
 _atom_site_fract_x
 _atom_site_fract_y
 _atom_site_fract_z
 _atom_site_occupancy
  Cs  Cs0  1  0.00000000  0.50000000  0.82089300  1
  Yb  Yb1  1  0.50000000  0.00000000  0.17910700  1
  Ir  Ir2  1  0.18147700  0.00000000  0.63052600  1
  Pt  Pt3  1  0.81852300  0.00000000  0.63052600  1
  Xe  Xe4  1  0.50000000  0.68147700  0.63052600  1
  Kr  Kr5  1  0.50000000  0.31852300  0.63052600  1
  F  F6  1  0.31852300  0.50000000  0.36947400  1
  Ni  Ni7  1  0.68147700  0.50000000  0.36947400  1
  Pt  Pt8  1  0.00000000  0.81852300  0.36947400  1
  Ne  Ne9  1  0.00000000  0.18147700  0.36947400  1
  Tc  Tc10  1  0.50000000  0.00000000  0.49120800  1
  Ac  Ac11  1  0.00000000  0.50000000  0.50879200  1
  Na  Na12  1  0.50000000  0.00000000  0.90653800  1
  Tl  Tl13  1  0.00000000  0.50000000  0.09346200  1
  Sn  Sn14  1  0.00000000  0.00000000  0.68167500  1
  W  W15  1  0.50000000  0.50000000  0.68167500  1
  Zr  Zr16  1  0.50000000  0.50000000  0.31832500  1
  Np  Np17  1  0.00000000  0.00000000  0.31832500  1
  Rh  Rh18  1  0.50000000  0.00000000  0.57418800  1
  Ge  Ge19  1  0.00000000  0.50000000  0.42581200  1
