# generated using pymatgen
data_KPrMgScTlSnBRuPtPb
_symmetry_space_group_name_H-M   'P 1'
_cell_length_a   4.60727692
_cell_length_b   8.10067368
_cell_length_c   11.51672554
_cell_angle_alpha   90.00000000
_cell_angle_beta   90.00000000
_cell_angle_gamma   106.52156830
_symmetry_Int_Tables_number   1
_chemical_formula_structural   KPrMgScTlSnBRuPtPb
_chemical_formula_sum   'K1 Pr1 Mg1 Sc1 Tl1 Sn1 B1 Ru1 Pt1 Pb1'
_cell_volume   412.08136459
_cell_formula_units_Z   1
loop_
 _symmetry_equiv_pos_site_id
 _symmetry_equiv_pos_as_xyz
  1  'x, y, z'
loop_
 _atom_site_type_symbol
 _atom_site_label
 _atom_site_symmetry_multiplicity
 _atom_site_fract_x
 _atom_site_fract_y
 _atom_site_fract_z
 _atom_site_occupancy
  Mg  Mg0  1  0.25269203  0.50538399  0.25000001  1
  Sn  Sn1  1  0.74730804  0.49461599  0.75000003  1
  Pr  Pr2  1  0.00000000  0.00000000  0.50000002  1
  Tl  Tl3  1  0.00000000  0.00000000  0.00000000  1
  K  K4  1  0.36994005  0.73987998  0.54781402  1
  Pt  Pt5  1  0.63006003  0.26011999  0.04781400  1
  B  B6  1  0.36994005  0.73987998  0.95218604  1
  Pb  Pb7  1  0.63006003  0.26011999  0.45218602  1
  Ru  Ru8  1  0.93334506  0.86668998  0.25000001  1
  Sc  Sc9  1  0.06665501  0.13331000  0.75000003  1
