# generated using pymatgen
data_CeZrNbCr
_symmetry_space_group_name_H-M   'P 1'
_cell_length_a   4.28115845
_cell_length_b   4.28115845
_cell_length_c   4.28115845
_cell_angle_alpha   60.00000000
_cell_angle_beta   60.00000000
_cell_angle_gamma   60.00000000
_symmetry_Int_Tables_number   1
_chemical_formula_structural   CeZrNbCr
_chemical_formula_sum   'Ce1 Zr1 Nb1 Cr1'
_cell_volume   55.48414612
_cell_formula_units_Z   1
loop_
 _symmetry_equiv_pos_site_id
 _symmetry_equiv_pos_as_xyz
  1  'x, y, z'
loop_
 _atom_site_type_symbol
 _atom_site_label
 _atom_site_symmetry_multiplicity
 _atom_site_fract_x
 _atom_site_fract_y
 _atom_site_fract_z
 _atom_site_occupancy
  Zr  Zr0  1  0.49999997  0.49999997  0.49999997  1
  Ce  Ce1  1  0.00000000  0.00000000  0.00000000  1
  Cr  Cr2  1  0.74999996  0.74999996  0.74999996  1
  Nb  Nb3  1  0.24999999  0.24999999  0.24999999  1
