# generated using pymatgen
data_CsAcVFeAsRhNHe
_symmetry_space_group_name_H-M   'P 1'
_cell_length_a   4.58214760
_cell_length_b   4.58214760
_cell_length_c   6.01697016
_cell_angle_alpha   76.94930267
_cell_angle_beta   76.94930267
_cell_angle_gamma   88.14926910
_symmetry_Int_Tables_number   1
_chemical_formula_structural   CsAcVFeAsRhNHe
_chemical_formula_sum   'Cs1 Ac1 V1 Fe1 As1 Rh1 N1 He1'
_cell_volume   119.86759333
_cell_formula_units_Z   1
loop_
 _symmetry_equiv_pos_site_id
 _symmetry_equiv_pos_as_xyz
  1  'x, y, z'
loop_
 _atom_site_type_symbol
 _atom_site_label
 _atom_site_symmetry_multiplicity
 _atom_site_fract_x
 _atom_site_fract_y
 _atom_site_fract_z
 _atom_site_occupancy
  Cs  Cs0  1  0.84725698  0.84725698  0.38809301  1
  Ac  Ac1  1  0.34486099  0.34486099  0.88879202  1
  V  V2  1  0.82968798  0.20698000  0.81108002  1
  N  N3  1  0.20697999  0.82968798  0.81108002  1
  Rh  Rh4  1  0.38480599  0.38480599  0.20200601  1
  Fe  Fe5  1  0.10708400  0.10708400  0.89604002  1
  As  As6  1  0.65117298  0.26232099  0.73045902  1
  He  He7  1  0.26232099  0.65117299  0.73045902  1
