# generated using pymatgen
data_RbTbSmHfCuNiGeTePHWAuKrN2O
_symmetry_space_group_name_H-M   'P 1'
_cell_length_a   5.08375883
_cell_length_b   5.61490202
_cell_length_c   7.24362135
_cell_angle_alpha   70.43938446
_cell_angle_beta   89.99990845
_cell_angle_gamma   63.08374023
_symmetry_Int_Tables_number   1
_chemical_formula_structural   RbTbSmHfCuNiGeTePHWAuKrN2O
_chemical_formula_sum
'Rb1 Tb1 Sm1 Hf1 Cu1 Ni1 Ge1 Te1 P1 H1 W1 Au1 Kr1 N2 O1'
_cell_volume   170.87835087
_cell_formula_units_Z   1
loop_
 _symmetry_equiv_pos_site_id
 _symmetry_equiv_pos_as_xyz
  1  'x, y, z'
loop_
 _atom_site_type_symbol
 _atom_site_label
 _atom_site_symmetry_multiplicity
 _atom_site_fract_x
 _atom_site_fract_y
 _atom_site_fract_z
 _atom_site_occupancy
  Au  Au0  1  0.00000198  0.99999104  0.00001101  1
  Ge  Ge1  1  0.00000798  0.99999504  0.50001100  1
  N  N2  1  0.38309801  0.24706901  0.28560200  1
  N  N3  1  0.36983101  0.24706601  0.78560299  1
  O  O4  1  0.61691700  0.75294903  0.71438300  1
  Rb  Rb5  1  0.63013700  0.75295003  0.21438302  1
  Ni  Ni6  1  0.80794600  0.99997204  0.75001401  1
  Cu  Cu7  1  0.19205901  0.00001500  0.24999600  1
  Hf  Hf8  1  0.96223202  0.37166601  0.84831800  1
  H  H9  1  0.03775699  0.62833502  0.15169401  1
  Te  Te10  1  0.33391400  0.62834102  0.65168100  1
  Tb  Tb11  1  0.66609801  0.37166001  0.34832601  1
  Kr  Kr12  1  0.25400400  0.16188601  0.55451699  1
  W  W13  1  0.74600901  0.83810903  0.44547301  1
  P  P14  1  0.41589499  0.83812303  0.94547400  1
  Sm  Sm15  1  0.58409302  0.16187501  0.05451501  1
