# generated using pymatgen
data_Ba2PuMnNbCdBSBr
_symmetry_space_group_name_H-M   'P 1'
_cell_length_a   3.58864188
_cell_length_b   7.87980795
_cell_length_c   7.87980890
_cell_angle_alpha   119.99999237
_cell_angle_beta   90.00000000
_cell_angle_gamma   90.00000000
_symmetry_Int_Tables_number   1
_chemical_formula_structural   Ba2PuMnNbCdBSBr
_chemical_formula_sum   'Ba2 Pu1 Mn1 Nb1 Cd1 B1 S1 Br1'
_cell_volume   192.97102537
_cell_formula_units_Z   1
loop_
 _symmetry_equiv_pos_site_id
 _symmetry_equiv_pos_as_xyz
  1  'x, y, z'
loop_
 _atom_site_type_symbol
 _atom_site_label
 _atom_site_symmetry_multiplicity
 _atom_site_fract_x
 _atom_site_fract_y
 _atom_site_fract_z
 _atom_site_occupancy
  S  S0  1  0.50000002  0.95706097  0.24961193  1
  B  B1  1  0.50000002  0.29255099  0.04293798  1
  Mn  Mn2  1  0.50000002  0.75038698  0.70744795  1
  Ba  Ba3  1  1.00000003  0.33596199  0.41448198  1
  Pu  Pu4  1  1.00000003  0.07852000  0.66403900  1
  Nb  Nb5  1  1.00000003  0.58551898  0.92148096  1
  Br  Br6  1  -0.00000000  0.66666665  0.33333329  1
  Ba  Ba7  1  0.50000002  0.33333332  0.66666665  1
  Cd  Cd8  1  0.00000000  0.00000000  0.00000000  1
