# generated using pymatgen
data_CsLiPrLuScAlVCoOsPb
_symmetry_space_group_name_H-M   'P 1'
_cell_length_a   9.08119297
_cell_length_b   9.08119297
_cell_length_c   9.08119297
_cell_angle_alpha   60.00000000
_cell_angle_beta   60.00000000
_cell_angle_gamma   60.00000000
_symmetry_Int_Tables_number   1
_chemical_formula_structural   CsLiPrLuScAlVCoOsPb
_chemical_formula_sum   'Cs1 Li1 Pr1 Lu1 Sc1 Al1 V1 Co1 Os1 Pb1'
_cell_volume   529.55822162
_cell_formula_units_Z   1
loop_
 _symmetry_equiv_pos_site_id
 _symmetry_equiv_pos_as_xyz
  1  'x, y, z'
loop_
 _atom_site_type_symbol
 _atom_site_label
 _atom_site_symmetry_multiplicity
 _atom_site_fract_x
 _atom_site_fract_y
 _atom_site_fract_z
 _atom_site_occupancy
  Cs  Cs0  1  0.25000000  0.25000000  0.25000000  1
  Lu  Lu1  1  0.74999999  0.74999999  0.74999999  1
  Pb  Pb2  1  0.00000000  0.00000000  0.00000000  1
  Pr  Pr3  1  0.49999999  0.49999999  0.49999999  1
  Sc  Sc4  1  0.23591400  0.76408598  0.23591400  1
  Al  Al5  1  0.23591400  0.23591400  0.76408598  1
  Li  Li6  1  0.76408598  0.23591400  0.76408598  1
  Co  Co7  1  0.23591400  0.76408598  0.76408598  1
  Os  Os8  1  0.76408598  0.23591400  0.23591400  1
  V  V9  1  0.76408598  0.76408598  0.23591400  1
