# generated using pymatgen
data_LaHoTmUTaTi2MnBeVZnReMoIrAuBrN2ClF
_symmetry_space_group_name_H-M   'P 1'
_cell_length_a   5.61453152
_cell_length_b   5.61453152
_cell_length_c   9.86803532
_cell_angle_alpha   91.59475708
_cell_angle_beta   105.28479767
_cell_angle_gamma   119.19317627
_symmetry_Int_Tables_number   1
_chemical_formula_structural   LaHoTmUTaTi2MnBeVZnReMoIrAuBrN2ClF
_chemical_formula_sum
'La1 Ho1 Tm1 U1 Ta1 Ti2 Mn1 Be1 V1 Zn1 Re1 Mo1 Ir1 Au1 Br1 N2 Cl1 F1'
_cell_volume   257.39380294
_cell_formula_units_Z   1
loop_
 _symmetry_equiv_pos_site_id
 _symmetry_equiv_pos_as_xyz
  1  'x, y, z'
loop_
 _atom_site_type_symbol
 _atom_site_label
 _atom_site_symmetry_multiplicity
 _atom_site_fract_x
 _atom_site_fract_y
 _atom_site_fract_z
 _atom_site_occupancy
  Be  Be0  1  0.53816005  0.77267102  0.75686502  1
  N  N1  1  0.48419402  0.21870501  0.25686502  1
  U  U2  1  0.01431502  0.49682802  0.00670099  1
  F  F3  1  0.00987304  0.99238603  0.50670099  1
  Ho  Ho4  1  0.30567503  0.65117802  0.37844401  1
  Mn  Mn5  1  0.22726601  0.07276900  0.87844403  1
  Tm  Tm6  1  0.78692006  0.92013103  0.13245201  1
  Au  Au7  1  0.71232104  0.34553201  0.63245203  1
  Ir  Ir8  1  0.84593205  0.72082902  0.92678904  1
  Ti  Ti9  1  0.70596002  0.08085700  0.42678904  1
  V  V10  1  0.31709604  0.90716703  0.58682101  1
  N  N11  1  0.17965402  0.26972501  0.08682100  1
  La  La12  1  0.74344603  0.29840101  0.14140203  1
  Ti  Ti13  1  0.34300103  0.39795601  0.64140202  1
  Cl  Cl14  1  0.67193904  0.58401702  0.37805402  1
  Ta  Ta15  1  0.29403704  0.70611502  0.87805402  1
  Zn  Zn16  1  0.15905901  0.09248200  0.34242701  1
  Mo  Mo17  1  0.74994503  0.18336801  0.84242704  1
  Re  Re18  1  0.29322504  0.81140302  0.16932500  1
  Br  Br19  1  0.85792206  0.87610003  0.66932503  1
