# generated using pymatgen
data_LaEuDyHoPu2UBeVTc2SnHgRuPbAuSeXeOHe
_symmetry_space_group_name_H-M   'P 1'
_cell_length_a   5.55920315
_cell_length_b   5.58868790
_cell_length_c   7.87857485
_cell_angle_alpha   90.00000000
_cell_angle_beta   90.00000000
_cell_angle_gamma   90.00000000
_symmetry_Int_Tables_number   1
_chemical_formula_structural   LaEuDyHoPu2UBeVTc2SnHgRuPbAuSeXeOHe
_chemical_formula_sum
'La1 Eu1 Dy1 Ho1 Pu2 U1 Be1 V1 Tc2 Sn1 Hg1 Ru1 Pb1 Au1 Se1 Xe1 O1 He1'
_cell_volume   244.77669508
_cell_formula_units_Z   1
loop_
 _symmetry_equiv_pos_site_id
 _symmetry_equiv_pos_as_xyz
  1  'x, y, z'
loop_
 _atom_site_type_symbol
 _atom_site_label
 _atom_site_symmetry_multiplicity
 _atom_site_fract_x
 _atom_site_fract_y
 _atom_site_fract_z
 _atom_site_occupancy
  Pu  Pu0  1  0.49228999  0.46653401  0.75000001  1
  Au  Au1  1  0.99228997  0.03346600  0.25000000  1
  U  U2  1  0.00771000  0.96653402  0.75000001  1
  Hg  Hg3  1  0.50770999  0.53346601  0.25000000  1
  Se  Se4  1  0.00000000  0.50000001  0.50000001  1
  V  V5  1  0.49999999  0.00000000  0.50000001  1
  Eu  Eu6  1  0.49999999  0.00000000  0.00000000  1
  O  O7  1  0.00000000  0.50000001  0.00000000  1
  Xe  Xe8  1  0.71620998  0.28477401  0.45881401  1
  Pb  Pb9  1  0.21620999  0.21522600  0.54118601  1
  Pu  Pu10  1  0.78378998  0.78477401  0.04118600  1
  Tc  Tc11  1  0.28378999  0.71522601  0.95881402  1
  Ru  Ru12  1  0.28378999  0.71522601  0.54118601  1
  Ho  Ho13  1  0.78378998  0.78477401  0.45881401  1
  Be  Be14  1  0.21620999  0.21522600  0.95881402  1
  Dy  Dy15  1  0.71620998  0.28477401  0.04118600  1
  Sn  Sn16  1  0.07662800  0.48455601  0.25000000  1
  He  He17  1  0.57662798  0.01544400  0.75000001  1
  La  La18  1  0.42337199  0.98455602  0.25000000  1
  Tc  Tc19  1  0.92337198  0.51544401  0.75000001  1
