# generated using pymatgen
data_NdMgNpAlCrReTcSnHgHRhN
_symmetry_space_group_name_H-M   'P 1'
_cell_length_a   4.90654278
_cell_length_b   5.39606190
_cell_length_c   5.67679644
_cell_angle_alpha   74.76350403
_cell_angle_beta   89.92855072
_cell_angle_gamma   80.74587250
_symmetry_Int_Tables_number   1
_chemical_formula_structural   NdMgNpAlCrReTcSnHgHRhN
_chemical_formula_sum
'Nd1 Mg1 Np1 Al1 Cr1 Re1 Tc1 Sn1 Hg1 H1 Rh1 N1'
_cell_volume   142.99556927
_cell_formula_units_Z   1
loop_
 _symmetry_equiv_pos_site_id
 _symmetry_equiv_pos_as_xyz
  1  'x, y, z'
loop_
 _atom_site_type_symbol
 _atom_site_label
 _atom_site_symmetry_multiplicity
 _atom_site_fract_x
 _atom_site_fract_y
 _atom_site_fract_z
 _atom_site_occupancy
  Al  Al0  1  0.50008393  0.99993203  0.74914296  1
  Re  Re1  1  0.99991797  0.00006400  0.50084305  1
  Cr  Cr2  1  0.50007193  0.99993803  0.24923696  1
  Sn  Sn3  1  0.99991997  0.00007500  0.00075506  1
  N  N4  1  0.19848895  0.81718202  0.79671795  1
  Mg  Mg5  1  0.19851095  0.81735002  0.29677896  1
  Nd  Nd6  1  0.69858193  0.81703702  0.54454798  1
  Hg  Hg7  1  0.69862193  0.81719902  0.04440499  1
  H  H8  1  0.30147298  0.18262600  0.95321300  1
  Rh  Rh9  1  0.30152798  0.18277700  0.45329600  1
  Np  Np10  1  0.80144497  0.18297100  0.70545603  1
  Tc  Tc11  1  0.80135797  0.18284700  0.20560703  1
