# generated using pymatgen
data_NaCaAcHoNpTiCr2MoW
_symmetry_space_group_name_H-M   'P 1'
_cell_length_a   8.59059525
_cell_length_b   8.59059525
_cell_length_c   8.59059525
_cell_angle_alpha   60.00000000
_cell_angle_beta   60.00000000
_cell_angle_gamma   60.00000000
_symmetry_Int_Tables_number   1
_chemical_formula_structural   NaCaAcHoNpTiCr2MoW
_chemical_formula_sum   'Na1 Ca1 Ac1 Ho1 Np1 Ti1 Cr2 Mo1 W1'
_cell_volume   448.28558506
_cell_formula_units_Z   1
loop_
 _symmetry_equiv_pos_site_id
 _symmetry_equiv_pos_as_xyz
  1  'x, y, z'
loop_
 _atom_site_type_symbol
 _atom_site_label
 _atom_site_symmetry_multiplicity
 _atom_site_fract_x
 _atom_site_fract_y
 _atom_site_fract_z
 _atom_site_occupancy
  W  W0  1  0.24999999  0.24999999  0.24999999  1
  Ho  Ho1  1  0.74999998  0.74999998  0.74999998  1
  Mo  Mo2  1  0.00000000  0.00000000  0.00000000  1
  Cr  Cr3  1  0.49999999  0.49999999  0.49999999  1
  Ac  Ac4  1  0.22988399  0.77011598  0.22988399  1
  Ca  Ca5  1  0.22988399  0.22988399  0.77011598  1
  Ti  Ti6  1  0.77011598  0.22988399  0.77011598  1
  Na  Na7  1  0.22988399  0.77011598  0.77011598  1
  Np  Np8  1  0.77011598  0.22988399  0.22988399  1
  Cr  Cr9  1  0.77011598  0.77011598  0.22988399  1
