# generated using pymatgen
data_KDyThZnAgMoPdNe
_symmetry_space_group_name_H-M   'P 1'
_cell_length_a   4.26588821
_cell_length_b   5.27407408
_cell_length_c   5.27407408
_cell_angle_alpha   120.00000000
_cell_angle_beta   90.00000000
_cell_angle_gamma   90.00000000
_symmetry_Int_Tables_number   1
_chemical_formula_structural   KDyThZnAgMoPdNe
_chemical_formula_sum   'K1 Dy1 Th1 Zn1 Ag1 Mo1 Pd1 Ne1'
_cell_volume   102.76200123
_cell_formula_units_Z   1
loop_
 _symmetry_equiv_pos_site_id
 _symmetry_equiv_pos_as_xyz
  1  'x, y, z'
loop_
 _atom_site_type_symbol
 _atom_site_label
 _atom_site_symmetry_multiplicity
 _atom_site_fract_x
 _atom_site_fract_y
 _atom_site_fract_z
 _atom_site_occupancy
  Th  Th0  1  0.74999996  0.83640798  0.16359199  1
  K  K1  1  0.74999996  0.32718399  0.16359199  1
  Mo  Mo2  1  0.74999996  0.83640798  0.67281598  1
  Ag  Ag3  1  0.24999999  0.16359200  0.83640798  1
  Dy  Dy4  1  0.24999999  0.67281599  0.83640797  1
  Zn  Zn5  1  0.24999999  0.16359200  0.32718399  1
  Pd  Pd6  1  0.24999999  0.66666665  0.33333332  1
  Ne  Ne7  1  0.74999996  0.33333333  0.66666665  1
