# generated using pymatgen
data_LaSmCrTcSnHgBPbSeS
_symmetry_space_group_name_H-M   'P 1'
_cell_length_a   4.49495888
_cell_length_b   7.51993656
_cell_length_c   8.98978615
_cell_angle_alpha   107.39190674
_cell_angle_beta   89.99452209
_cell_angle_gamma   107.39034271
_symmetry_Int_Tables_number   1
_chemical_formula_structural   LaSmCrTcSnHgBPbSeS
_chemical_formula_sum   'La1 Sm1 Cr1 Tc1 Sn1 Hg1 B1 Pb1 Se1 S1'
_cell_volume   275.39214874
_cell_formula_units_Z   1
loop_
 _symmetry_equiv_pos_site_id
 _symmetry_equiv_pos_as_xyz
  1  'x, y, z'
loop_
 _atom_site_type_symbol
 _atom_site_label
 _atom_site_symmetry_multiplicity
 _atom_site_fract_x
 _atom_site_fract_y
 _atom_site_fract_z
 _atom_site_occupancy
  Sm  Sm0  1  0.65329301  0.30657300  0.32663999  1
  Cr  Cr1  1  0.65329401  0.30657500  0.82664098  1
  Sn  Sn2  1  0.34670699  0.69342700  0.67336001  1
  Se  Se3  1  0.34670699  0.69342600  0.17335902  1
  Pb  Pb4  1  0.00000000  0.00000000  0.49999999  1
  La  La5  1  0.00000000  0.00000000  0.00000000  1
  Hg  Hg6  1  0.87371400  0.74743900  0.43685200  1
  S  S7  1  0.87371100  0.74744000  0.93686199  1
  Tc  Tc8  1  0.12628599  0.25256100  0.56314700  1
  B  B9  1  0.12628899  0.25256000  0.06313801  1
