# generated using pymatgen
data_CsLaCeNd2EuY2ErHfNbTc2HeVSe
_symmetry_space_group_name_H-M   'P 1'
_cell_length_a   5.35123062
_cell_length_b   5.96844625
_cell_length_c   6.05827188
_cell_angle_alpha   60.48919296
_cell_angle_beta   73.34169769
_cell_angle_gamma   90.00022125
_symmetry_Int_Tables_number   1
_chemical_formula_structural   CsLaCeNd2EuY2ErHfNbTc2HeVSe
_chemical_formula_sum
'Cs1 La1 Ce1 Nd2 Eu1 Y2 Er1 Hf1 Nb1 Tc2 He1 V1 Se1'
_cell_volume   158.99139343
_cell_formula_units_Z   1
loop_
 _symmetry_equiv_pos_site_id
 _symmetry_equiv_pos_as_xyz
  1  'x, y, z'
loop_
 _atom_site_type_symbol
 _atom_site_label
 _atom_site_symmetry_multiplicity
 _atom_site_fract_x
 _atom_site_fract_y
 _atom_site_fract_z
 _atom_site_occupancy
  Er  Er0  1  0.00000996  0.49995800  0.50002400  1
  Eu  Eu1  1  0.00001192  0.99995701  0.50002001  1
  Tc  Tc2  1  0.00001392  0.99994501  0.00002001  1
  Hf  Hf3  1  0.49908896  0.74690400  0.50634301  1
  La  La4  1  0.50094000  0.25300900  0.49369900  1
  Y  Y5  1  0.49998796  0.76297600  0.00007501  1
  He  He6  1  0.50004100  0.23693300  0.99996900  1
  Tc  Tc7  1  0.00001196  0.49995000  0.00002201  1
  Nb  Nb8  1  0.73073598  0.61503700  0.76985201  1
  Nd  Nd9  1  0.74732602  0.12640600  0.74702800  1
  Nd  Nd10  1  0.26929498  0.38486400  0.23019701  1
  Ce  Ce11  1  0.25269594  0.87351200  0.25300901  1
  Cs  Cs12  1  0.25874598  0.37526200  0.74441600  1
  V  V13  1  0.25866394  0.88021200  0.74451501  1
  Se  Se14  1  0.74127798  0.62463600  0.25563101  1
  Y  Y15  1  0.74136602  0.11970700  0.25552101  1
