# generated using pymatgen
data_TbHoHfTiZnCrReHgBi2BRuXeBrClO
_symmetry_space_group_name_H-M   'P 1'
_cell_length_a   5.08548021
_cell_length_b   5.08548021
_cell_length_c   6.37532091
_cell_angle_alpha   113.50575256
_cell_angle_beta   113.50575256
_cell_angle_gamma   90.00000000
_symmetry_Int_Tables_number   1
_chemical_formula_structural   TbHoHfTiZnCrReHgBi2BRuXeBrClO
_chemical_formula_sum
'Tb1 Ho1 Hf1 Ti1 Zn1 Cr1 Re1 Hg1 Bi2 B1 Ru1 Xe1 Br1 Cl1 O1'
_cell_volume   136.14788051
_cell_formula_units_Z   1
loop_
 _symmetry_equiv_pos_site_id
 _symmetry_equiv_pos_as_xyz
  1  'x, y, z'
loop_
 _atom_site_type_symbol
 _atom_site_label
 _atom_site_symmetry_multiplicity
 _atom_site_fract_x
 _atom_site_fract_y
 _atom_site_fract_z
 _atom_site_occupancy
  O  O0  1  0.00000000  0.00000000  0.00000000  1
  Zn  Zn1  1  0.25000004  0.75000000  0.50000008  1
  Re  Re2  1  0.49211005  0.99210999  0.98422012  1
  Ti  Ti3  1  0.00789003  0.50789000  0.01578004  1
  Hg  Hg4  1  0.69407699  0.03688300  0.62096405  1
  Bi  Bi5  1  0.92688702  0.58408100  0.62096410  1
  Cr  Cr6  1  0.96311699  0.07311300  0.37903606  1
  Ho  Ho7  1  0.41591901  0.30592300  0.37903605  1
  B  B8  1  0.54194701  0.28400900  0.75328806  1
  Cl  Cl9  1  0.21134102  0.46927900  0.75328806  1
  Tb  Tb10  1  0.71599103  0.78865899  0.24671210  1
  Br  Br11  1  0.53072102  0.45805300  0.24671206  1
  Hf  Hf12  1  0.63970600  0.11316100  0.77159406  1
  Bi  Bi13  1  0.13188804  0.65843300  0.77159407  1
  Xe  Xe14  1  0.88683904  0.86811099  0.22840511  1
  Ru  Ru15  1  0.34156702  0.36029500  0.22840705  1
