# generated using pymatgen
data_NdEuHoUTlCdGaTcMoOsWN
_symmetry_space_group_name_H-M   'P 1'
_cell_length_a   3.72672296
_cell_length_b   6.86200809
_cell_length_c   9.14417362
_cell_angle_alpha   90.00000000
_cell_angle_beta   90.00000000
_cell_angle_gamma   90.00000000
_symmetry_Int_Tables_number   1
_chemical_formula_structural   NdEuHoUTlCdGaTcMoOsWN
_chemical_formula_sum
'Nd1 Eu1 Ho1 U1 Tl1 Cd1 Ga1 Tc1 Mo1 Os1 W1 N1'
_cell_volume   233.84215145
_cell_formula_units_Z   1
loop_
 _symmetry_equiv_pos_site_id
 _symmetry_equiv_pos_as_xyz
  1  'x, y, z'
loop_
 _atom_site_type_symbol
 _atom_site_label
 _atom_site_symmetry_multiplicity
 _atom_site_fract_x
 _atom_site_fract_y
 _atom_site_fract_z
 _atom_site_occupancy
  U  U0  1  0.25000000  0.77267699  0.16186901  1
  Ga  Ga1  1  0.75000001  0.22732300  0.83813103  1
  Eu  Eu2  1  0.25000000  0.27267700  0.33813101  1
  Mo  Mo3  1  0.75000001  0.72732299  0.66186903  1
  Ho  Ho4  1  0.25000000  0.91699299  0.85262504  1
  Tc  Tc5  1  0.75000001  0.08300700  0.14737501  1
  Tl  Tl6  1  0.25000000  0.41699299  0.64737503  1
  Cd  Cd7  1  0.75000001  0.58300699  0.35262501  1
  W  W8  1  0.75000001  0.62032599  0.95774504  1
  Os  Os9  1  0.25000000  0.37967399  0.04225500  1
  N  N10  1  0.75000001  0.12032600  0.54225502  1
  Nd  Nd11  1  0.25000000  0.87967399  0.45774502  1
