# generated using pymatgen
data_BaCePmEuDyY2ErHfScBeCoTeAsPN
_symmetry_space_group_name_H-M   'P 1'
_cell_length_a   5.49760199
_cell_length_b   7.96150780
_cell_length_c   7.96150780
_cell_angle_alpha   120.00000000
_cell_angle_beta   90.00000000
_cell_angle_gamma   90.00000000
_symmetry_Int_Tables_number   1
_chemical_formula_structural   BaCePmEuDyY2ErHfScBeCoTeAsPN
_chemical_formula_sum
'Ba1 Ce1 Pm1 Eu1 Y2 Dy1 Er1 Hf1 Sc1 Be1 Co1 Te1 As1 P1 N1'
_cell_volume   301.78286410
_cell_formula_units_Z   1
loop_
 _symmetry_equiv_pos_site_id
 _symmetry_equiv_pos_as_xyz
  1  'x, y, z'
loop_
 _atom_site_type_symbol
 _atom_site_label
 _atom_site_symmetry_multiplicity
 _atom_site_fract_x
 _atom_site_fract_y
 _atom_site_fract_z
 _atom_site_occupancy
  Ce  Ce0  1  0.75000000  0.75717901  0.75717899  1
  Y  Y1  1  0.25000000  0.75717901  -0.00000001  1
  Te  Te2  1  0.25000000  0.00000000  0.75717900  1
  Eu  Eu3  1  0.75000000  0.00000000  0.24282100  1
  As  As4  1  0.75000000  0.24282100  -0.00000000  1
  Dy  Dy5  1  0.25000000  0.24282100  0.24282100  1
  P  P6  1  -0.00000000  0.33333334  0.66666667  1
  Ba  Ba7  1  0.50000000  0.66666668  0.33333333  1
  Er  Er8  1  0.50000000  0.33333334  0.66666667  1
  Pm  Pm9  1  -0.00000000  0.66666668  0.33333333  1
  Hf  Hf10  1  0.75000000  0.40150101  0.40150100  1
  Y  Y11  1  0.25000000  0.59849901  0.59849900  1
  Be  Be12  1  0.75000000  0.00000000  0.59849900  1
  Sc  Sc13  1  0.25000000  0.00000000  0.40150100  1
  Co  Co14  1  0.25000000  0.40150101  -0.00000001  1
  N  N15  1  0.75000000  0.59849901  -0.00000001  1
