# generated using pymatgen
data_Sr2Tb2YbYPaBeTlCo2SnHgP2WXeO
_symmetry_space_group_name_H-M   'P 1'
_cell_length_a   5.89188194
_cell_length_b   8.76183891
_cell_length_c   8.76183891
_cell_angle_alpha   120.00000000
_cell_angle_beta   90.00000000
_cell_angle_gamma   90.00000000
_symmetry_Int_Tables_number   1
_chemical_formula_structural   Sr2Tb2YbYPaBeTlCo2SnHgP2WXeO
_chemical_formula_sum
'Sr2 Yb1 Tb2 Y1 Pa1 Be1 Tl1 Co2 Sn1 Hg1 P2 W1 Xe1 O1'
_cell_volume   391.71950464
_cell_formula_units_Z   1
loop_
 _symmetry_equiv_pos_site_id
 _symmetry_equiv_pos_as_xyz
  1  'x, y, z'
loop_
 _atom_site_type_symbol
 _atom_site_label
 _atom_site_symmetry_multiplicity
 _atom_site_fract_x
 _atom_site_fract_y
 _atom_site_fract_z
 _atom_site_occupancy
  W  W0  1  -0.00000000  0.33333333  0.66666669  1
  Xe  Xe1  1  -0.00000000  0.66666665  0.33333335  1
  Be  Be2  1  0.50000000  0.66666665  0.33333335  1
  Sr  Sr3  1  0.50000000  0.33333333  0.66666669  1
  Y  Y4  1  0.25000000  0.28196199  0.00000001  1
  Hg  Hg5  1  0.25000000  0.71803798  0.71803803  1
  Pa  Pa6  1  0.25000000  0.99999998  0.28196203  1
  Yb  Yb7  1  0.75000001  0.71803798  0.00000002  1
  Sr  Sr8  1  0.75000001  0.28196199  0.28196201  1
  Tb  Tb9  1  0.75000001  0.00000000  0.71803802  1
  Tb  Tb10  1  0.00000000  0.00000000  0.00000000  1
  Sn  Sn11  1  0.50000000  0.00000000  -0.00000000  1
  O  O12  1  0.25000000  0.62223599  1.00000004  1
  Co  Co13  1  0.25000000  0.37776399  0.37776402  1
  P  P14  1  0.25000000  0.99999998  0.62223604  1
  Tl  Tl15  1  0.75000001  0.37776399  0.00000001  1
  P  P16  1  0.75000001  0.62223599  0.62223603  1
  Co  Co17  1  0.75000001  0.00000000  0.37776401  1
