# generated using pymatgen
data_LiTbPuUPaInH2CN
_symmetry_space_group_name_H-M   'P 1'
_cell_length_a   6.53557014
_cell_length_b   6.53557014
_cell_length_c   6.53557014
_cell_angle_alpha   60.00000000
_cell_angle_beta   60.00000000
_cell_angle_gamma   60.00000000
_symmetry_Int_Tables_number   1
_chemical_formula_structural   LiTbPuUPaInH2CN
_chemical_formula_sum   'Li1 Tb1 Pu1 U1 Pa1 In1 H2 C1 N1'
_cell_volume   197.39467953
_cell_formula_units_Z   1
loop_
 _symmetry_equiv_pos_site_id
 _symmetry_equiv_pos_as_xyz
  1  'x, y, z'
loop_
 _atom_site_type_symbol
 _atom_site_label
 _atom_site_symmetry_multiplicity
 _atom_site_fract_x
 _atom_site_fract_y
 _atom_site_fract_z
 _atom_site_occupancy
  N  N0  1  0.50000000  0.50000000  0.50000000  1
  Tb  Tb1  1  0.25000000  0.25000000  0.25000000  1
  In  In2  1  0.75000001  0.75000001  0.75000001  1
  Pu  Pu3  1  0.00000000  0.00000000  0.00000000  1
  Pa  Pa4  1  0.22427100  0.77572901  0.22427100  1
  U  U5  1  0.22427100  0.22427100  0.77572901  1
  Li  Li6  1  0.77572901  0.22427100  0.77572901  1
  C  C7  1  0.22427100  0.77572901  0.77572901  1
  H  H8  1  0.77572901  0.22427100  0.22427100  1
  H  H9  1  0.77572901  0.77572901  0.22427100  1
