# generated using pymatgen
data_AcDyThAgHg2GeMoRuPbWXeBrNe
_symmetry_space_group_name_H-M   'P 1'
_cell_length_a   6.48413801
_cell_length_b   6.58383083
_cell_length_c   6.58383083
_cell_angle_alpha   60.85399246
_cell_angle_beta   60.49964523
_cell_angle_gamma   60.49964523
_symmetry_Int_Tables_number   1
_chemical_formula_structural   AcDyThAgHg2GeMoRuPbWXeBrNe
_chemical_formula_sum
'Ac1 Dy1 Th1 Ag1 Hg2 Ge1 Mo1 Ru1 Pb1 W1 Xe1 Br1 Ne1'
_cell_volume   201.51178889
_cell_formula_units_Z   1
loop_
 _symmetry_equiv_pos_site_id
 _symmetry_equiv_pos_as_xyz
  1  'x, y, z'
loop_
 _atom_site_type_symbol
 _atom_site_label
 _atom_site_symmetry_multiplicity
 _atom_site_fract_x
 _atom_site_fract_y
 _atom_site_fract_z
 _atom_site_occupancy
  Mo  Mo0  1  0.50000002  1.00000000  0.49999998  1
  Xe  Xe1  1  0.00000002  1.00000000  0.49999997  1
  Ac  Ac2  1  0.13357201  0.61642800  0.11642799  1
  Ag  Ag3  1  0.86642800  0.38357200  0.88357201  1
  Br  Br4  1  0.50000001  0.50000000  0.50000000  1
  Dy  Dy5  1  0.49999999  0.00000000  0.00000001  1
  Ge  Ge6  1  0.26714800  0.25200000  0.75200000  1
  W  W7  1  0.72885200  0.25200000  0.75200001  1
  Hg  Hg8  1  0.73473700  0.26046200  0.27006401  1
  Ne  Ne9  1  0.73473701  0.77006400  0.76046199  1
  Th  Th10  1  0.26526300  0.22993600  0.23953800  1
  Ru  Ru11  1  0.26526301  0.73953800  0.72993598  1
  Hg  Hg12  1  0.27114801  0.74800000  0.24799998  1
  Pb  Pb13  1  0.73285201  0.74800000  0.24799999  1
