# generated using pymatgen
data_HfZrTiNbTlZnCdInSiAgBiBSbPtRhKr
_symmetry_space_group_name_H-M   'P 1'
_cell_length_a   6.39851856
_cell_length_b   6.39851856
_cell_length_c   6.39851856
_cell_angle_alpha   60.00000000
_cell_angle_beta   60.00000000
_cell_angle_gamma   60.00000000
_symmetry_Int_Tables_number   1
_chemical_formula_structural   HfZrTiNbTlZnCdInSiAgBiBSbPtRhKr
_chemical_formula_sum
'Hf1 Zr1 Ti1 Nb1 Tl1 Zn1 Cd1 In1 Si1 Ag1 Bi1 B1 Sb1 Rh1 Pt1 Kr1'
_cell_volume   185.23510879
_cell_formula_units_Z   1
loop_
 _symmetry_equiv_pos_site_id
 _symmetry_equiv_pos_as_xyz
  1  'x, y, z'
loop_
 _atom_site_type_symbol
 _atom_site_label
 _atom_site_symmetry_multiplicity
 _atom_site_fract_x
 _atom_site_fract_y
 _atom_site_fract_z
 _atom_site_occupancy
  Bi  Bi0  1  0.87500003  0.87500003  0.37500001  1
  Tl  Tl1  1  0.87500003  0.87500003  0.87500003  1
  In  In2  1  0.87500003  0.37500001  0.87500003  1
  Si  Si3  1  0.37500001  0.87500003  0.87500003  1
  Nb  Nb4  1  0.80373002  0.80373002  0.19627001  1
  Ag  Ag5  1  0.19627001  0.19627001  0.80373002  1
  Ti  Ti6  1  0.80373002  0.19627001  0.19627001  1
  Kr  Kr7  1  0.19627001  0.80373002  0.80373002  1
  Hf  Hf8  1  0.80373002  0.19627001  0.80373002  1
  Zr  Zr9  1  0.19627001  0.80373002  0.19627001  1
  Rh  Rh10  1  0.94627003  0.94627003  0.55373002  1
  B  B11  1  0.55373002  0.55373002  0.94627003  1
  Cd  Cd12  1  0.94627003  0.55373002  0.55373002  1
  Sb  Sb13  1  0.55373002  0.94627003  0.94627003  1
  Pt  Pt14  1  0.94627003  0.55373002  0.94627003  1
  Zn  Zn15  1  0.55373002  0.94627003  0.55373002  1
