# generated using pymatgen
data_HeErThMgUTlAgGeBiRuRhCl
_symmetry_space_group_name_H-M   'P 1'
_cell_length_a   4.14923811
_cell_length_b   7.05347204
_cell_length_c   7.95879412
_cell_angle_alpha   90.00000000
_cell_angle_beta   90.00000000
_cell_angle_gamma   90.00000000
_symmetry_Int_Tables_number   1
_chemical_formula_structural   HeErThMgUTlAgGeBiRuRhCl
_chemical_formula_sum
'He1 Er1 Th1 Mg1 U1 Tl1 Ag1 Ge1 Bi1 Ru1 Rh1 Cl1'
_cell_volume   232.92632660
_cell_formula_units_Z   1
loop_
 _symmetry_equiv_pos_site_id
 _symmetry_equiv_pos_as_xyz
  1  'x, y, z'
loop_
 _atom_site_type_symbol
 _atom_site_label
 _atom_site_symmetry_multiplicity
 _atom_site_fract_x
 _atom_site_fract_y
 _atom_site_fract_z
 _atom_site_occupancy
  He  He0  1  0.24999999  0.52978600  0.30857700  1
  Rh  Rh1  1  0.24999999  0.02978600  0.19142300  1
  Er  Er2  1  0.74999998  0.47021400  0.69142299  1
  Mg  Mg3  1  0.74999998  0.97021399  0.80857699  1
  Tl  Tl4  1  0.24999999  0.24992400  0.88014099  1
  Cl  Cl5  1  0.24999999  0.74992400  0.61985899  1
  Th  Th6  1  0.74999998  0.75007600  0.11985900  1
  Ag  Ag7  1  0.74999998  0.25007600  0.38014099  1
  Ge  Ge8  1  0.24999999  0.64483600  0.93718499  1
  Bi  Bi9  1  0.24999999  0.14483600  0.56281499  1
  Ru  Ru10  1  0.74999998  0.35516400  0.06281500  1
  U  U11  1  0.74999998  0.85516399  0.43718499  1
