# generated using pymatgen
data_BaYbGdLuZrNpTiBeCoRe2HgBTeRu2PbCSeXe
_symmetry_space_group_name_H-M   'P 1'
_cell_length_a   5.33654690
_cell_length_b   7.22745514
_cell_length_c   7.22745514
_cell_angle_alpha   113.73074341
_cell_angle_beta   90.00000000
_cell_angle_gamma   90.00000000
_symmetry_Int_Tables_number   1
_chemical_formula_structural   BaYbGdLuZrNpTiBeCoRe2HgBTeRu2PbCSeXe
_chemical_formula_sum
'Ba1 Yb1 Gd1 Lu1 Zr1 Np1 Ti1 Be1 Co1 Re2 Hg1 B1 Te1 Ru2 Pb1 Se1 C1 Xe1'
_cell_volume   255.19034818
_cell_formula_units_Z   1
loop_
 _symmetry_equiv_pos_site_id
 _symmetry_equiv_pos_as_xyz
  1  'x, y, z'
loop_
 _atom_site_type_symbol
 _atom_site_label
 _atom_site_symmetry_multiplicity
 _atom_site_fract_x
 _atom_site_fract_y
 _atom_site_fract_z
 _atom_site_occupancy
  Zr  Zr0  1  0.75000001  0.29343100  0.09886700  1
  Lu  Lu1  1  0.75000001  0.90113301  0.70656901  1
  Ru  Ru2  1  0.25000000  0.70656901  0.90113301  1
  Ru  Ru3  1  0.25000000  0.09886700  0.29343100  1
  Co  Co4  1  0.25000000  0.59627101  0.40372900  1
  Re  Re5  1  0.75000001  0.40372901  0.59627101  1
  Np  Np6  1  0.75000001  0.80215301  0.19784700  1
  B  B7  1  0.25000000  0.19784700  0.80215301  1
  Xe  Xe8  1  -0.00000000  0.67231401  0.67231401  1
  Se  Se9  1  0.49227701  0.12404600  0.87595501  1
  Hg  Hg10  1  0.75000001  0.56996101  0.10679800  1
  Pb  Pb11  1  0.25000000  0.43003901  0.89320201  1
  Yb  Yb12  1  0.50000001  0.67231401  0.67231401  1
  Ti  Ti13  1  0.75000001  0.89320201  0.43003900  1
  Re  Re14  1  -0.00000000  0.32768600  0.32768600  1
  C  C15  1  0.50000001  0.32768600  0.32768600  1
  Ba  Ba16  1  0.99227702  0.87595501  0.12404600  1
  Be  Be17  1  0.25000000  0.10679800  0.56996101  1
  Te  Te18  1  0.00772300  0.12404600  0.87595501  1
  Gd  Gd19  1  0.50772301  0.87595501  0.12404600  1
