# generated using pymatgen
data_SmUTlSi2I
_symmetry_space_group_name_H-M   'P 1'
_cell_length_a   5.59617186
_cell_length_b   5.59617186
_cell_length_c   5.59617186
_cell_angle_alpha   60.00000000
_cell_angle_beta   60.00000000
_cell_angle_gamma   60.00000000
_symmetry_Int_Tables_number   1
_chemical_formula_structural   SmUTlSi2I
_chemical_formula_sum   'Sm1 U1 Tl1 Si2 I1'
_cell_volume   123.92477276
_cell_formula_units_Z   1
loop_
 _symmetry_equiv_pos_site_id
 _symmetry_equiv_pos_as_xyz
  1  'x, y, z'
loop_
 _atom_site_type_symbol
 _atom_site_label
 _atom_site_symmetry_multiplicity
 _atom_site_fract_x
 _atom_site_fract_y
 _atom_site_fract_z
 _atom_site_occupancy
  U  U0  1  0.00000000  0.00000000  0.00000000  1
  Sm  Sm1  1  0.74999999  0.74999999  0.74999999  1
  Si  Si2  1  0.87499999  0.37499999  0.37499999  1
  Tl  Tl3  1  0.37499999  0.37499999  0.87499999  1
  Si  Si4  1  0.37499999  0.37499999  0.37499999  1
  I  I5  1  0.37499999  0.87499999  0.37499999  1
