# generated using pymatgen
data_PmEuNbSnWXe
_symmetry_space_group_name_H-M   'P 1'
_cell_length_a   3.99556303
_cell_length_b   5.00820065
_cell_length_c   5.00875092
_cell_angle_alpha   119.98111725
_cell_angle_beta   90.00000000
_cell_angle_gamma   90.00000000
_symmetry_Int_Tables_number   1
_chemical_formula_structural   PmEuNbSnWXe
_chemical_formula_sum   'Pm1 Eu1 Nb1 Sn1 W1 Xe1'
_cell_volume   86.81652062
_cell_formula_units_Z   1
loop_
 _symmetry_equiv_pos_site_id
 _symmetry_equiv_pos_as_xyz
  1  'x, y, z'
loop_
 _atom_site_type_symbol
 _atom_site_label
 _atom_site_symmetry_multiplicity
 _atom_site_fract_x
 _atom_site_fract_y
 _atom_site_fract_z
 _atom_site_occupancy
  Pm  Pm0  1  -0.00000000  0.00002200  0.00002700  1
  Sn  Sn1  1  -0.00000000  0.33338298  0.66666668  1
  Xe  Xe2  1  0.00000000  0.66666663  0.33342699  1
  W  W3  1  0.50000000  0.50102697  0.49893600  1
  Eu  Eu4  1  0.50000000  0.99792094  0.49894198  1
  Nb  Nb5  1  0.50000000  0.50105197  0.00210298  1
