# generated using pymatgen
data_NaInBiSbOs2PtCIO
_symmetry_space_group_name_H-M   'P 1'
_cell_length_a   6.57483196
_cell_length_b   7.73143387
_cell_length_c   7.73143482
_cell_angle_alpha   60.00000381
_cell_angle_beta   90.00000000
_cell_angle_gamma   90.00000000
_symmetry_Int_Tables_number   1
_chemical_formula_structural   NaInBiSbOs2PtCIO
_chemical_formula_sum   'Na1 In1 Bi1 Sb1 Os2 Pt1 C1 I1 O1'
_cell_volume   340.35759844
_cell_formula_units_Z   1
loop_
 _symmetry_equiv_pos_site_id
 _symmetry_equiv_pos_as_xyz
  1  'x, y, z'
loop_
 _atom_site_type_symbol
 _atom_site_label
 _atom_site_symmetry_multiplicity
 _atom_site_fract_x
 _atom_site_fract_y
 _atom_site_fract_z
 _atom_site_occupancy
  Bi  Bi0  1  0.75000000  0.66666667  0.66666667  1
  In  In1  1  0.25000000  0.33333334  0.33333333  1
  C  C2  1  0.50000000  0.00000000  0.00000000  1
  I  I3  1  0.00000000  0.00000000  0.00000000  1
  O  O4  1  0.75000000  0.15561500  0.68876999  1
  Pt  Pt5  1  0.25000000  0.31123000  0.84438499  1
  Na  Na6  1  0.75000000  0.68877000  0.15561501  1
  Sb  Sb7  1  0.25000000  0.84438501  0.31123001  1
  Os  Os8  1  0.25000000  0.84438501  0.84438500  1
  Os  Os9  1  0.75000000  0.15561500  0.15561500  1
