# generated using pymatgen
data_CsGdYErThUTaTlCdCoCuSnGeBSbTeOsRhPb2
_symmetry_space_group_name_H-M   'P 1'
_cell_length_a   6.33067894
_cell_length_b   6.33067894
_cell_length_c   6.49943161
_cell_angle_alpha   76.01280975
_cell_angle_beta   76.01280975
_cell_angle_gamma   71.64017487
_symmetry_Int_Tables_number   1
_chemical_formula_structural   CsGdYErThUTaTlCdCoCuSnGeBSbTeOsRhPb2
_chemical_formula_sum
;
Cs1 Gd1 Y1 Er1 Th1 U1 Ta1 Tl1 Cd1 Co1 Cu1 Sn1 Ge1 B1 Sb1 Te1 Os1 Rh1
Pb2
;
_cell_volume   235.98283110
_cell_formula_units_Z   1
loop_
 _symmetry_equiv_pos_site_id
 _symmetry_equiv_pos_as_xyz
  1  'x, y, z'
loop_
 _atom_site_type_symbol
 _atom_site_label
 _atom_site_symmetry_multiplicity
 _atom_site_fract_x
 _atom_site_fract_y
 _atom_site_fract_z
 _atom_site_occupancy
  Cu  Cu0  1  0.81553104  0.81740998  0.99567896  1
  U  U1  1  0.18259001  0.18446900  0.00432099  1
  B  B2  1  0.54576203  0.60662299  0.38314596  1
  Cd  Cd3  1  0.39337702  0.45423799  0.61685398  1
  Te  Te4  1  0.28746301  0.30292899  0.51878199  1
  Ge  Ge5  1  0.69707103  0.71253698  0.48121796  1
  Gd  Gd6  1  0.60627202  0.39372799  -0.00000004  1
  Sb  Sb7  1  0.39426403  0.60573599  -0.00000004  1
  Pb  Pb8  1  0.05701500  0.07369000  0.53735301  1
  Th  Th9  1  0.92631004  0.94298498  0.46264694  1
  Er  Er10  1  0.34285401  0.31910299  0.64477699  1
  Cs  Cs11  1  0.68089703  0.65714599  0.35522296  1
  Os  Os12  1  0.16439101  0.19285300  0.38901600  1
  Co  Co13  1  0.80714704  0.83560898  0.61098395  1
  Sn  Sn14  1  0.04788100  0.04840200  0.73863902  1
  Ta  Ta15  1  0.95159804  0.95211898  0.26136093  1
  Rh  Rh16  1  0.20798503  0.57340099  0.99344000  1
  Y  Y17  1  0.42659904  0.79201498  0.00655995  1
  Tl  Tl18  1  0.79355302  0.42855799  0.99819798  1
  Pb  Pb19  1  0.57144201  0.20644700  0.00180197  1
