# generated using pymatgen
data_KSrSmMgNpUMnAlTlZnReBAsP2Ir2PtSeF
_symmetry_space_group_name_H-M   'P 1'
_cell_length_a   3.75736189
_cell_length_b   8.52884769
_cell_length_c   11.29895687
_cell_angle_alpha   90.00000000
_cell_angle_beta   90.00000000
_cell_angle_gamma   90.00000000
_symmetry_Int_Tables_number   1
_chemical_formula_structural   KSrSmMgNpUMnAlTlZnReBAsP2Ir2PtSeF
_chemical_formula_sum
'K1 Sr1 Sm1 Mg1 Np1 U1 Mn1 Al1 Tl1 Zn1 Re1 B1 As1 P2 Ir2 Pt1 Se1 F1'
_cell_volume   362.08600222
_cell_formula_units_Z   1
loop_
 _symmetry_equiv_pos_site_id
 _symmetry_equiv_pos_as_xyz
  1  'x, y, z'
loop_
 _atom_site_type_symbol
 _atom_site_label
 _atom_site_symmetry_multiplicity
 _atom_site_fract_x
 _atom_site_fract_y
 _atom_site_fract_z
 _atom_site_occupancy
  B  B0  1  0.25000101  0.54622102  0.35224000  1
  Al  Al1  1  0.74999902  0.45377902  0.64776001  1
  As  As2  1  0.25000101  0.04622000  0.14776000  1
  Zn  Zn3  1  0.74999902  0.95377903  0.85224001  1
  Ir  Ir4  1  0.25000101  0.66968402  0.02848000  1
  Np  Np5  1  0.74999902  0.33031601  0.97152001  1
  Sr  Sr6  1  0.25000101  0.16968401  0.47152001  1
  K  K7  1  0.74999902  0.83031603  0.52847901  1
  F  F8  1  0.74999902  0.24246301  0.33091200  1
  P  P9  1  0.25000101  0.75753703  0.66908801  1
  U  U10  1  0.25000101  0.25753801  0.83091201  1
  P  P11  1  0.74999902  0.74246303  0.16908800  1
  Mg  Mg12  1  0.74999902  0.59715402  0.89817301  1
  Se  Se13  1  0.25000101  0.40284701  0.10182700  1
  Mn  Mn14  1  0.25000101  0.90284603  0.39817300  1
  Sm  Sm15  1  0.74999902  0.09715400  0.60182701  1
  Ir  Ir16  1  0.25000101  0.88734803  0.96361801  1
  Re  Re17  1  0.74999902  0.11265200  0.03638200  1
  Tl  Tl18  1  0.25000101  0.38734801  0.53638201  1
  Pt  Pt19  1  0.74999902  0.61265202  0.46361801  1
