# generated using pymatgen
data_CsBaAcYbEuTiTlCrBiBMoSe
_symmetry_space_group_name_H-M   'P 1'
_cell_length_a   3.95202303
_cell_length_b   3.95202303
_cell_length_c   13.07551479
_cell_angle_alpha   81.30799866
_cell_angle_beta   81.30799866
_cell_angle_gamma   60.00001526
_symmetry_Int_Tables_number   1
_chemical_formula_structural   CsBaAcYbEuTiTlCrBiBMoSe
_chemical_formula_sum
'Cs1 Ba1 Ac1 Yb1 Eu1 Ti1 Tl1 Cr1 Bi1 B1 Mo1 Se1'
_cell_volume   174.14593889
_cell_formula_units_Z   1
loop_
 _symmetry_equiv_pos_site_id
 _symmetry_equiv_pos_as_xyz
  1  'x, y, z'
loop_
 _atom_site_type_symbol
 _atom_site_label
 _atom_site_symmetry_multiplicity
 _atom_site_fract_x
 _atom_site_fract_y
 _atom_site_fract_z
 _atom_site_occupancy
  Ac  Ac0  1  0.00000000  0.00000000  0.00000000  1
  Tl  Tl1  1  0.25123200  0.25123200  0.24630401  1
  Mo  Mo2  1  0.49999999  0.50000000  0.50000002  1
  Ti  Ti3  1  0.74876799  0.74876801  0.75369603  1
  Cs  Cs4  1  0.81210398  0.81210401  0.56368802  1
  B  B5  1  0.06104000  0.06104000  0.81688002  1
  Yb  Yb6  1  0.31360999  0.31361000  0.05917000  1
  Ba  Ba7  1  0.56332499  0.56332501  0.31002501  1
  Cr  Cr8  1  0.43667499  0.43667500  0.68997502  1
  Eu  Eu9  1  0.68638999  0.68639001  0.94083003  1
  Bi  Bi10  1  0.93895998  0.93896001  0.18312001  1
  Se  Se11  1  0.18789600  0.18789600  0.43631201  1
