# generated using pymatgen
data_BaYTmHfCuRuWCSKr
_symmetry_space_group_name_H-M   'P 1'
_cell_length_a   6.47512817
_cell_length_b   6.47512817
_cell_length_c   6.47512817
_cell_angle_alpha   60.00000000
_cell_angle_beta   60.00000000
_cell_angle_gamma   60.00000000
_symmetry_Int_Tables_number   1
_chemical_formula_structural   BaYTmHfCuRuWCSKr
_chemical_formula_sum   'Ba1 Y1 Tm1 Hf1 Cu1 Ru1 W1 C1 S1 Kr1'
_cell_volume   191.96856169
_cell_formula_units_Z   1
loop_
 _symmetry_equiv_pos_site_id
 _symmetry_equiv_pos_as_xyz
  1  'x, y, z'
loop_
 _atom_site_type_symbol
 _atom_site_label
 _atom_site_symmetry_multiplicity
 _atom_site_fract_x
 _atom_site_fract_y
 _atom_site_fract_z
 _atom_site_occupancy
  Tm  Tm0  1  0.74999999  0.74999999  0.74999999  1
  C  C1  1  0.25000000  0.25000000  0.25000000  1
  S  S2  1  0.50000000  0.50000000  0.50000000  1
  Cu  Cu3  1  0.00000000  0.00000000  0.00000000  1
  Hf  Hf4  1  0.21076700  0.78923299  0.21076700  1
  W  W5  1  0.78923299  0.21076700  0.78923299  1
  Kr  Kr6  1  0.21076700  0.78923299  0.78923299  1
  Ru  Ru7  1  0.78923299  0.21076700  0.21076700  1
  Y  Y8  1  0.21076700  0.21076700  0.78923299  1
  Ba  Ba9  1  0.78923299  0.78923299  0.21076700  1
