# generated using pymatgen
data_CsDyYLuZnFeNeIr
_symmetry_space_group_name_H-M   'P 1'
_cell_length_a   3.06324911
_cell_length_b   5.03710032
_cell_length_c   5.15804148
_cell_angle_alpha   101.30181122
_cell_angle_beta   104.36975098
_cell_angle_gamma   92.50209045
_symmetry_Int_Tables_number   1
_chemical_formula_structural   CsDyYLuZnFeNeIr
_chemical_formula_sum   'Cs1 Y1 Dy1 Lu1 Zn1 Fe1 Ne1 Ir1'
_cell_volume   75.24533365
_cell_formula_units_Z   1
loop_
 _symmetry_equiv_pos_site_id
 _symmetry_equiv_pos_as_xyz
  1  'x, y, z'
loop_
 _atom_site_type_symbol
 _atom_site_label
 _atom_site_symmetry_multiplicity
 _atom_site_fract_x
 _atom_site_fract_y
 _atom_site_fract_z
 _atom_site_occupancy
  Fe  Fe0  1  0.25802092  0.75182097  0.50440193  1
  Cs  Cs1  1  0.74197895  0.24817899  0.49559796  1
  Y  Y2  1  0.49999993  0.49999998  -0.00000004  1
  Ne  Ne3  1  0.00000000  0.00000000  0.00000000  1
  Lu  Lu4  1  0.59909590  0.86546297  0.22579792  1
  Ir  Ir5  1  0.15131596  0.36003699  0.23178096  1
  Zn  Zn6  1  0.84868391  0.63996298  0.76821892  1
  Dy  Dy7  1  0.40090397  0.13453700  0.77420196  1
