# generated using pymatgen
data_TiBeAlZnCrCdReSiMoPtXeI
_symmetry_space_group_name_H-M   'P 1'
_cell_length_a   3.94597006
_cell_length_b   7.76848221
_cell_length_c   8.64811897
_cell_angle_alpha   109.99629211
_cell_angle_beta   90.00000000
_cell_angle_gamma   104.71273804
_symmetry_Int_Tables_number   1
_chemical_formula_structural   TiBeAlZnCrCdReSiMoPtXeI
_chemical_formula_sum
'Ti1 Be1 Al1 Zn1 Cr1 Cd1 Si1 Re1 Mo1 Pt1 Xe1 I1'
_cell_volume   239.84865341
_cell_formula_units_Z   1
loop_
 _symmetry_equiv_pos_site_id
 _symmetry_equiv_pos_as_xyz
  1  'x, y, z'
loop_
 _atom_site_type_symbol
 _atom_site_label
 _atom_site_symmetry_multiplicity
 _atom_site_fract_x
 _atom_site_fract_y
 _atom_site_fract_z
 _atom_site_occupancy
  Cd  Cd0  1  0.13966697  0.27933401  0.05192501  1
  Cr  Cr1  1  0.86033292  0.72066602  0.94807505  1
  I  I2  1  0.31245994  0.62492002  0.54965604  1
  Xe  Xe3  1  0.68753996  0.37508001  0.45034403  1
  Zn  Zn4  1  0.41837392  0.83674803  0.37350005  1
  Mo  Mo5  1  0.58162598  0.16325201  0.62650002  1
  Be  Be6  1  0.94281791  0.88563603  0.59114205  1
  Ti  Ti7  1  0.05718199  0.11436400  0.40885802  1
  Pt  Pt8  1  0.52555599  0.05111200  0.22335501  1
  Si  Si9  1  0.47444391  0.94888803  0.77664506  1
  Re  Re10  1  0.80720093  0.61440202  0.32280503  1
  Al  Al11  1  0.19279896  0.38559801  0.67719503  1
