# generated using pymatgen
data_BaLiAcGdYAlFeSnBN
_symmetry_space_group_name_H-M   'P 1'
_cell_length_a   5.77123976
_cell_length_b   5.77123976
_cell_length_c   5.77123976
_cell_angle_alpha   60.00000000
_cell_angle_beta   60.00000000
_cell_angle_gamma   60.00000000
_symmetry_Int_Tables_number   1
_chemical_formula_structural   BaLiAcGdYAlFeSnBN
_chemical_formula_sum   'Ba1 Li1 Ac1 Gd1 Y1 Al1 Fe1 Sn1 B1 N1'
_cell_volume   135.92281257
_cell_formula_units_Z   1
loop_
 _symmetry_equiv_pos_site_id
 _symmetry_equiv_pos_as_xyz
  1  'x, y, z'
loop_
 _atom_site_type_symbol
 _atom_site_label
 _atom_site_symmetry_multiplicity
 _atom_site_fract_x
 _atom_site_fract_y
 _atom_site_fract_z
 _atom_site_occupancy
  Ac  Ac0  1  0.75000002  0.75000002  0.75000002  1
  Li  Li1  1  0.25000001  0.25000001  0.25000001  1
  B  B2  1  0.00000000  0.00000000  0.00000000  1
  Y  Y3  1  0.50000001  0.50000001  0.50000001  1
  Gd  Gd4  1  0.25370896  0.74629107  0.25370896  1
  Al  Al5  1  0.74629107  0.25370896  0.74629107  1
  Ba  Ba6  1  0.74629107  0.25370896  0.25370896  1
  Sn  Sn7  1  0.25370896  0.74629107  0.74629107  1
  Fe  Fe8  1  0.74629107  0.74629107  0.25370896  1
  N  N9  1  0.25370896  0.25370896  0.74629107  1
