# generated using pymatgen
data_LiYbNdSmDyHoPaAlZnCrCuNiAgHg2IrHePt
_symmetry_space_group_name_H-M   'P 1'
_cell_length_a   4.76816320
_cell_length_b   4.76816320
_cell_length_c   8.87754059
_cell_angle_alpha   90.00000000
_cell_angle_beta   90.00000000
_cell_angle_gamma   90.00000000
_symmetry_Int_Tables_number   1
_chemical_formula_structural   LiYbNdSmDyHoPaAlZnCrCuNiAgHg2IrHePt
_chemical_formula_sum
'Li1 Yb1 Nd1 Sm1 Dy1 Ho1 Pa1 Al1 Zn1 Cr1 Cu1 Ni1 Ag1 Hg2 Ir1 He1 Pt1'
_cell_volume   201.83426178
_cell_formula_units_Z   1
loop_
 _symmetry_equiv_pos_site_id
 _symmetry_equiv_pos_as_xyz
  1  'x, y, z'
loop_
 _atom_site_type_symbol
 _atom_site_label
 _atom_site_symmetry_multiplicity
 _atom_site_fract_x
 _atom_site_fract_y
 _atom_site_fract_z
 _atom_site_occupancy
  Dy  Dy0  1  0.00000000  0.00000000  0.34631102  1
  Ho  Ho1  1  0.00000000  0.00000000  0.65368903  1
  Zn  Zn2  1  0.49999998  0.49999998  0.15368901  1
  Cu  Cu3  1  0.49999998  0.49999998  0.84631104  1
  Ni  Ni4  1  0.00000000  0.00000000  0.00000000  1
  Ir  Ir5  1  0.49999998  0.49999998  0.50000002  1
  Li  Li6  1  0.18493799  0.81506197  0.84673204  1
  Hg  Hg7  1  0.18493799  0.81506197  0.15326801  1
  Al  Al8  1  0.21129599  0.78870397  0.50000002  1
  He  He9  1  0.28870399  0.28870399  0.00000000  1
  Pa  Pa10  1  0.31506199  0.31506199  0.34673202  1
  Ag  Ag11  1  0.31506199  0.31506199  0.65326803  1
  Hg  Hg12  1  0.68493797  0.68493797  0.65326803  1
  Pt  Pt13  1  0.68493797  0.68493797  0.34673202  1
  Yb  Yb14  1  0.71129597  0.71129597  0.00000000  1
  Cr  Cr15  1  0.78870397  0.21129599  0.50000002  1
  Sm  Sm16  1  0.81506197  0.18493799  0.15326801  1
  Nd  Nd17  1  0.81506197  0.18493799  0.84673204  1
