# generated using pymatgen
data_KBaLiPm2Sm2EuGdCdInGaBAsHPbSKr
_symmetry_space_group_name_H-M   'P 1'
_cell_length_a   5.75893211
_cell_length_b   8.57497215
_cell_length_c   8.57497120
_cell_angle_alpha   120.00000000
_cell_angle_beta   90.00000000
_cell_angle_gamma   90.00000000
_symmetry_Int_Tables_number   1
_chemical_formula_structural   KBaLiPm2Sm2EuGdCdInGaBAsHPbSKr
_chemical_formula_sum
'K1 Ba1 Li1 Pm2 Sm2 Eu1 Gd1 Cd1 In1 Ga1 B1 As1 H1 Pb1 S1 Kr1'
_cell_volume   366.72285682
_cell_formula_units_Z   1
loop_
 _symmetry_equiv_pos_site_id
 _symmetry_equiv_pos_as_xyz
  1  'x, y, z'
loop_
 _atom_site_type_symbol
 _atom_site_label
 _atom_site_symmetry_multiplicity
 _atom_site_fract_x
 _atom_site_fract_y
 _atom_site_fract_z
 _atom_site_occupancy
  S  S0  1  0.99999998  0.33333332  0.66666668  1
  Eu  Eu1  1  -0.00000000  0.66666664  0.33333332  1
  H  H2  1  0.49999999  0.66666664  0.33333332  1
  K  K3  1  0.49999999  0.33333332  0.66666668  1
  Kr  Kr4  1  0.25000000  0.26522399  -0.00000001  1
  Pm  Pm5  1  0.25000000  0.73477597  0.73477600  1
  Pm  Pm6  1  0.25000000  0.00000000  0.26522401  1
  Li  Li7  1  0.74999999  0.73477597  1.00000000  1
  Ga  Ga8  1  0.74999999  0.26522399  0.26522400  1
  Pb  Pb9  1  0.74999999  0.00000000  0.73477602  1
  Ba  Ba10  1  0.49999999  0.00000000  -0.00000000  1
  Gd  Gd11  1  0.00000000  0.00000000  0.00000000  1
  As  As12  1  0.25000000  0.61470198  1.00000001  1
  In  In13  1  0.25000000  0.38529799  0.38529800  1
  Cd  Cd14  1  0.25000000  0.00000000  0.61470202  1
  Sm  Sm15  1  0.74999999  0.38529799  -0.00000002  1
  B  B16  1  0.74999999  0.61470198  0.61470200  1
  Sm  Sm17  1  0.74999999  0.00000000  0.38529801  1
