# generated using pymatgen
data_CsAcYbCeEuYLuMgTaVMoAuSeKrNCl
_symmetry_space_group_name_H-M   'P 1'
_cell_length_a   9.20843792
_cell_length_b   9.31332970
_cell_length_c   9.20843792
_cell_angle_alpha   119.62813568
_cell_angle_beta   90.00000000
_cell_angle_gamma   119.62813568
_symmetry_Int_Tables_number   1
_chemical_formula_structural   CsAcYbCeEuYLuMgTaVMoAuSeKrNCl
_chemical_formula_sum
'Cs1 Yb1 Ac1 Ce1 Eu1 Y1 Lu1 Mg1 Ta1 V1 Mo1 Au1 Se1 Kr1 N1 Cl1'
_cell_volume   564.64035122
_cell_formula_units_Z   1
loop_
 _symmetry_equiv_pos_site_id
 _symmetry_equiv_pos_as_xyz
  1  'x, y, z'
loop_
 _atom_site_type_symbol
 _atom_site_label
 _atom_site_symmetry_multiplicity
 _atom_site_fract_x
 _atom_site_fract_y
 _atom_site_fract_z
 _atom_site_occupancy
  Y  Y0  1  0.00000000  0.00000000  0.00000000  1
  Mg  Mg1  1  0.50000000  0.00000000  0.50000000  1
  Ce  Ce2  1  0.00364103  0.30140102  0.79776003  1
  Au  Au3  1  0.29776003  0.30140102  0.50364103  1
  Lu  Lu4  1  0.50364103  0.30140102  0.00364103  1
  Ta  Ta5  1  0.79776003  0.30140102  0.29776003  1
  Cl  Cl6  1  0.99635907  0.69859905  0.20224006  1
  Se  Se7  1  0.70224007  0.69859905  0.49635907  1
  Kr  Kr8  1  0.49635907  0.69859905  0.99635907  1
  Yb  Yb9  1  0.20224006  0.69859905  0.70224007  1
  Cs  Cs10  1  0.65609209  0.99999908  0.84390709  1
  Mo  Mo11  1  0.34390800  0.00000100  0.15609300  1
  N  N12  1  0.15609200  0.00000000  0.65609201  1
  Eu  Eu13  1  0.84390801  0.00000000  0.34390800  1
  Ac  Ac14  1  0.25000005  0.50000004  0.25000005  1
  V  V15  1  0.75000005  0.50000004  0.75000005  1
