# generated using pymatgen
data_AcSmGaFeHAuSI
_symmetry_space_group_name_H-M   'P 1'
_cell_length_a   5.58425856
_cell_length_b   5.58425856
_cell_length_c   5.58425856
_cell_angle_alpha   60.00000000
_cell_angle_beta   60.00000000
_cell_angle_gamma   60.00000000
_symmetry_Int_Tables_number   1
_chemical_formula_structural   AcSmGaFeHAuSI
_chemical_formula_sum   'Ac1 Sm1 Ga1 Fe1 H1 Au1 S1 I1'
_cell_volume   123.13501202
_cell_formula_units_Z   1
loop_
 _symmetry_equiv_pos_site_id
 _symmetry_equiv_pos_as_xyz
  1  'x, y, z'
loop_
 _atom_site_type_symbol
 _atom_site_label
 _atom_site_symmetry_multiplicity
 _atom_site_fract_x
 _atom_site_fract_y
 _atom_site_fract_z
 _atom_site_occupancy
  Fe  Fe0  1  0.49999999  0.49999999  0.49999999  1
  S  S1  1  0.00000000  0.00000000  0.00000000  1
  I  I2  1  0.79288998  0.79288998  0.20710999  1
  Au  Au3  1  0.79288998  0.20710999  0.20710999  1
  Ga  Ga4  1  0.20710999  0.20710999  0.79288998  1
  H  H5  1  0.79288998  0.20710999  0.79288998  1
  Ac  Ac6  1  0.20710999  0.79288998  0.20710999  1
  Sm  Sm7  1  0.20710999  0.79288998  0.79288998  1
