# generated using pymatgen
data_Lu2VCoHgTeHIrW
_symmetry_space_group_name_H-M   'P 1'
_cell_length_a   5.51949167
_cell_length_b   5.51949167
_cell_length_c   5.51949167
_cell_angle_alpha   60.00000000
_cell_angle_beta   60.00000000
_cell_angle_gamma   60.00000000
_symmetry_Int_Tables_number   1
_chemical_formula_structural   Lu2VCoHgTeHIrW
_chemical_formula_sum   'Lu2 V1 Co1 Hg1 Te1 Ir1 H1 W1'
_cell_volume   118.90010811
_cell_formula_units_Z   1
loop_
 _symmetry_equiv_pos_site_id
 _symmetry_equiv_pos_as_xyz
  1  'x, y, z'
loop_
 _atom_site_type_symbol
 _atom_site_label
 _atom_site_symmetry_multiplicity
 _atom_site_fract_x
 _atom_site_fract_y
 _atom_site_fract_z
 _atom_site_occupancy
  Lu  Lu0  1  0.50000000  0.50000000  0.50000000  1
  W  W1  1  0.25000000  0.25000000  0.25000000  1
  Co  Co2  1  0.75000000  0.75000000  0.75000000  1
  Hg  Hg3  1  0.50000000  0.50000000  -0.00000000  1
  Ir  Ir4  1  0.00000000  0.00000000  0.50000000  1
  V  V5  1  0.50000000  0.00000000  -0.00000000  1
  H  H6  1  0.50000000  0.00000000  0.50000000  1
  Lu  Lu7  1  -0.00000000  0.50000000  0.50000000  1
  Te  Te8  1  -0.00000000  0.50000000  0.00000000  1
