# generated using pymatgen
data_KAcHoErScMnFeCoHgBiSbOsRuCI2
_symmetry_space_group_name_H-M   'P 1'
_cell_length_a   4.94102812
_cell_length_b   5.02302313
_cell_length_c   5.41648293
_cell_angle_alpha   90.00000000
_cell_angle_beta   90.00000000
_cell_angle_gamma   90.00000000
_symmetry_Int_Tables_number   1
_chemical_formula_structural   KAcHoErScMnFeCoHgBiSbOsRuCI2
_chemical_formula_sum
'K1 Ac1 Ho1 Er1 Sc1 Mn1 Fe1 Co1 Hg1 Bi1 Sb1 Os1 Ru1 C1 I2'
_cell_volume   134.43114004
_cell_formula_units_Z   1
loop_
 _symmetry_equiv_pos_site_id
 _symmetry_equiv_pos_as_xyz
  1  'x, y, z'
loop_
 _atom_site_type_symbol
 _atom_site_label
 _atom_site_symmetry_multiplicity
 _atom_site_fract_x
 _atom_site_fract_y
 _atom_site_fract_z
 _atom_site_occupancy
  I  I0  1  0.17886900  0.99229197  0.00000000  1
  Co  Co1  1  0.82113098  0.49229199  0.50000001  1
  Os  Os2  1  0.71985798  0.39699499  0.31417000  1
  Er  Er3  1  0.84760998  0.89650498  0.34666600  1
  Mn  Mn4  1  0.71985798  0.39699499  0.68583001  1
  Ac  Ac5  1  0.28014199  0.89699498  0.81417001  1
  Hg  Hg6  1  0.28014199  0.89699498  0.18583000  1
  Bi  Bi7  1  0.06703800  0.45612499  0.50000001  1
  C  C8  1  0.93296198  0.95612498  -0.00000000  1
  Sb  Sb9  1  0.15239000  0.39650499  0.15333400  1
  K  K10  1  0.43706599  0.34835299  0.00000000  1
  Sc  Sc11  1  0.56293399  0.84835298  0.50000001  1
  I  I12  1  0.84760998  0.89650498  0.65333401  1
  Ru  Ru13  1  0.15239000  0.39650499  0.84666601  1
  Fe  Fe14  1  0.76589298  0.80522898  0.50000001  1
  Ho  Ho15  1  0.23410699  0.30522899  -0.00000000  1
