# generated using pymatgen
data_InSnBiWSeXe
_symmetry_space_group_name_H-M   'P 1'
_cell_length_a   4.39490414
_cell_length_b   5.00959206
_cell_length_c   6.67647934
_cell_angle_alpha   90.00000000
_cell_angle_beta   78.65232849
_cell_angle_gamma   90.00000000
_symmetry_Int_Tables_number   1
_chemical_formula_structural   InSnBiWSeXe
_chemical_formula_sum   'In1 Sn1 Bi1 W1 Se1 Xe1'
_cell_volume   144.12034681
_cell_formula_units_Z   1
loop_
 _symmetry_equiv_pos_site_id
 _symmetry_equiv_pos_as_xyz
  1  'x, y, z'
loop_
 _atom_site_type_symbol
 _atom_site_label
 _atom_site_symmetry_multiplicity
 _atom_site_fract_x
 _atom_site_fract_y
 _atom_site_fract_z
 _atom_site_occupancy
  In  In0  1  0.23081699  0.25000000  0.23806800  1
  Se  Se1  1  0.76918298  0.74999999  0.76193200  1
  W  W2  1  0.52959399  0.25000000  0.60514000  1
  Sn  Sn3  1  0.47040599  0.74999999  0.39486000  1
  Xe  Xe4  1  0.25942299  0.25000000  0.74386701  1
  Bi  Bi5  1  0.74057698  0.74999999  0.25613299  1
