# generated using pymatgen
data_CsLuUTiMnW
_symmetry_space_group_name_H-M   'P 1'
_cell_length_a   4.62606812
_cell_length_b   4.62606859
_cell_length_c   5.79300499
_cell_angle_alpha   90.00000000
_cell_angle_beta   90.00000000
_cell_angle_gamma   120.00000000
_symmetry_Int_Tables_number   1
_chemical_formula_structural   CsLuUTiMnW
_chemical_formula_sum   'Cs1 Lu1 U1 Ti1 Mn1 W1'
_cell_volume   107.36398563
_cell_formula_units_Z   1
loop_
 _symmetry_equiv_pos_site_id
 _symmetry_equiv_pos_as_xyz
  1  'x, y, z'
loop_
 _atom_site_type_symbol
 _atom_site_label
 _atom_site_symmetry_multiplicity
 _atom_site_fract_x
 _atom_site_fract_y
 _atom_site_fract_z
 _atom_site_occupancy
  Ti  Ti0  1  0.66666667  0.33333334  0.78085900  1
  Mn  Mn1  1  0.33333337  0.66666668  0.21914100  1
  Cs  Cs2  1  0.66666667  0.33333334  0.27622100  1
  Lu  Lu3  1  0.33333337  0.66666668  0.72377900  1
  U  U4  1  0.00000000  0.00000000  0.00000000  1
  W  W5  1  0.00000000  0.00000000  0.50000000  1
