# generated using pymatgen
data_ZrNpPaNbHg2IrRhW2OHe
_symmetry_space_group_name_H-M   'P 1'
_cell_length_a   4.70136499
_cell_length_b   5.06170177
_cell_length_c   5.76684999
_cell_angle_alpha   90.00518799
_cell_angle_beta   90.00444031
_cell_angle_gamma   89.23796082
_symmetry_Int_Tables_number   1
_chemical_formula_structural   ZrNpPaNbHg2IrRhW2OHe
_chemical_formula_sum   'Zr1 Np1 Pa1 Nb1 Hg2 Ir1 Rh1 W2 O1 He1'
_cell_volume   137.22105754
_cell_formula_units_Z   1
loop_
 _symmetry_equiv_pos_site_id
 _symmetry_equiv_pos_as_xyz
  1  'x, y, z'
loop_
 _atom_site_type_symbol
 _atom_site_label
 _atom_site_symmetry_multiplicity
 _atom_site_fract_x
 _atom_site_fract_y
 _atom_site_fract_z
 _atom_site_occupancy
  Hg  Hg0  1  0.49967897  0.75031400  0.65795903  1
  Hg  Hg1  1  0.49968999  0.25026700  0.34179900  1
  Ir  Ir2  1  0.00006198  0.74999700  0.17255504  1
  Np  Np3  1  0.00007099  0.24998900  0.82741902  1
  W  W4  1  0.25914999  0.10063400  0.62518300  1
  Zr  Zr5  1  0.74039598  0.39981100  0.62628500  1
  O  O6  1  0.25912998  0.60062900  0.37488002  1
  Rh  Rh7  1  0.74054797  0.89989800  0.37382903  1
  Nb  Nb8  1  0.21764998  0.56883800  0.89131103  1
  Pa  Pa9  1  0.78298198  0.43039800  0.10958000  1
  W  W10  1  0.21766600  0.06884500  0.10873100  1
  He  He11  1  0.78297696  0.93038200  0.89046703  1
