# generated using pymatgen
data_EuGdTlNiBiBMoW
_symmetry_space_group_name_H-M   'P 1'
_cell_length_a   4.15620708
_cell_length_b   4.15622282
_cell_length_c   8.26663971
_cell_angle_alpha   89.99967194
_cell_angle_beta   90.00000763
_cell_angle_gamma   120.00011444
_symmetry_Int_Tables_number   1
_chemical_formula_structural   EuGdTlNiBiBMoW
_chemical_formula_sum   'Eu1 Gd1 Tl1 Ni1 Bi1 B1 Mo1 W1'
_cell_volume   123.66737478
_cell_formula_units_Z   1
loop_
 _symmetry_equiv_pos_site_id
 _symmetry_equiv_pos_as_xyz
  1  'x, y, z'
loop_
 _atom_site_type_symbol
 _atom_site_label
 _atom_site_symmetry_multiplicity
 _atom_site_fract_x
 _atom_site_fract_y
 _atom_site_fract_z
 _atom_site_occupancy
  Ni  Ni0  1  0.00000000  0.00000000  0.50000002  1
  Bi  Bi1  1  0.00000000  0.00000000  0.00000000  1
  Tl  Tl2  1  0.33333330  0.66666669  0.24419703  1
  W  W3  1  0.66666664  0.33333334  0.75580304  1
  Eu  Eu4  1  0.33333330  0.66666669  0.71780604  1
  B  B5  1  0.66666664  0.33333334  0.28219402  1
  Mo  Mo6  1  0.33333330  0.66666669  0.04204802  1
  Gd  Gd7  1  0.66666664  0.33333334  0.95795205  1
