# generated using pymatgen
data_BaPm2GdTlSnMoXe
_symmetry_space_group_name_H-M   'P 1'
_cell_length_a   5.38430786
_cell_length_b   5.38430786
_cell_length_c   6.56503916
_cell_angle_alpha   114.20950317
_cell_angle_beta   114.20950317
_cell_angle_gamma   90.00000000
_symmetry_Int_Tables_number   1
_chemical_formula_structural   BaPm2GdTlSnMoXe
_chemical_formula_sum   'Ba1 Pm2 Gd1 Tl1 Sn1 Mo1 Xe1'
_cell_volume   155.05145163
_cell_formula_units_Z   1
loop_
 _symmetry_equiv_pos_site_id
 _symmetry_equiv_pos_as_xyz
  1  'x, y, z'
loop_
 _atom_site_type_symbol
 _atom_site_label
 _atom_site_symmetry_multiplicity
 _atom_site_fract_x
 _atom_site_fract_y
 _atom_site_fract_z
 _atom_site_occupancy
  Mo  Mo0  1  0.25000001  0.75000002  0.50000002  1
  Tl  Tl1  1  0.50000002  0.50000001  0.00000000  1
  Gd  Gd2  1  0.75000002  0.25000001  0.50000002  1
  Xe  Xe3  1  0.00000000  0.00000000  0.00000000  1
  Ba  Ba4  1  0.37500001  0.39401901  0.25000001  1
  Pm  Pm5  1  0.60598102  0.12500000  0.75000003  1
  Pm  Pm6  1  0.14401901  0.62500002  0.75000003  1
  Sn  Sn7  1  0.87500003  0.85598102  0.25000001  1
