# generated using pymatgen
data_TaHe2AcHgBiTe2AsIrOsPd
_symmetry_space_group_name_H-M   'P 1'
_cell_length_a   3.98619509
_cell_length_b   5.49300480
_cell_length_c   10.29696274
_cell_angle_alpha   90.00000000
_cell_angle_beta   90.00000000
_cell_angle_gamma   90.00000000
_symmetry_Int_Tables_number   1
_chemical_formula_structural   TaHe2AcHgBiTe2AsIrOsPd
_chemical_formula_sum   'Ta1 He2 Ac1 Hg1 Bi1 Te2 As1 Pd1 Ir1 Os1'
_cell_volume   225.46423961
_cell_formula_units_Z   1
loop_
 _symmetry_equiv_pos_site_id
 _symmetry_equiv_pos_as_xyz
  1  'x, y, z'
loop_
 _atom_site_type_symbol
 _atom_site_label
 _atom_site_symmetry_multiplicity
 _atom_site_fract_x
 _atom_site_fract_y
 _atom_site_fract_z
 _atom_site_occupancy
  Ta  Ta0  1  0.00000000  0.00000000  0.50000001  1
  He  He1  1  0.49999999  0.50000002  -0.00000000  1
  Pd  Pd2  1  0.49999999  0.90129803  0.23375401  1
  As  As3  1  0.49999999  0.09870200  0.76624602  1
  Bi  Bi4  1  -0.00000000  0.40129801  0.26624601  1
  Te  Te5  1  0.00000000  0.59870202  0.73375402  1
  He  He6  1  0.00000000  0.00000000  0.00000000  1
  Ir  Ir7  1  0.49999999  0.50000002  0.50000001  1
  Te  Te8  1  0.49999999  0.74985003  0.64694902  1
  Os  Os9  1  -0.00000000  0.24985001  0.85305102  1
  Hg  Hg10  1  -0.00000000  0.75015003  0.14694900  1
  Ac  Ac11  1  0.49999999  0.25015001  0.35305101  1
