# generated using pymatgen
data_NeCsCaLaYbNdThZrNpTaTiTlCdAsCXeF
_symmetry_space_group_name_H-M   'P 1'
_cell_length_a   5.59067822
_cell_length_b   5.59067869
_cell_length_c   8.56275558
_cell_angle_alpha   90.00000000
_cell_angle_beta   90.00000000
_cell_angle_gamma   119.99999237
_symmetry_Int_Tables_number   1
_chemical_formula_structural   NeCsCaLaYbNdThZrNpTaTiTlCdAsCXeF
_chemical_formula_sum
'Ne1 Cs1 Ca1 Yb1 La1 Nd1 Th1 Zr1 Np1 Ta1 Ti1 Tl1 Cd1 As1 C1 Xe1 F1'
_cell_volume   231.77855024
_cell_formula_units_Z   1
loop_
 _symmetry_equiv_pos_site_id
 _symmetry_equiv_pos_as_xyz
  1  'x, y, z'
loop_
 _atom_site_type_symbol
 _atom_site_label
 _atom_site_symmetry_multiplicity
 _atom_site_fract_x
 _atom_site_fract_y
 _atom_site_fract_z
 _atom_site_occupancy
  Ne  Ne0  1  0.00000000  0.00000000  0.29537501  1
  Np  Np1  1  0.00000000  0.00000000  0.70462503  1
  Zr  Zr2  1  0.33333328  0.66666665  -0.00000000  1
  Cd  Cd3  1  0.66666662  0.33333332  -0.00000000  1
  Xe  Xe4  1  0.33333328  0.66666665  0.33260902  1
  Cs  Cs5  1  0.66666662  0.33333332  0.33260902  1
  Yb  Yb6  1  0.66666662  0.33333332  0.66739103  1
  Ta  Ta7  1  0.33333328  0.66666665  0.66739103  1
  Nd  Nd8  1  0.49999998  0.00000000  0.16438701  1
  Ca  Ca9  1  0.49999995  0.49999999  0.16438701  1
  Tl  Tl10  1  -0.00000003  0.49999999  0.16438701  1
  C  C11  1  0.49999998  0.00000000  0.83561304  1
  Th  Th12  1  0.49999995  0.49999999  0.83561304  1
  La  La13  1  -0.00000003  0.49999999  0.83561304  1
  As  As14  1  0.49999998  0.00000000  0.50000002  1
  Ti  Ti15  1  0.49999995  0.49999999  0.50000002  1
  F  F16  1  -0.00000003  0.49999999  0.50000002  1
