# generated using pymatgen
data_CeNdDyNp2TiNb2FeTe2MoWAuCNe2Cl
_symmetry_space_group_name_H-M   'P 1'
_cell_length_a   4.18142509
_cell_length_b   9.66654682
_cell_length_c   12.29890156
_cell_angle_alpha   90.00000000
_cell_angle_beta   90.00000000
_cell_angle_gamma   90.00000000
_symmetry_Int_Tables_number   1
_chemical_formula_structural   CeNdDyNp2TiNb2FeTe2MoWAuCNe2Cl
_chemical_formula_sum
'Ce1 Nd1 Dy1 Np2 Ti1 Nb2 Fe1 Te2 Mo1 W1 Au1 C1 Ne2 Cl1'
_cell_volume   497.12088097
_cell_formula_units_Z   1
loop_
 _symmetry_equiv_pos_site_id
 _symmetry_equiv_pos_as_xyz
  1  'x, y, z'
loop_
 _atom_site_type_symbol
 _atom_site_label
 _atom_site_symmetry_multiplicity
 _atom_site_fract_x
 _atom_site_fract_y
 _atom_site_fract_z
 _atom_site_occupancy
  Nd  Nd0  1  0.24999999  0.33525901  0.42151402  1
  W  W1  1  0.74999998  0.66474101  0.92151403  1
  Ti  Ti2  1  0.74999998  0.99162902  0.39453301  1
  Au  Au3  1  0.74999998  0.99153102  0.10447500  1
  Nb  Nb4  1  0.24999999  0.00846900  0.60447502  1
  Fe  Fe5  1  0.24999999  0.00837100  0.89453303  1
  Nb  Nb6  1  0.24999999  0.31923401  0.07860500  1
  Dy  Dy7  1  0.74999998  0.68076601  0.57860502  1
  Np  Np8  1  0.74999998  0.65425401  0.25056601  1
  C  C9  1  0.24999999  0.34574601  0.75056603  1
  Ce  Ce10  1  0.24999999  0.99678402  0.24967001  1
  Te  Te11  1  0.74999998  0.00321600  0.74967003  1
  Ne  Ne12  1  0.74999998  0.36400901  0.25960601  1
  Mo  Mo13  1  0.24999999  0.63599101  0.75960603  1
  Te  Te14  1  0.74999998  0.38297901  0.57498602  1
  Ne  Ne15  1  0.74999998  0.38988401  0.91604503  1
  Np  Np16  1  0.24999999  0.61011601  0.41604501  1
  Cl  Cl17  1  0.24999999  0.61702101  0.07498600  1
