# generated using pymatgen
data_CsNaSrLi2AcNdHoPuHfThZrAlTcAgGePKrNHe
_symmetry_space_group_name_H-M   'P 1'
_cell_length_a   5.71891308
_cell_length_b   6.10872078
_cell_length_c   7.67428684
_cell_angle_alpha   76.51347351
_cell_angle_beta   71.50331116
_cell_angle_gamma   73.42931366
_symmetry_Int_Tables_number   1
_chemical_formula_structural   CsNaSrLi2AcNdHoPuHfThZrAlTcAgGePKrNHe
_chemical_formula_sum
;
Cs1 Na1 Sr1 Li2 Ac1 Nd1 Ho1 Pu1 Hf1 Th1 Zr1 Al1 Tc1 Ag1 Ge1 P1 Kr1 N1
He1
;
_cell_volume   240.67041853
_cell_formula_units_Z   1
loop_
 _symmetry_equiv_pos_site_id
 _symmetry_equiv_pos_as_xyz
  1  'x, y, z'
loop_
 _atom_site_type_symbol
 _atom_site_label
 _atom_site_symmetry_multiplicity
 _atom_site_fract_x
 _atom_site_fract_y
 _atom_site_fract_z
 _atom_site_occupancy
  Kr  Kr0  1  0.70254200  0.04854400  0.59636898  1
  Tc  Tc1  1  0.32280800  0.44620099  0.38699299  1
  Ge  Ge2  1  0.51966900  0.74521898  0.98947798  1
  Pu  Pu3  1  0.67719200  0.55379899  0.61300697  1
  Ho  Ho4  1  0.29745800  0.95145598  0.40363098  1
  Nd  Nd5  1  0.48033100  0.25478099  0.01052198  1
  Li  Li6  1  0.88596200  0.35995299  0.15518096  1
  Al  Al7  1  0.11403800  0.64004699  0.84481900  1
  P  P8  1  0.10138300  0.15963000  0.79673100  1
  Ag  Ag9  1  0.89861700  0.84036998  0.20326895  1
  Sr  Sr10  1  0.01208700  0.22830699  0.57260000  1
  Cs  Cs11  1  0.84934200  0.94740498  0.92764296  1
  Hf  Hf12  1  0.84489900  0.42143999  0.89318497  1
  Ac  Ac13  1  0.64633700  0.66571798  0.27224097  1
  Zr  Zr14  1  0.98791300  0.77169298  0.42739995  1
  Na  Na15  1  0.35028300  0.87936598  0.72607598  1
  N  N16  1  0.64971700  0.12063400  0.27392397  1
  Li  Li17  1  0.15065800  0.05259500  0.07235699  1
  Th  Th18  1  0.15510100  0.57855999  0.10681499  1
  He  He19  1  0.35366300  0.33428199  0.72775899  1
