# generated using pymatgen
data_CsLiAcNdSm2DyPuScCoSnBKrHeGaGeIrCOF
_symmetry_space_group_name_H-M   'P 1'
_cell_length_a   5.37674189
_cell_length_b   5.62295103
_cell_length_c   7.66139221
_cell_angle_alpha   90.00000000
_cell_angle_beta   90.00000000
_cell_angle_gamma   90.00000000
_symmetry_Int_Tables_number   1
_chemical_formula_structural   CsLiAcNdSm2DyPuScCoSnBKrHeGaGeIrCOF
_chemical_formula_sum
;
Cs1 Li1 Ac1 Nd1 Sm2 Dy1 Pu1 Sc1 Co1 Sn1 B1 Kr1 He1 Ga1 Ge1 Ir1 C1 O1
F1
;
_cell_volume   231.62806845
_cell_formula_units_Z   1
loop_
 _symmetry_equiv_pos_site_id
 _symmetry_equiv_pos_as_xyz
  1  'x, y, z'
loop_
 _atom_site_type_symbol
 _atom_site_label
 _atom_site_symmetry_multiplicity
 _atom_site_fract_x
 _atom_site_fract_y
 _atom_site_fract_z
 _atom_site_occupancy
  Kr  Kr0  1  0.71574902  0.12461600  0.49999999  1
  B  B1  1  0.28425101  0.62461600  0.49999999  1
  Cs  Cs2  1  0.26443401  0.69661400  0.00000000  1
  Sc  Sc3  1  0.73556602  0.19661400  0.00000000  1
  Pu  Pu4  1  0.76178002  0.72080600  0.26611099  1
  Ac  Ac5  1  0.76178002  0.72080600  0.73388898  1
  Sm  Sm6  1  0.23822001  0.22080600  0.73388898  1
  He  He7  1  0.23822001  0.22080600  0.26611099  1
  Nd  Nd8  1  0.94425002  0.05812900  0.71291298  1
  Dy  Dy9  1  0.94425002  0.05812900  0.28708699  1
  Sn  Sn10  1  0.05575000  0.55812900  0.28708699  1
  Sm  Sm11  1  0.05575000  0.55812900  0.71291298  1
  Li  Li12  1  0.45829001  0.97728699  0.79979398  1
  F  F13  1  0.45829001  0.97728699  0.20020599  1
  O  O14  1  0.54171001  0.47728700  0.20020599  1
  Ga  Ga15  1  0.54171001  0.47728700  0.79979398  1
  C  C16  1  0.17141200  0.27272800  -0.00000000  1
  Co  Co17  1  0.82858802  0.77272800  0.00000000  1
  Ir  Ir18  1  0.35014601  0.25359700  0.49999999  1
  Ge  Ge19  1  0.64985401  0.75359700  0.49999999  1
