# generated using pymatgen
data_CsCa2LuZrNpUAgHgRhWS
_symmetry_space_group_name_H-M   'P 1'
_cell_length_a   6.91131878
_cell_length_b   7.28858423
_cell_length_c   7.31801558
_cell_angle_alpha   60.13295364
_cell_angle_beta   90.00000000
_cell_angle_gamma   90.00000000
_symmetry_Int_Tables_number   1
_chemical_formula_structural   CsCa2LuZrNpUAgHgRhWS
_chemical_formula_sum   'Cs1 Ca2 Lu1 Zr1 Np1 U1 Ag1 Hg1 Rh1 W1 S1'
_cell_volume   319.67475618
_cell_formula_units_Z   1
loop_
 _symmetry_equiv_pos_site_id
 _symmetry_equiv_pos_as_xyz
  1  'x, y, z'
loop_
 _atom_site_type_symbol
 _atom_site_label
 _atom_site_symmetry_multiplicity
 _atom_site_fract_x
 _atom_site_fract_y
 _atom_site_fract_z
 _atom_site_occupancy
  Ca  Ca0  1  0.00835200  0.69001797  0.32216203  1
  Ag  Ag1  1  0.00835200  0.01218000  0.67783802  1
  S  S2  1  0.50835202  0.30998198  0.67783803  1
  Np  Np3  1  0.50835202  0.98781995  0.32216204  1
  Zr  Zr4  1  0.03802400  0.34736298  0.00000001  1
  Hg  Hg5  1  0.53802402  0.65263697  0.00000002  1
  U  U6  1  0.62856802  0.64510497  0.31577303  1
  W  W7  1  0.62856802  0.96087795  0.68422705  1
  Rh  Rh8  1  0.12856800  0.35489498  0.68422703  1
  Cs  Cs9  1  0.12856800  0.03912200  0.31577301  1
  Lu  Lu10  1  0.67113502  0.33787298  0.00000001  1
  Ca  Ca11  1  0.17113501  0.66212697  1.00000005  1
