# generated using pymatgen
data_TbPaBe2InSnHeTaHgMoOsRhBr2KrF
_symmetry_space_group_name_H-M   'P 1'
_cell_length_a   6.62041712
_cell_length_b   6.62041712
_cell_length_c   13.00611496
_cell_angle_alpha   90.00000000
_cell_angle_beta   90.00000000
_cell_angle_gamma   90.00000000
_symmetry_Int_Tables_number   1
_chemical_formula_structural   TbPaBe2InSnHeTaHgMoOsRhBr2KrF
_chemical_formula_sum
'Tb1 Be2 Sn1 He1 Ta1 Pa1 In1 Hg1 Mo1 Os1 Rh1 Br2 Kr1 F1'
_cell_volume   570.05701484
_cell_formula_units_Z   1
loop_
 _symmetry_equiv_pos_site_id
 _symmetry_equiv_pos_as_xyz
  1  'x, y, z'
loop_
 _atom_site_type_symbol
 _atom_site_label
 _atom_site_symmetry_multiplicity
 _atom_site_fract_x
 _atom_site_fract_y
 _atom_site_fract_z
 _atom_site_occupancy
  Sn  Sn0  1  0.49999999  0.00000000  0.24922500  1
  Be  Be1  1  0.00000000  0.49999999  0.75077500  1
  He  He2  1  0.49999999  0.49999999  -0.00000000  1
  Tb  Tb3  1  0.00000000  0.49999999  0.24948500  1
  Be  Be4  1  0.49999999  0.00000000  0.75051500  1
  Os  Os5  1  0.00000000  0.00000000  0.00000000  1
  Kr  Kr6  1  0.49999999  0.49999999  0.50000000  1
  Ta  Ta7  1  0.00000000  0.00000000  0.50000000  1
  Rh  Rh8  1  0.75378499  0.25223700  0.37151600  1
  Pa  Pa9  1  0.24901000  0.75617099  0.87533300  1
  Br  Br10  1  0.24621500  0.74776299  0.37151600  1
  Hg  Hg11  1  0.75098999  0.24382900  0.87533300  1
  Br  Br12  1  0.24382900  0.24901000  0.12466700  1
  Mo  Mo13  1  0.74776299  0.75378499  0.62848400  1
  In  In14  1  0.75617099  0.75098999  0.12466700  1
  F  F15  1  0.25223700  0.24621500  0.62848400  1
