# generated using pymatgen
data_CsBaSrLiPmPrNdTmThFeReSiPIrOsSO
_symmetry_space_group_name_H-M   'P 1'
_cell_length_a   6.86533594
_cell_length_b   6.89184761
_cell_length_c   6.89184761
_cell_angle_alpha   85.43724823
_cell_angle_beta   89.17140961
_cell_angle_gamma   90.82859039
_symmetry_Int_Tables_number   1
_chemical_formula_structural   CsBaSrLiPmPrNdTmThFeReSiPIrOsSO
_chemical_formula_sum
'Cs1 Ba1 Sr1 Li1 Pr1 Pm1 Nd1 Tm1 Th1 Fe1 Si1 Re1 P1 Ir1 Os1 S1 O1'
_cell_volume   324.97943760
_cell_formula_units_Z   1
loop_
 _symmetry_equiv_pos_site_id
 _symmetry_equiv_pos_as_xyz
  1  'x, y, z'
loop_
 _atom_site_type_symbol
 _atom_site_label
 _atom_site_symmetry_multiplicity
 _atom_site_fract_x
 _atom_site_fract_y
 _atom_site_fract_z
 _atom_site_occupancy
  Pr  Pr0  1  0.40927402  0.47849799  0.52150201  1
  Cs  Cs1  1  0.48783500  0.00821800  0.99178197  1
  Fe  Fe2  1  0.02031804  0.97724198  0.49354506  1
  Tm  Tm3  1  0.02031802  0.50645499  0.02275803  1
  Th  Th4  1  0.93489001  0.04847500  0.95152496  1
  Ir  Ir5  1  0.57880000  0.06356400  0.16278298  1
  Li  Li6  1  0.57880004  0.83721699  0.93643602  1
  Si  Si7  1  0.51900601  0.15876600  0.84123398  1
  S  S8  1  0.28591604  0.97238298  0.02761705  1
  Sr  Sr9  1  0.12415600  0.10169800  0.61761699  1
  Ba  Ba10  1  0.12225403  0.80684799  0.47682204  1
  O  O11  1  0.00181400  0.08196500  0.30763100  1
  Nd  Nd12  1  0.83418104  0.94126898  0.58052802  1
  Re  Re13  1  0.12225402  0.52317799  0.19315203  1
  Pm  Pm14  1  0.12415602  0.38238299  0.89830201  1
  Os  Os15  1  0.00181403  0.69236899  0.91803503  1
  P  P16  1  0.83418102  0.41947199  0.05873099  1
