# generated using pymatgen
data_YbNdErThNpTa2MnFeAgAsP
_symmetry_space_group_name_H-M   'P 1'
_cell_length_a   3.89334798
_cell_length_b   3.92194295
_cell_length_c   17.39085007
_cell_angle_alpha   90.00000000
_cell_angle_beta   90.00000000
_cell_angle_gamma   90.00000000
_symmetry_Int_Tables_number   1
_chemical_formula_structural   YbNdErThNpTa2MnFeAgAsP
_chemical_formula_sum   'Yb1 Nd1 Er1 Th1 Np1 Ta2 Mn1 Fe1 Ag1 As1 P1'
_cell_volume   265.54938778
_cell_formula_units_Z   1
loop_
 _symmetry_equiv_pos_site_id
 _symmetry_equiv_pos_as_xyz
  1  'x, y, z'
loop_
 _atom_site_type_symbol
 _atom_site_label
 _atom_site_symmetry_multiplicity
 _atom_site_fract_x
 _atom_site_fract_y
 _atom_site_fract_z
 _atom_site_occupancy
  As  As0  1  0.25000000  0.24463400  0.85452600  1
  Fe  Fe1  1  0.75000000  0.74463401  0.64547400  1
  Er  Er2  1  0.75000000  0.75536601  0.14547400  1
  Ta  Ta3  1  0.25000000  0.25536600  0.35452600  1
  P  P4  1  0.25000000  0.78495201  0.49894900  1
  Np  Np5  1  0.75000000  0.21504800  0.50105100  1
  Mn  Mn6  1  0.25000000  0.71504801  0.99894900  1
  Yb  Yb7  1  0.75000000  0.28495200  0.00105100  1
  Ta  Ta8  1  0.25000000  0.24716200  0.68664300  1
  Th  Th9  1  0.25000000  0.25283800  0.18664300  1
  Ag  Ag10  1  0.75000000  0.75283801  0.31335700  1
  Nd  Nd11  1  0.75000000  0.74716201  0.81335700  1
