# generated using pymatgen
data_GdAlHeKAcLaTbPuScBeTeRh2BrNNe
_symmetry_space_group_name_H-M   'P 1'
_cell_length_a   6.55376196
_cell_length_b   6.55376196
_cell_length_c   6.83666992
_cell_angle_alpha   90.00000000
_cell_angle_beta   90.00000000
_cell_angle_gamma   90.00000000
_symmetry_Int_Tables_number   1
_chemical_formula_structural   GdAlHeKAcLaTbPuScBeTeRh2BrNNe
_chemical_formula_sum
'Gd1 Al1 He1 K1 Tb1 La1 Ac1 Pu1 Sc1 Be1 Te1 Rh2 Br1 N1 Ne1'
_cell_volume   293.64725055
_cell_formula_units_Z   1
loop_
 _symmetry_equiv_pos_site_id
 _symmetry_equiv_pos_as_xyz
  1  'x, y, z'
loop_
 _atom_site_type_symbol
 _atom_site_label
 _atom_site_symmetry_multiplicity
 _atom_site_fract_x
 _atom_site_fract_y
 _atom_site_fract_z
 _atom_site_occupancy
  Gd  Gd0  1  0.65461500  0.34538500  0.73511101  1
  Al  Al1  1  0.65461500  0.34538500  0.26488900  1
  He  He2  1  0.84538501  0.84538501  0.76488901  1
  Be  Be3  1  0.15461500  0.15461500  0.76488901  1
  N  N4  1  0.00000000  0.50000000  -0.00000000  1
  K  K5  1  0.50000000  0.00000000  0.50000001  1
  Tb  Tb6  1  0.84538501  0.84538501  0.23511100  1
  Te  Te7  1  0.34538500  0.65461500  0.73511101  1
  Rh  Rh8  1  0.15461500  0.15461500  0.23511100  1
  La  La9  1  0.50000000  0.00000000  -0.00000000  1
  Br  Br10  1  0.34538500  0.65461500  0.26488900  1
  Ac  Ac11  1  0.00000000  0.50000000  0.50000001  1
  Pu  Pu12  1  0.83969001  0.16031000  -0.00000000  1
  Rh  Rh13  1  0.66031000  0.66031000  0.50000001  1
  Sc  Sc14  1  0.16031000  0.83969001  -0.00000000  1
  Ne  Ne15  1  0.33969000  0.33969000  0.50000001  1
