# generated using pymatgen
data_CsAcCeHfNpScTaCrFeTcNiAgHgAsAuIHeO
_symmetry_space_group_name_H-M   'P 1'
_cell_length_a   7.41747379
_cell_length_b   7.97121906
_cell_length_c   7.41747379
_cell_angle_alpha   62.27256393
_cell_angle_beta   90.00000000
_cell_angle_gamma   117.72743988
_symmetry_Int_Tables_number   1
_chemical_formula_structural   CsAcCeHfNpScTaCrFeTcNiAgHgAsAuIHeO
_chemical_formula_sum
'Cs1 Ac1 Ce1 Hf1 Np1 Sc1 Ta1 Cr1 Fe1 Tc1 Ni1 Ag1 Hg1 As1 Au1 I1 He1 O1'
_cell_volume   330.25501474
_cell_formula_units_Z   1
loop_
 _symmetry_equiv_pos_site_id
 _symmetry_equiv_pos_as_xyz
  1  'x, y, z'
loop_
 _atom_site_type_symbol
 _atom_site_label
 _atom_site_symmetry_multiplicity
 _atom_site_fract_x
 _atom_site_fract_y
 _atom_site_fract_z
 _atom_site_occupancy
  Au  Au0  1  0.25000003  0.50000000  0.75000003  1
  I  I1  1  0.75000005  0.50000000  0.25000001  1
  Ac  Ac2  1  0.18140305  0.99999900  0.68140403  1
  As  As3  1  0.81859702  0.00000100  0.31859601  1
  Ag  Ag4  1  0.68140302  0.00000000  0.81859702  1
  Cs  Cs5  1  0.31859701  0.00000000  0.18140301  1
  Hf  Hf6  1  0.75000005  0.50000000  0.75000003  1
  Np  Np7  1  0.25000003  0.50000000  0.25000001  1
  Sc  Sc8  1  0.79549704  0.31432300  0.98117403  1
  Ce  Ce9  1  0.20450304  0.68567700  0.01882601  1
  Fe  Fe10  1  0.51882603  0.31432300  0.70450302  1
  Hg  Hg11  1  0.29549702  0.31432300  0.20450301  1
  Ta  Ta12  1  0.98117406  0.68567700  0.51882602  1
  He  He13  1  0.48117405  0.68567700  0.29549702  1
  O  O14  1  0.70450305  0.68567700  0.79549703  1
  Ni  Ni15  1  0.01882602  0.31432300  0.48117402  1
  Tc  Tc16  1  0.00000000  0.00000000  0.00000000  1
  Cr  Cr17  1  0.50000006  1.00000000  0.50000003  1
