# generated using pymatgen
data_ReAsNHeZrSnHgMoI
_symmetry_space_group_name_H-M   'P 1'
_cell_length_a   4.22154522
_cell_length_b   4.22154522
_cell_length_c   4.60483408
_cell_angle_alpha   90.00000000
_cell_angle_beta   90.00000000
_cell_angle_gamma   90.00000000
_symmetry_Int_Tables_number   1
_chemical_formula_structural   ReAsNHeZrSnHgMoI
_chemical_formula_sum   'Re1 As1 N1 He1 Zr1 Sn1 Hg1 Mo1 I1'
_cell_volume   82.06479286
_cell_formula_units_Z   1
loop_
 _symmetry_equiv_pos_site_id
 _symmetry_equiv_pos_as_xyz
  1  'x, y, z'
loop_
 _atom_site_type_symbol
 _atom_site_label
 _atom_site_symmetry_multiplicity
 _atom_site_fract_x
 _atom_site_fract_y
 _atom_site_fract_z
 _atom_site_occupancy
  As  As0  1  0.74356896  0.25643099  0.25414500  1
  N  N1  1  0.25643099  0.74356896  0.25414500  1
  He  He2  1  0.25643099  0.25643099  0.74585499  1
  Sn  Sn3  1  0.74356896  0.74356896  0.74585499  1
  Mo  Mo4  1  0.49999997  0.00000000  -0.00000000  1
  I  I5  1  0.49999997  0.00000000  0.49999999  1
  Re  Re6  1  -0.00000000  0.49999997  -0.00000000  1
  Zr  Zr7  1  -0.00000000  0.49999997  0.49999999  1
  Hg  Hg8  1  0.00000000  0.00000000  0.00000000  1
