# generated using pymatgen
data_NaDyMgNpBeTcSbAsPbBr
_symmetry_space_group_name_H-M   'P 1'
_cell_length_a   5.54432011
_cell_length_b   5.69065142
_cell_length_c   5.69065142
_cell_angle_alpha   61.53452301
_cell_angle_beta   60.84703827
_cell_angle_gamma   60.84703827
_symmetry_Int_Tables_number   1
_chemical_formula_structural   NaDyMgNpBeTcSbAsPbBr
_chemical_formula_sum   'Na1 Dy1 Mg1 Np1 Be1 Tc1 Sb1 As1 Pb1 Br1'
_cell_volume   130.02105082
_cell_formula_units_Z   1
loop_
 _symmetry_equiv_pos_site_id
 _symmetry_equiv_pos_as_xyz
  1  'x, y, z'
loop_
 _atom_site_type_symbol
 _atom_site_label
 _atom_site_symmetry_multiplicity
 _atom_site_fract_x
 _atom_site_fract_y
 _atom_site_fract_z
 _atom_site_occupancy
  Mg  Mg0  1  0.28140399  0.21859600  0.21859599  1
  Dy  Dy1  1  0.71859598  0.78140401  0.78140398  1
  Np  Np2  1  0.49999999  0.50000001  0.49999998  1
  Tc  Tc3  1  0.00000000  0.00000000  0.00000000  1
  Sb  Sb4  1  0.76428898  0.78207101  0.21792997  1
  Br  Br5  1  0.23570998  0.78207001  0.21792999  1
  Pb  Pb6  1  0.76428999  0.21793000  0.78206998  1
  Be  Be7  1  0.23571099  0.21792900  0.78206999  1
  Na  Na8  1  0.77377799  0.22622200  0.22622197  1
  As  As9  1  0.22622198  0.77377801  0.77377799  1
