# generated using pymatgen
data_SrLiYbVGaSiGe
_symmetry_space_group_name_H-M   'P 1'
_cell_length_a   5.51326704
_cell_length_b   5.51326704
_cell_length_c   5.51326704
_cell_angle_alpha   90.00000000
_cell_angle_beta   90.00000000
_cell_angle_gamma   90.00000000
_symmetry_Int_Tables_number   1
_chemical_formula_structural   SrLiYbVGaSiGe
_chemical_formula_sum   'Sr1 Li1 Yb1 V1 Ga1 Si1 Ge1'
_cell_volume   167.58189048
_cell_formula_units_Z   1
loop_
 _symmetry_equiv_pos_site_id
 _symmetry_equiv_pos_as_xyz
  1  'x, y, z'
loop_
 _atom_site_type_symbol
 _atom_site_label
 _atom_site_symmetry_multiplicity
 _atom_site_fract_x
 _atom_site_fract_y
 _atom_site_fract_z
 _atom_site_occupancy
  Ga  Ga0  1  0.00000000  0.00000000  0.50000000  1
  Si  Si1  1  0.50000000  0.00000000  0.00000000  1
  Ge  Ge2  1  0.00000000  0.50000000  0.00000000  1
  V  V3  1  0.71799999  0.71799999  0.71799999  1
  Sr  Sr4  1  0.28200000  0.28200000  0.71799999  1
  Li  Li5  1  0.28200000  0.71799999  0.28200000  1
  Yb  Yb6  1  0.71799999  0.28200000  0.28200000  1
