# generated using pymatgen
data_CsKLiLaTbDyErTmLu2TaMnTlReIrPdRuRhIN
_symmetry_space_group_name_H-M   'P 1'
_cell_length_a   5.87089300
_cell_length_b   6.09308147
_cell_length_c   8.44309711
_cell_angle_alpha   89.85050964
_cell_angle_beta   90.56569672
_cell_angle_gamma   89.92924500
_symmetry_Int_Tables_number   1
_chemical_formula_structural   CsKLiLaTbDyErTmLu2TaMnTlReIrPdRuRhIN
_chemical_formula_sum
;
Cs1 K1 Li1 Tb1 La1 Dy1 Er1 Tm1 Lu2 Ta1 Mn1 Tl1 Re1 Pd1 Ir1 Ru1 Rh1 I1
N1
;
_cell_volume   302.00904070
_cell_formula_units_Z   1
loop_
 _symmetry_equiv_pos_site_id
 _symmetry_equiv_pos_as_xyz
  1  'x, y, z'
loop_
 _atom_site_type_symbol
 _atom_site_label
 _atom_site_symmetry_multiplicity
 _atom_site_fract_x
 _atom_site_fract_y
 _atom_site_fract_z
 _atom_site_occupancy
  Tm  Tm0  1  0.98155342  0.06098998  0.25168224  1
  Tl  Tl1  1  0.01844656  0.93901002  0.74831781  1
  Rh  Rh2  1  -0.00000003  0.50000000  0.00000001  1
  Li  Li3  1  0.50000002  0.00000000  0.50000001  1
  K  K4  1  0.51905144  0.56291892  0.24800289  1
  Tb  Tb5  1  0.48094854  0.43708108  0.75199716  1
  Dy  Dy6  1  0.50000002  0.00000000  0.00000000  1
  Er  Er7  1  -0.00000003  0.50000000  0.50000002  1
  I  I8  1  0.21674609  0.18790633  0.94513417  1
  Lu  Lu9  1  0.28583084  0.68486639  0.55612126  1
  Cs  Cs10  1  0.78325389  0.81209367  0.05486587  1
  Lu  Lu11  1  0.71416914  0.31513361  0.44387879  1
  Pd  Pd12  1  0.32104686  0.71359560  0.94482225  1
  Mn  Mn13  1  0.18182411  0.21679579  0.55464557  1
  La  La14  1  0.67895312  0.28640440  0.05517779  1
  Ir  Ir15  1  0.81817586  0.78320421  0.44535448  1
  Ru  Ru16  1  0.39865152  0.97075928  0.23305800  1
  Re  Re17  1  0.10749700  0.47441466  0.26702171  1
  Ta  Ta18  1  0.60134846  0.02924072  0.76694205  1
  N  N19  1  0.89250298  0.52558534  0.73297834  1
