# generated using pymatgen
data_PrYLuUFeTcPbKr2
_symmetry_space_group_name_H-M   'P 1'
_cell_length_a   3.76416397
_cell_length_b   6.63236189
_cell_length_c   6.63236189
_cell_angle_alpha   120.00000000
_cell_angle_beta   90.00000000
_cell_angle_gamma   90.00000000
_symmetry_Int_Tables_number   1
_chemical_formula_structural   PrYLuUFeTcPbKr2
_chemical_formula_sum   'Pr1 Y1 Lu1 U1 Fe1 Tc1 Pb1 Kr2'
_cell_volume   143.39552401
_cell_formula_units_Z   1
loop_
 _symmetry_equiv_pos_site_id
 _symmetry_equiv_pos_as_xyz
  1  'x, y, z'
loop_
 _atom_site_type_symbol
 _atom_site_label
 _atom_site_symmetry_multiplicity
 _atom_site_fract_x
 _atom_site_fract_y
 _atom_site_fract_z
 _atom_site_occupancy
  Kr  Kr0  1  0.50000000  0.33333334  0.66666668  1
  Pb  Pb1  1  0.50000000  0.66666668  0.33333334  1
  U  U2  1  0.00000000  0.00000000  0.00000000  1
  Lu  Lu3  1  0.50000000  0.77229801  0.00000000  1
  Pr  Pr4  1  0.50000000  0.22770200  0.22770200  1
  Tc  Tc5  1  0.50000000  0.00000000  0.77229802  1
  Fe  Fe6  1  -0.00000000  0.33749301  0.00000000  1
  Kr  Kr7  1  -0.00000000  0.66250701  0.66250701  1
  Y  Y8  1  -0.00000000  0.00000000  0.33749301  1
