# generated using pymatgen
data_YbSm2ErThPaCrCuTeXe
_symmetry_space_group_name_H-M   'P 1'
_cell_length_a   6.03307629
_cell_length_b   6.03307629
_cell_length_c   6.03307629
_cell_angle_alpha   60.00000000
_cell_angle_beta   60.00000000
_cell_angle_gamma   60.00000000
_symmetry_Int_Tables_number   1
_chemical_formula_structural   YbSm2ErThPaCrCuTeXe
_chemical_formula_sum   'Yb1 Sm2 Er1 Th1 Pa1 Cr1 Cu1 Te1 Xe1'
_cell_volume   155.27496956
_cell_formula_units_Z   1
loop_
 _symmetry_equiv_pos_site_id
 _symmetry_equiv_pos_as_xyz
  1  'x, y, z'
loop_
 _atom_site_type_symbol
 _atom_site_label
 _atom_site_symmetry_multiplicity
 _atom_site_fract_x
 _atom_site_fract_y
 _atom_site_fract_z
 _atom_site_occupancy
  Er  Er0  1  0.24999999  0.24999999  0.24999999  1
  Yb  Yb1  1  0.74999997  0.74999997  0.74999997  1
  Te  Te2  1  0.00000000  0.00000000  0.00000000  1
  Sm  Sm3  1  0.49999998  0.49999998  0.49999998  1
  Xe  Xe4  1  0.21498899  0.78501097  0.21498899  1
  Sm  Sm5  1  0.21498899  0.21498899  0.78501097  1
  Cu  Cu6  1  0.78501097  0.21498899  0.78501097  1
  Cr  Cr7  1  0.21498899  0.78501097  0.78501097  1
  Th  Th8  1  0.78501097  0.21498899  0.21498899  1
  Pa  Pa9  1  0.78501097  0.78501097  0.21498899  1
