# generated using pymatgen
data_GdErHfThTlCd2Re2NiHgBOsPbCKrNF
_symmetry_space_group_name_H-M   'P 1'
_cell_length_a   4.97794724
_cell_length_b   4.97794724
_cell_length_c   10.05393791
_cell_angle_alpha   90.00000000
_cell_angle_beta   90.00000000
_cell_angle_gamma   90.00000000
_symmetry_Int_Tables_number   1
_chemical_formula_structural   GdErHfThTlCd2Re2NiHgBOsPbCKrNF
_chemical_formula_sum
'Gd1 Er1 Hf1 Th1 Tl1 Cd2 Re2 Ni1 Hg1 B1 Os1 Pb1 C1 Kr1 N1 F1'
_cell_volume   249.13616599
_cell_formula_units_Z   1
loop_
 _symmetry_equiv_pos_site_id
 _symmetry_equiv_pos_as_xyz
  1  'x, y, z'
loop_
 _atom_site_type_symbol
 _atom_site_label
 _atom_site_symmetry_multiplicity
 _atom_site_fract_x
 _atom_site_fract_y
 _atom_site_fract_z
 _atom_site_occupancy
  Cd  Cd0  1  0.49999998  0.49999998  0.33451100  1
  C  C1  1  0.49999998  0.49999998  0.66548901  1
  Re  Re2  1  0.00000000  0.00000000  0.16548900  1
  Gd  Gd3  1  0.00000000  0.00000000  0.83451101  1
  Er  Er4  1  0.49999998  0.49999998  0.00000000  1
  Cd  Cd5  1  0.00000000  0.00000000  0.50000000  1
  Hg  Hg6  1  0.68351897  0.68351897  0.14651100  1
  Pb  Pb7  1  0.68351897  0.68351897  0.85348901  1
  Kr  Kr8  1  0.72130097  0.72130097  0.50000000  1
  Hf  Hf9  1  0.77869896  0.22130099  0.00000000  1
  Tl  Tl10  1  0.81648096  0.18351899  0.35348900  1
  N  N11  1  0.81648096  0.18351899  0.64651101  1
  Re  Re12  1  0.18351899  0.81648096  0.35348900  1
  Os  Os13  1  0.18351899  0.81648096  0.64651101  1
  B  B14  1  0.22130099  0.77869896  0.00000000  1
  Ni  Ni15  1  0.27869899  0.27869899  0.50000000  1
  Th  Th16  1  0.31648099  0.31648099  0.14651100  1
  F  F17  1  0.31648099  0.31648099  0.85348901  1
