# generated using pymatgen
data_LaTmNpTiTcS
_symmetry_space_group_name_H-M   'P 1'
_cell_length_a   3.71003175
_cell_length_b   3.71003175
_cell_length_c   12.23417377
_cell_angle_alpha   81.27883911
_cell_angle_beta   81.27883911
_cell_angle_gamma   60.00000381
_symmetry_Int_Tables_number   1
_chemical_formula_structural   LaTmNpTiTcS
_chemical_formula_sum   'La1 Tm1 Np1 Ti1 Tc1 S1'
_cell_volume   143.58199499
_cell_formula_units_Z   1
loop_
 _symmetry_equiv_pos_site_id
 _symmetry_equiv_pos_as_xyz
  1  'x, y, z'
loop_
 _atom_site_type_symbol
 _atom_site_label
 _atom_site_symmetry_multiplicity
 _atom_site_fract_x
 _atom_site_fract_y
 _atom_site_fract_z
 _atom_site_occupancy
  S  S0  1  0.79838205  0.79838201  0.60485398  1
  Ti  Ti1  1  0.20161801  0.20161800  0.39514600  1
  Tm  Tm2  1  0.40410702  0.40410701  0.78767900  1
  Tc  Tc3  1  0.59589304  0.59589301  0.21232098  1
  Np  Np4  1  0.14255601  0.14255600  0.57233201  1
  La  La5  1  0.85744405  0.85744402  0.42766798  1
