# generated using pymatgen
data_AcSmErTaCrCuTcIrPtS
_symmetry_space_group_name_H-M   'P 1'
_cell_length_a   7.91589928
_cell_length_b   7.91589928
_cell_length_c   7.91589928
_cell_angle_alpha   60.00000000
_cell_angle_beta   60.00000000
_cell_angle_gamma   60.00000000
_symmetry_Int_Tables_number   1
_chemical_formula_structural   AcSmErTaCrCuTcIrPtS
_chemical_formula_sum   'Ac1 Sm1 Er1 Ta1 Cr1 Cu1 Tc1 Ir1 Pt1 S1'
_cell_volume   350.74039017
_cell_formula_units_Z   1
loop_
 _symmetry_equiv_pos_site_id
 _symmetry_equiv_pos_as_xyz
  1  'x, y, z'
loop_
 _atom_site_type_symbol
 _atom_site_label
 _atom_site_symmetry_multiplicity
 _atom_site_fract_x
 _atom_site_fract_y
 _atom_site_fract_z
 _atom_site_occupancy
  S  S0  1  0.25000000  0.25000000  0.25000000  1
  Ac  Ac1  1  0.74999999  0.74999999  0.74999999  1
  Er  Er2  1  0.50000000  0.50000000  0.50000000  1
  Cu  Cu3  1  0.00000000  0.00000000  0.00000000  1
  Ir  Ir4  1  0.24119200  0.75880799  0.24119200  1
  Sm  Sm5  1  0.24119200  0.24119200  0.75880799  1
  Ta  Ta6  1  0.75880799  0.24119200  0.75880799  1
  Pt  Pt7  1  0.24119200  0.75880799  0.75880799  1
  Cr  Cr8  1  0.75880799  0.24119200  0.24119200  1
  Tc  Tc9  1  0.75880799  0.75880799  0.24119200  1
