# generated using pymatgen
data_CsRbNaSrCaCePmLuPuThNpUPaTiNbGaSbSeIO
_symmetry_space_group_name_H-M   'P 1'
_cell_length_a   5.54631090
_cell_length_b   5.59421301
_cell_length_c   7.85052299
_cell_angle_alpha   90.00000000
_cell_angle_beta   90.00000000
_cell_angle_gamma   90.00000000
_symmetry_Int_Tables_number   1
_chemical_formula_structural   CsRbNaSrCaCePmLuPuThNpUPaTiNbGaSbSeIO
_chemical_formula_sum
;
Cs1 Rb1 Na1 Sr1 Ca1 Ce1 Pm1 Lu1 Pu1 Th1 Np1 U1 Pa1 Ti1 Nb1 Ga1 Sb1 Se1
I1 O1
;
_cell_volume   243.58009718
_cell_formula_units_Z   1
loop_
 _symmetry_equiv_pos_site_id
 _symmetry_equiv_pos_as_xyz
  1  'x, y, z'
loop_
 _atom_site_type_symbol
 _atom_site_label
 _atom_site_symmetry_multiplicity
 _atom_site_fract_x
 _atom_site_fract_y
 _atom_site_fract_z
 _atom_site_occupancy
  Pm  Pm0  1  0.49515801  0.50807800  0.75000000  1
  Th  Th1  1  0.99515802  0.99192200  0.75000000  1
  Ti  Ti2  1  0.00484200  0.00807800  0.25000000  1
  Rb  Rb3  1  0.50484201  0.49192200  0.25000000  1
  Ca  Ca4  1  -0.00000000  0.50000000  0.50000000  1
  U  U5  1  0.50000001  0.00000000  0.00000000  1
  Se  Se6  1  0.50000001  0.00000000  0.50000000  1
  Ce  Ce7  1  -0.00000000  0.50000000  -0.00000000  1
  Lu  Lu8  1  0.74443501  0.74577200  0.54445800  1
  Sr  Sr9  1  0.49912001  0.91873000  0.25000000  1
  Pa  Pa10  1  0.00088000  0.41873000  0.75000000  1
  Pu  Pu11  1  0.25556500  0.25422800  0.45554200  1
  Nb  Nb12  1  0.50088001  0.08127000  0.75000000  1
  O  O13  1  0.24443500  0.75422800  0.95554200  1
  Np  Np14  1  0.24443500  0.75422800  0.54445800  1
  Sb  Sb15  1  0.75556501  0.24577200  0.45554200  1
  Na  Na16  1  0.99912002  0.58127000  0.25000000  1
  I  I17  1  0.74443501  0.74577200  0.95554200  1
  Cs  Cs18  1  0.25556500  0.25422800  0.04445800  1
  Ga  Ga19  1  0.75556501  0.24577200  0.04445800  1
