# generated using pymatgen
data_AcCeNdDyLu2MgNbFeTcNiHBrKr2Cl
_symmetry_space_group_name_H-M   'P 1'
_cell_length_a   4.90985584
_cell_length_b   4.90985584
_cell_length_c   5.35010481
_cell_angle_alpha   90.00000000
_cell_angle_beta   90.00000000
_cell_angle_gamma   90.00000000
_symmetry_Int_Tables_number   1
_chemical_formula_structural   AcCeNdDyLu2MgNbFeTcNiHBrKr2Cl
_chemical_formula_sum
'Ac1 Ce1 Nd1 Dy1 Lu2 Mg1 Nb1 Fe1 Tc1 Ni1 H1 Br1 Kr2 Cl1'
_cell_volume   128.97328811
_cell_formula_units_Z   1
loop_
 _symmetry_equiv_pos_site_id
 _symmetry_equiv_pos_as_xyz
  1  'x, y, z'
loop_
 _atom_site_type_symbol
 _atom_site_label
 _atom_site_symmetry_multiplicity
 _atom_site_fract_x
 _atom_site_fract_y
 _atom_site_fract_z
 _atom_site_occupancy
  Br  Br0  1  0.00000000  0.00000000  0.50192502  1
  Ce  Ce1  1  0.00000000  0.00000000  0.00192500  1
  Tc  Tc2  1  0.50000002  0.50000002  0.50870102  1
  Cl  Cl3  1  0.50000002  0.50000002  0.00870100  1
  Mg  Mg4  1  0.50000002  0.00000000  0.47118102  1
  Nd  Nd5  1  0.00000000  0.50000002  0.97118103  1
  Dy  Dy6  1  0.50000002  0.00000000  0.04580300  1
  Kr  Kr7  1  0.00000000  0.50000002  0.54580302  1
  Ni  Ni8  1  0.22800001  0.46064501  0.25666101  1
  Kr  Kr9  1  0.77200002  0.53935502  0.25666101  1
  H  H10  1  0.46064501  0.77200002  0.75666103  1
  Lu  Lu11  1  0.53935502  0.22800001  0.75666103  1
  Fe  Fe12  1  0.25018801  0.74457902  0.75763503  1
  Nb  Nb13  1  0.74981202  0.25542101  0.75763503  1
  Ac  Ac14  1  0.74457902  0.74981202  0.25763501  1
  Lu  Lu15  1  0.25542101  0.25018801  0.25763501  1
