# generated using pymatgen
data_LiNdSm2YHfMgCr2FeNiSnBMoRu2O
_symmetry_space_group_name_H-M   'P 1'
_cell_length_a   6.72294092
_cell_length_b   9.67953396
_cell_length_c   9.67953396
_cell_angle_alpha   99.97559357
_cell_angle_beta   108.53565979
_cell_angle_gamma   108.53565979
_symmetry_Int_Tables_number   1
_chemical_formula_structural   LiNdSm2YHfMgCr2FeNiSnBMoRu2O
_chemical_formula_sum
'Li1 Nd1 Sm2 Y1 Hf1 Mg1 Cr2 Fe1 Ni1 Sn1 B1 Mo1 Ru2 O1'
_cell_volume   539.23784913
_cell_formula_units_Z   1
loop_
 _symmetry_equiv_pos_site_id
 _symmetry_equiv_pos_as_xyz
  1  'x, y, z'
loop_
 _atom_site_type_symbol
 _atom_site_label
 _atom_site_symmetry_multiplicity
 _atom_site_fract_x
 _atom_site_fract_y
 _atom_site_fract_z
 _atom_site_occupancy
  Nd  Nd0  1  0.00000000  0.00000000  0.00000000  1
  Cr  Cr1  1  0.68597302  0.01535600  0.35225005  1
  Y  Y2  1  0.31402719  0.98464409  0.64775012  1
  Sm  Sm3  1  0.31402713  0.64775006  0.98464411  1
  Ru  Ru4  1  0.68597308  0.35225003  0.01535606  1
  O  O5  1  0.00000009  0.50000005  0.50000006  1
  Mo  Mo6  1  0.38885313  0.64909406  0.64909410  1
  Ni  Ni7  1  0.61114708  0.35090603  0.35090607  1
  Sn  Sn8  1  0.69404004  0.13936801  0.70201707  1
  Li  Li9  1  0.30596017  0.86063208  0.29798310  1
  Mg  Mg10  1  0.30596006  0.29798303  0.86063207  1
  Fe  Fe11  1  0.69404015  0.70201706  0.13936810  1
  Cr  Cr12  1  0.50000001  0.00000000  0.00000002  1
  Ru  Ru13  1  0.92969818  0.83205808  0.58245514  1
  Sm  Sm14  1  0.07030203  0.16794202  0.41754503  1
  B  B15  1  0.07030208  0.41754504  0.16794205  1
  Hf  Hf16  1  0.92969813  0.58245505  0.83205813  1
