# generated using pymatgen
data_LiCaAcCeNd2EuGdHfMgTaCdGaCuSiGeMoAsPdSe
_symmetry_space_group_name_H-M   'P 1'
_cell_length_a   5.82666636
_cell_length_b   5.97165585
_cell_length_c   8.33813190
_cell_angle_alpha   90.00000000
_cell_angle_beta   90.38387299
_cell_angle_gamma   90.00000000
_symmetry_Int_Tables_number   1
_chemical_formula_structural
LiCaAcCeNd2EuGdHfMgTaCdGaCuSiGeMoAsPdSe
_chemical_formula_sum
;
Li1 Ca1 Ac1 Ce1 Nd2 Eu1 Gd1 Hf1 Mg1 Ta1 Cd1 Ga1 Cu1 Si1 Ge1 Mo1 As1
Pd1 Se1
;
_cell_volume   290.11750571
_cell_formula_units_Z   1
loop_
 _symmetry_equiv_pos_site_id
 _symmetry_equiv_pos_as_xyz
  1  'x, y, z'
loop_
 _atom_site_type_symbol
 _atom_site_label
 _atom_site_symmetry_multiplicity
 _atom_site_fract_x
 _atom_site_fract_y
 _atom_site_fract_z
 _atom_site_occupancy
  Cu  Cu0  1  0.48837998  0.54212301  0.25187701  1
  Mo  Mo1  1  0.98837997  0.95787702  0.75187703  1
  Li  Li2  1  0.00098600  0.50522801  0.50020902  1
  Nd  Nd3  1  0.50098598  0.99477203  0.00020900  1
  Cd  Cd4  1  0.51650598  0.44793901  0.75060603  1
  Mg  Mg5  1  0.01650600  0.05206100  0.25060601  1
  Nd  Nd6  1  0.50021098  0.99978003  0.50008902  1
  Ca  Ca7  1  0.00021100  0.50022001  0.00008900  1
  Eu  Eu8  1  0.61415798  0.96904703  0.27112701  1
  Gd  Gd9  1  0.11415800  0.53095301  0.77112703  1
  Se  Se10  1  0.40841799  0.04222200  0.73126703  1
  Pd  Pd11  1  0.90841797  0.45777801  0.23126700  1
  Ta  Ta12  1  0.17362099  0.78325502  0.05892200  1
  Ac  Ac13  1  0.67362098  0.71674502  0.55892202  1
  Hf  Hf14  1  0.80664697  0.22915601  0.94264504  1
  Ga  Ga15  1  0.30664699  0.27084401  0.44264502  1
  As  As16  1  0.22024899  0.81719102  0.44375902  1
  Ce  Ce17  1  0.72024897  0.68280902  0.94375904  1
  Ge  Ge18  1  0.77082297  0.19861001  0.54949902  1
  Si  Si19  1  0.27082299  0.30139001  0.04949900  1
