# generated using pymatgen
data_CsLaPmDyHfMgAlReAgBiTePt2SXe
_symmetry_space_group_name_H-M   'P 1'
_cell_length_a   5.57022285
_cell_length_b   5.89859724
_cell_length_c   7.38701820
_cell_angle_alpha   73.61257935
_cell_angle_beta   72.11225891
_cell_angle_gamma   73.19260406
_symmetry_Int_Tables_number   1
_chemical_formula_structural   CsLaPmDyHfMgAlReAgBiTePt2SXe
_chemical_formula_sum
'Cs1 La1 Pm1 Dy1 Hf1 Mg1 Al1 Re1 Ag1 Bi1 Te1 Pt2 S1 Xe1'
_cell_volume   216.07645804
_cell_formula_units_Z   1
loop_
 _symmetry_equiv_pos_site_id
 _symmetry_equiv_pos_as_xyz
  1  'x, y, z'
loop_
 _atom_site_type_symbol
 _atom_site_label
 _atom_site_symmetry_multiplicity
 _atom_site_fract_x
 _atom_site_fract_y
 _atom_site_fract_z
 _atom_site_occupancy
  Re  Re0  1  0.99602502  0.00278100  0.99748003  1
  Ag  Ag1  1  0.53970301  0.44451000  0.74996500  1
  Pm  Pm2  1  0.44681701  0.56279501  0.25552698  1
  Xe  Xe3  1  0.86132602  0.19673500  0.44494001  1
  Dy  Dy4  1  0.98976403  0.65578001  0.61078199  1
  Mg  Mg5  1  0.89657002  0.08118900  0.76109302  1
  S  S6  1  0.09022501  0.92571401  0.23644196  1
  Al  Al7  1  0.68802302  0.30141100  0.46672400  1
  Bi  Bi8  1  0.32180301  0.64899001  0.55854598  1
  La  La9  1  0.29963301  0.68808601  0.95708699  1
  Hf  Hf10  1  0.68962002  0.31734800  0.03640499  1
  Pt  Pt11  1  0.68830502  0.76654601  0.14502397  1
  Cs  Cs12  1  0.29692701  0.23134800  0.86321201  1
  Pt  Pt13  1  0.80207102  0.64800001  0.64806299  1
  Te  Te14  1  0.21426201  0.37412800  0.34603699  1
