# generated using pymatgen
data_RbBa3NaTb2NdGdDyThCrFe2HgAsIrRhAuN
_symmetry_space_group_name_H-M   'P 1'
_cell_length_a   6.78859615
_cell_length_b   7.67932081
_cell_length_c   9.49580288
_cell_angle_alpha   90.00000000
_cell_angle_beta   91.89713287
_cell_angle_gamma   90.00000000
_symmetry_Int_Tables_number   1
_chemical_formula_structural   RbBa3NaTb2NdGdDyThCrFe2HgAsIrRhAuN
_chemical_formula_sum
'Rb1 Ba3 Na1 Tb2 Nd1 Gd1 Dy1 Th1 Cr1 Fe2 Hg1 As1 Ir1 Rh1 Au1 N1'
_cell_volume   494.76202915
_cell_formula_units_Z   1
loop_
 _symmetry_equiv_pos_site_id
 _symmetry_equiv_pos_as_xyz
  1  'x, y, z'
loop_
 _atom_site_type_symbol
 _atom_site_label
 _atom_site_symmetry_multiplicity
 _atom_site_fract_x
 _atom_site_fract_y
 _atom_site_fract_z
 _atom_site_occupancy
  Tb  Tb0  1  0.03813200  0.38591601  0.74978600  1
  Ir  Ir1  1  0.46186799  0.88591602  0.75021401  1
  Cr  Cr2  1  0.96186798  0.61408402  0.25021401  1
  Ba  Ba3  1  0.53813199  0.11408400  0.24978601  1
  Fe  Fe4  1  0.56289499  0.39309101  0.93432101  1
  Dy  Dy5  1  0.93710498  0.89309102  0.56567901  1
  As  As6  1  0.43710499  0.60690901  0.06567900  1
  Th  Th7  1  0.06289500  0.10690900  0.43432100  1
  Rh  Rh8  1  0.85318898  0.29716301  0.44057901  1
  Na  Na9  1  0.64681099  0.79716302  0.05942101  1
  N  N10  1  0.14681100  0.70283702  0.55942100  1
  Au  Au11  1  0.35318899  0.20283700  0.94057901  1
  Tb  Tb12  1  0.10214900  0.00385700  0.24104500  1
  Fe  Fe13  1  0.39785099  0.50385701  0.25895500  1
  Rb  Rb14  1  0.89785098  0.99614302  0.75895501  1
  Ba  Ba15  1  0.60214899  0.49614301  0.74104501  1
  Ba  Ba16  1  0.31440199  0.18804300  0.53747600  1
  Nd  Nd17  1  0.18559800  0.68804302  0.96252400  1
  Gd  Gd18  1  0.68559798  0.81195702  0.46252401  1
  Hg  Hg19  1  0.81440198  0.31195701  0.03747601  1
