# generated using pymatgen
data_YbSmNiAgHgAsAuSeBrCl
_symmetry_space_group_name_H-M   'P 1'
_cell_length_a   6.26915407
_cell_length_b   7.41346407
_cell_length_c   7.41346407
_cell_angle_alpha   120.00000000
_cell_angle_beta   90.00000000
_cell_angle_gamma   90.00000000
_symmetry_Int_Tables_number   1
_chemical_formula_structural   YbSmNiAgHgAsAuSeBrCl
_chemical_formula_sum   'Yb1 Sm1 Ni1 Ag1 Hg1 As1 Au1 Se1 Br1 Cl1'
_cell_volume   298.38840913
_cell_formula_units_Z   1
loop_
 _symmetry_equiv_pos_site_id
 _symmetry_equiv_pos_as_xyz
  1  'x, y, z'
loop_
 _atom_site_type_symbol
 _atom_site_label
 _atom_site_symmetry_multiplicity
 _atom_site_fract_x
 _atom_site_fract_y
 _atom_site_fract_z
 _atom_site_occupancy
  Br  Br0  1  0.25000000  0.66666666  0.33333332  1
  Ni  Ni1  1  0.74999999  0.33333333  0.66666664  1
  Au  Au2  1  0.00000000  0.00000000  0.00000000  1
  Hg  Hg3  1  0.49999999  0.00000000  -0.00000000  1
  Sm  Sm4  1  0.25000000  0.15405600  0.84594498  1
  Se  Se5  1  0.25000000  0.15405600  0.30811199  1
  As  As6  1  0.74999999  0.84594399  0.15405499  1
  Ag  Ag7  1  0.25000000  0.69188899  0.84594497  1
  Yb  Yb8  1  0.74999999  0.30811100  0.15405499  1
  Cl  Cl9  1  0.74999999  0.84594399  0.69188797  1
