# generated using pymatgen
data_NeFeTcSbBrCl
_symmetry_space_group_name_H-M   'P 1'
_cell_length_a   4.63545179
_cell_length_b   4.63545179
_cell_length_c   7.60628319
_cell_angle_alpha   90.00000000
_cell_angle_beta   90.00000000
_cell_angle_gamma   90.00000000
_symmetry_Int_Tables_number   1
_chemical_formula_structural   NeFeTcSbBrCl
_chemical_formula_sum   'Ne1 Fe1 Tc1 Sb1 Br1 Cl1'
_cell_volume   163.43935077
_cell_formula_units_Z   1
loop_
 _symmetry_equiv_pos_site_id
 _symmetry_equiv_pos_as_xyz
  1  'x, y, z'
loop_
 _atom_site_type_symbol
 _atom_site_label
 _atom_site_symmetry_multiplicity
 _atom_site_fract_x
 _atom_site_fract_y
 _atom_site_fract_z
 _atom_site_occupancy
  Ne  Ne0  1  0.00000000  0.50000002  0.33726199  1
  Tc  Tc1  1  0.50000002  0.00000000  0.66273798  1
  Br  Br2  1  0.00000000  0.00000000  0.00000000  1
  Cl  Cl3  1  0.50000002  0.50000002  0.00000000  1
  Fe  Fe4  1  0.50000002  0.00000000  0.18046600  1
  Sb  Sb5  1  0.00000000  0.50000002  0.81953398  1
