# generated using pymatgen
data_RbPrDyLuMgTaTiBeMoC(SXe)2
_symmetry_space_group_name_H-M   'P 1'
_cell_length_a   5.40932703
_cell_length_b   5.73766184
_cell_length_c   5.83722734
_cell_angle_alpha   60.56265259
_cell_angle_beta   87.08248901
_cell_angle_gamma   90.00000000
_symmetry_Int_Tables_number   1
_chemical_formula_structural   RbPrDyLuMgTaTiBeMoC(SXe)2
_chemical_formula_sum
'Rb1 Pr1 Dy1 Lu1 Mg1 Ta1 Ti1 Be1 Mo1 C1 S2 Xe2'
_cell_volume   157.50956898
_cell_formula_units_Z   1
loop_
 _symmetry_equiv_pos_site_id
 _symmetry_equiv_pos_as_xyz
  1  'x, y, z'
loop_
 _atom_site_type_symbol
 _atom_site_label
 _atom_site_symmetry_multiplicity
 _atom_site_fract_x
 _atom_site_fract_y
 _atom_site_fract_z
 _atom_site_occupancy
  Xe  Xe0  1  0.28469900  0.06181600  0.59663900  1
  Ta  Ta1  1  0.78469900  0.34154501  0.59663903  1
  Pr  Pr2  1  0.21530098  0.65845502  0.40336100  1
  S  S3  1  0.71530098  0.93818403  0.40336103  1
  Be  Be4  1  0.24999999  0.35410301  0.00000001  1
  Mg  Mg5  1  0.74999999  0.64589702  0.00000004  1
  C  C6  1  0.38237897  0.99668303  0.28910201  1
  Xe  Xe7  1  0.88237899  0.71421502  0.28910204  1
  Rb  Rb8  1  0.40930599  0.49631501  0.23561702  1
  Mo  Mo9  1  0.90930600  0.26806801  0.23561704  1
  Lu  Lu10  1  0.09069398  0.73193202  0.76438298  1
  Dy  Dy11  1  0.59069399  0.50368501  0.76438301  1
  S  S12  1  0.11762099  0.28578501  0.71089798  1
  Ti  Ti13  1  0.61762101  0.00331700  0.71089801  1
