# generated using pymatgen
data_DyYThNpCd2ReSnGeSbMoOsWBr
_symmetry_space_group_name_H-M   'P 1'
_cell_length_a   5.93514490
_cell_length_b   5.93514490
_cell_length_c   8.60021114
_cell_angle_alpha   90.00000000
_cell_angle_beta   90.00000000
_cell_angle_gamma   90.00000000
_symmetry_Int_Tables_number   1
_chemical_formula_structural   DyYThNpCd2ReSnGeSbMoOsWBr
_chemical_formula_sum
'Y1 Dy1 Th1 Np1 Cd2 Re1 Sn1 Ge1 Sb1 Mo1 Os1 W1 Br1'
_cell_volume   302.95056472
_cell_formula_units_Z   1
loop_
 _symmetry_equiv_pos_site_id
 _symmetry_equiv_pos_as_xyz
  1  'x, y, z'
loop_
 _atom_site_type_symbol
 _atom_site_label
 _atom_site_symmetry_multiplicity
 _atom_site_fract_x
 _atom_site_fract_y
 _atom_site_fract_z
 _atom_site_occupancy
  Mo  Mo0  1  0.00000000  0.50000001  0.25000000  1
  W  W1  1  0.50000001  0.00000000  0.74999999  1
  Np  Np2  1  0.00000000  0.50000001  0.74999999  1
  Re  Re3  1  0.50000001  0.00000000  0.25000000  1
  Br  Br4  1  0.50000001  0.50000001  0.30664799  1
  Os  Os5  1  0.00000000  0.00000000  0.80664799  1
  Cd  Cd6  1  0.50000001  0.50000001  0.69335199  1
  Y  Y7  1  0.00000000  0.00000000  0.19335200  1
  Sn  Sn8  1  0.30126001  0.69874001  0.49999999  1
  Sb  Sb9  1  0.69874001  0.30126001  0.49999999  1
  Th  Th10  1  0.19874000  0.19874000  -0.00000000  1
  Dy  Dy11  1  0.80126001  0.80126001  -0.00000000  1
  Ge  Ge12  1  0.50000001  0.50000001  0.49999999  1
  Cd  Cd13  1  0.00000000  0.00000000  0.00000000  1
