# generated using pymatgen
data_NaLiSmYErTh2ScUAlCdIrSNe2InKr
_symmetry_space_group_name_H-M   'P 1'
_cell_length_a   6.65513229
_cell_length_b   9.65537739
_cell_length_c   9.65537739
_cell_angle_alpha   100.26596069
_cell_angle_beta   108.19609070
_cell_angle_gamma   108.19609070
_symmetry_Int_Tables_number   1
_chemical_formula_structural   NaLiSmYErTh2ScUAlCdIrSNe2InKr
_chemical_formula_sum
'Na1 Li1 Sm1 Y1 Er1 Th2 Sc1 U1 Al1 Cd1 Ir1 S1 Ne2 In1 Kr1'
_cell_volume   533.16004682
_cell_formula_units_Z   1
loop_
 _symmetry_equiv_pos_site_id
 _symmetry_equiv_pos_as_xyz
  1  'x, y, z'
loop_
 _atom_site_type_symbol
 _atom_site_label
 _atom_site_symmetry_multiplicity
 _atom_site_fract_x
 _atom_site_fract_y
 _atom_site_fract_z
 _atom_site_occupancy
  Y  Y0  1  0.00000000  0.00000000  0.00000000  1
  S  S1  1  0.68675200  0.01558700  0.35285700  1
  Ir  Ir2  1  0.31324797  0.98441304  0.64714307  1
  Li  Li3  1  0.31324798  0.64714303  0.98441307  1
  Cd  Cd4  1  0.68675199  0.35285702  0.01558700  1
  Ne  Ne5  1  -0.00000002  0.50000002  0.50000005  1
  Kr  Kr6  1  0.38998098  0.64933003  0.64933005  1
  Th  Th7  1  0.61001899  0.35067002  0.35067002  1
  U  U8  1  0.69531600  0.13971201  0.70238002  1
  In  In9  1  0.30468397  0.86028804  0.29762005  1
  Na  Na10  1  0.30468399  0.29762001  0.86028805  1
  Al  Al11  1  0.69531598  0.70238003  0.13971203  1
  Sm  Sm12  1  0.50000000  0.00000000  -0.00000001  1
  Sc  Sc13  1  0.92898697  0.83194404  0.58261205  1
  Ne  Ne14  1  0.07101299  0.16805601  0.41738803  1
  Er  Er15  1  0.07101299  0.41738802  0.16805603  1
  Th  Th16  1  0.92898698  0.58261203  0.83194404  1
