# generated using pymatgen
data_SrNdEuZrTl2VGaFePdRhWAuIBr
_symmetry_space_group_name_H-M   'P 1'
_cell_length_a   6.96670294
_cell_length_b   8.14256859
_cell_length_c   9.53380966
_cell_angle_alpha   108.22884369
_cell_angle_beta   92.89387512
_cell_angle_gamma   108.64865112
_symmetry_Int_Tables_number   1
_chemical_formula_structural   SrNdEuZrTl2VGaFePdRhWAuIBr
_chemical_formula_sum
'Sr1 Nd1 Eu1 Zr1 Tl2 V1 Ga1 Fe1 Pd1 Rh1 W1 Au1 I1 Br1'
_cell_volume   479.85672809
_cell_formula_units_Z   1
loop_
 _symmetry_equiv_pos_site_id
 _symmetry_equiv_pos_as_xyz
  1  'x, y, z'
loop_
 _atom_site_type_symbol
 _atom_site_label
 _atom_site_symmetry_multiplicity
 _atom_site_fract_x
 _atom_site_fract_y
 _atom_site_fract_z
 _atom_site_occupancy
  V  V0  1  0.11108801  0.45748099  0.74617303  1
  Tl  Tl1  1  0.88891202  0.54251899  0.25382705  1
  Sr  Sr2  1  0.74289103  0.83843599  0.74091006  1
  Zr  Zr3  1  0.25710901  0.16156400  0.25909002  1
  Au  Au4  1  0.33279701  0.08211000  0.88330904  1
  Rh  Rh5  1  0.50000001  0.00000000  0.50000004  1
  Ga  Ga6  1  0.66720303  0.91788999  0.11669104  1
  Pd  Pd7  1  0.92639401  0.13597100  0.33954606  1
  I  I8  1  0.33707701  0.35416099  0.10671302  1
  Nd  Nd9  1  0.49874701  0.29190800  0.49641404  1
  Br  Br10  1  0.72046501  0.13432000  0.88127406  1
  Eu  Eu11  1  0.50125302  0.70809199  0.50358604  1
  W  W12  1  0.27953502  0.86567999  0.11872602  1
  Tl  Tl13  1  0.07360602  0.86402899  0.66045403  1
  Fe  Fe14  1  0.66292302  0.64583899  0.89328706  1
