# generated using pymatgen
data_CePrNpTaBeTcPOsSHeIO
_symmetry_space_group_name_H-M   'P 1'
_cell_length_a   4.84675694
_cell_length_b   7.02508307
_cell_length_c   8.79039764
_cell_angle_alpha   90.00000000
_cell_angle_beta   90.00000000
_cell_angle_gamma   90.00000000
_symmetry_Int_Tables_number   1
_chemical_formula_structural   CePrNpTaBeTcPOsSHeIO
_chemical_formula_sum   'Ce1 Pr1 Np1 Ta1 Be1 Tc1 P1 Os1 S1 He1 I1 O1'
_cell_volume   299.30310720
_cell_formula_units_Z   1
loop_
 _symmetry_equiv_pos_site_id
 _symmetry_equiv_pos_as_xyz
  1  'x, y, z'
loop_
 _atom_site_type_symbol
 _atom_site_label
 _atom_site_symmetry_multiplicity
 _atom_site_fract_x
 _atom_site_fract_y
 _atom_site_fract_z
 _atom_site_occupancy
  Ta  Ta0  1  0.25000000  0.85014999  0.92562104  1
  S  S1  1  0.25000000  0.35015000  0.57437902  1
  Np  Np2  1  0.75000001  0.14985000  0.07437900  1
  He  He3  1  0.75000001  0.64984999  0.42562102  1
  O  O4  1  0.25000000  0.48134500  0.17870201  1
  Os  Os5  1  0.25000000  0.98134499  0.32129801  1
  P  P6  1  0.75000001  0.51865500  0.82129803  1
  Pr  Pr7  1  0.75000001  0.01865500  0.67870203  1
  Ce  Ce8  1  0.25000000  0.25491200  0.89551404  1
  I  I9  1  0.25000000  0.75491199  0.60448602  1
  Tc  Tc10  1  0.75000001  0.74508799  0.10448600  1
  Be  Be11  1  0.75000001  0.24508800  0.39551402  1
