# generated using pymatgen
data_KPmPrUMnCrInBiMoPdClOHe
_symmetry_space_group_name_H-M   'P 1'
_cell_length_a   4.49877024
_cell_length_b   4.52441311
_cell_length_c   17.19645309
_cell_angle_alpha   90.00000000
_cell_angle_beta   90.00000000
_cell_angle_gamma   90.00000000
_symmetry_Int_Tables_number   1
_chemical_formula_structural   KPmPrUMnCrInBiMoPdClOHe
_chemical_formula_sum
'K1 Pr1 Pm1 U1 Mn1 Cr1 In1 Bi1 Mo1 Pd1 Cl1 O1 He1'
_cell_volume   350.02167982
_cell_formula_units_Z   1
loop_
 _symmetry_equiv_pos_site_id
 _symmetry_equiv_pos_as_xyz
  1  'x, y, z'
loop_
 _atom_site_type_symbol
 _atom_site_label
 _atom_site_symmetry_multiplicity
 _atom_site_fract_x
 _atom_site_fract_y
 _atom_site_fract_z
 _atom_site_occupancy
  Bi  Bi0  1  0.24999999  0.00000000  0.39832900  1
  U  U1  1  0.24999999  0.49999999  0.89480700  1
  O  O2  1  0.74999996  0.49999999  0.10625900  1
  In  In3  1  0.74999996  0.00000000  0.60225000  1
  Cr  Cr4  1  0.24999999  0.00000000  0.19333500  1
  Pr  Pr5  1  0.24999999  0.49999999  0.25958200  1
  Pm  Pm6  1  0.24999999  0.00000000  0.74812000  1
  Mn  Mn7  1  0.74999996  0.00000000  0.26027700  1
  Mo  Mo8  1  0.74999996  0.49999999  0.74947200  1
  He  He9  1  0.24999999  0.00000000  0.04925900  1
  Cl  Cl10  1  0.24999999  0.49999999  0.56151200  1
  K  K11  1  0.74999996  0.49999999  0.43758100  1
  Pd  Pd12  1  0.74999996  0.00000000  0.93621699  1
