# generated using pymatgen
data_NaPrDyNpTaMnBeAlCrGaCuTcAgRu2SeXeI2F
_symmetry_space_group_name_H-M   'P 1'
_cell_length_a   4.10931015
_cell_length_b   11.42379475
_cell_length_c   11.85729980
_cell_angle_alpha   90.00000000
_cell_angle_beta   90.00000000
_cell_angle_gamma   90.00000000
_symmetry_Int_Tables_number   1
_chemical_formula_structural   NaPrDyNpTaMnBeAlCrGaCuTcAgRu2SeXeI2F
_chemical_formula_sum
'Na1 Pr1 Dy1 Np1 Ta1 Mn1 Be1 Al1 Cr1 Ga1 Tc1 Cu1 Ag1 Ru2 Se1 Xe1 I2 F1'
_cell_volume   556.62808252
_cell_formula_units_Z   1
loop_
 _symmetry_equiv_pos_site_id
 _symmetry_equiv_pos_as_xyz
  1  'x, y, z'
loop_
 _atom_site_type_symbol
 _atom_site_label
 _atom_site_symmetry_multiplicity
 _atom_site_fract_x
 _atom_site_fract_y
 _atom_site_fract_z
 _atom_site_occupancy
  Ag  Ag0  1  0.49999998  0.20927300  0.65902501  1
  Dy  Dy1  1  0.49999998  0.79072702  0.15902500  1
  Na  Na2  1  0.00000000  0.28504701  0.34132501  1
  Ru  Ru3  1  0.00000000  0.71495302  0.84132501  1
  I  I4  1  -0.00000000  0.92033402  0.52060901  1
  Mn  Mn5  1  -0.00000000  0.07966600  0.02060900  1
  Tc  Tc6  1  0.49999998  0.58536901  0.48382101  1
  I  I7  1  0.49999998  0.41463101  0.98382102  1
  Cr  Cr8  1  0.49999998  0.44807701  0.27970800  1
  Ga  Ga9  1  0.49999998  0.55192301  0.77970801  1
  Xe  Xe10  1  -0.00000000  0.38191201  0.55400301  1
  Np  Np11  1  -0.00000000  0.61808801  0.05400300  1
  Cu  Cu12  1  0.49999998  0.11350100  0.44660901  1
  Ru  Ru13  1  0.49999998  0.88649902  0.94660902  1
  Al  Al14  1  0.49999998  0.80536502  0.62105901  1
  Ta  Ta15  1  0.49999998  0.19463500  0.12105900  1
  Be  Be16  1  0.00000000  0.69854902  0.38257401  1
  Pr  Pr17  1  0.00000000  0.30145101  0.88257401  1
  Se  Se18  1  -0.00000000  0.05663400  0.71126701  1
  F  F19  1  -0.00000000  0.94336602  0.21126700  1
