# generated using pymatgen
data_CaSmThTaCrSnGeKrFNe
_symmetry_space_group_name_H-M   'P 1'
_cell_length_a   5.90469933
_cell_length_b   5.90469933
_cell_length_c   5.90469933
_cell_angle_alpha   60.00000000
_cell_angle_beta   60.00000000
_cell_angle_gamma   60.00000000
_symmetry_Int_Tables_number   1
_chemical_formula_structural   CaSmThTaCrSnGeKrFNe
_chemical_formula_sum   'Ca1 Sm1 Th1 Ta1 Cr1 Sn1 Ge1 Kr1 F1 Ne1'
_cell_volume   145.57217314
_cell_formula_units_Z   1
loop_
 _symmetry_equiv_pos_site_id
 _symmetry_equiv_pos_as_xyz
  1  'x, y, z'
loop_
 _atom_site_type_symbol
 _atom_site_label
 _atom_site_symmetry_multiplicity
 _atom_site_fract_x
 _atom_site_fract_y
 _atom_site_fract_z
 _atom_site_occupancy
  Ge  Ge0  1  0.75000001  0.75000001  0.75000001  1
  F  F1  1  0.25000000  0.25000000  0.25000000  1
  Kr  Kr2  1  0.50000001  0.50000001  0.50000001  1
  Ca  Ca3  1  0.00000000  0.00000000  0.00000000  1
  Ta  Ta4  1  0.23911600  0.23911600  0.76088401  1
  Th  Th5  1  0.76088401  0.23911600  0.76088401  1
  Sn  Sn6  1  0.76088401  0.76088401  0.23911600  1
  Cr  Cr7  1  0.23911600  0.76088401  0.76088401  1
  Ne  Ne8  1  0.76088401  0.23911600  0.23911600  1
  Sm  Sm9  1  0.23911600  0.76088401  0.23911600  1
