# generated using pymatgen
data_BaPuTh2BeVNiAgKrHePbN
_symmetry_space_group_name_H-M   'P 1'
_cell_length_a   5.62191010
_cell_length_b   5.62188721
_cell_length_c   5.62188148
_cell_angle_alpha   65.87416077
_cell_angle_beta   72.80382538
_cell_angle_gamma   107.19433594
_symmetry_Int_Tables_number   1
_chemical_formula_structural   BaPuTh2BeVNiAgKrHePbN
_chemical_formula_sum   'Ba1 Pu1 Th2 Be1 V1 Ni1 Ag1 Kr1 He1 Pb1 N1'
_cell_volume   136.09829785
_cell_formula_units_Z   1
loop_
 _symmetry_equiv_pos_site_id
 _symmetry_equiv_pos_as_xyz
  1  'x, y, z'
loop_
 _atom_site_type_symbol
 _atom_site_label
 _atom_site_symmetry_multiplicity
 _atom_site_fract_x
 _atom_site_fract_y
 _atom_site_fract_z
 _atom_site_occupancy
  Kr  Kr0  1  0.49999804  0.74008099  0.75992298  1
  Be  Be1  1  0.00000302  0.99014698  0.00985402  1
  Ba  Ba2  1  0.50000403  0.25008200  0.24989898  1
  He  He3  1  0.99998306  0.50007399  0.49992996  1
  Ni  Ni4  1  0.19574602  0.44353899  0.75220799  1
  V  V5  1  0.19726502  0.95437898  0.24288901  1
  Pu  Pu6  1  0.69572405  0.99780098  0.30647899  1
  Ag  Ag7  1  0.69728304  0.50709799  0.79561997  1
  Th  Th8  1  0.30428103  0.99779998  0.69792300  1
  N  N9  1  0.30272002  0.50709999  0.19018400  1
  Th  Th10  1  0.80425604  0.05204900  0.75220795  1
  Pb  Pb11  1  0.80273705  0.55984899  0.24288498  1
