# generated using pymatgen
data_KNaLi2CaLaTmThSc2UMoRhKr
_symmetry_space_group_name_H-M   'P 1'
_cell_length_a   5.78611422
_cell_length_b   5.98928833
_cell_length_c   5.92559385
_cell_angle_alpha   119.64882660
_cell_angle_beta   90.00000000
_cell_angle_gamma   118.88404083
_symmetry_Int_Tables_number   1
_chemical_formula_structural   KNaLi2CaLaTmThSc2UMoRhKr
_chemical_formula_sum
'K1 Na1 Li2 Ca1 La1 Tm1 Th1 Sc2 U1 Mo1 Rh1 Kr1'
_cell_volume   148.35900324
_cell_formula_units_Z   1
loop_
 _symmetry_equiv_pos_site_id
 _symmetry_equiv_pos_as_xyz
  1  'x, y, z'
loop_
 _atom_site_type_symbol
 _atom_site_label
 _atom_site_symmetry_multiplicity
 _atom_site_fract_x
 _atom_site_fract_y
 _atom_site_fract_z
 _atom_site_occupancy
  La  La0  1  -0.00000001  0.50000000  0.50000002  1
  Mo  Mo1  1  0.49999998  0.50000000  0.00000001  1
  K  K2  1  -0.00000001  0.50000000  0.00000001  1
  Sc  Sc3  1  0.99999995  1.00000000  0.50000003  1
  Sc  Sc4  1  0.49999998  0.50000000  0.50000002  1
  Th  Th5  1  0.00000000  0.00000000  0.00000000  1
  Rh  Rh6  1  0.76612297  0.53224600  0.76612303  1
  U  U7  1  0.77076797  0.00000100  0.23839501  1
  Ca  Ca8  1  0.22923198  0.99999900  0.76160503  1
  Na  Na9  1  0.23387699  0.46775400  0.23387701  1
  Kr  Kr10  1  0.77076697  0.00000000  0.76160602  1
  Li  Li11  1  0.77094596  0.54189200  0.27094601  1
  Tm  Tm12  1  0.22905399  0.45810800  0.72905402  1
  Li  Li13  1  0.22923299  0.00000000  0.23839401  1
