# generated using pymatgen
data_CsKSrLaHoHf2ThMgBeGeIrPdRu2PtPbSe
_symmetry_space_group_name_H-M   'P 1'
_cell_length_a   6.97948790
_cell_length_b   7.52182007
_cell_length_c   6.97948790
_cell_angle_alpha   62.35774994
_cell_angle_beta   90.00000000
_cell_angle_gamma   117.64225006
_symmetry_Int_Tables_number   1
_chemical_formula_structural   CsKSrLaHoHf2ThMgBeGeIrPdRu2PtPbSe
_chemical_formula_sum
'Cs1 K1 Sr1 La1 Ho1 Hf2 Th1 Mg1 Be1 Ge1 Ru2 Pd1 Ir1 Pt1 Pb1 Se1'
_cell_volume   276.51433479
_cell_formula_units_Z   1
loop_
 _symmetry_equiv_pos_site_id
 _symmetry_equiv_pos_as_xyz
  1  'x, y, z'
loop_
 _atom_site_type_symbol
 _atom_site_label
 _atom_site_symmetry_multiplicity
 _atom_site_fract_x
 _atom_site_fract_y
 _atom_site_fract_z
 _atom_site_occupancy
  Ru  Ru0  1  0.50533801  0.01067600  0.49466201  1
  La  La1  1  0.00533800  0.01067600  0.99466201  1
  Cs  Cs2  1  0.06872500  0.50220201  0.06652300  1
  Ho  Ho3  1  0.56872501  0.50220301  0.93127502  1
  Hf  Hf4  1  0.43347800  0.50220401  0.43127401  1
  Pd  Pd5  1  0.93347801  0.50220301  0.56652201  1
  Pt  Pt6  1  0.49953600  0.99907202  0.00046400  1
  Ge  Ge7  1  0.99953601  0.99907202  0.50046401  1
  Mg  Mg8  1  0.24282900  0.48565801  0.75717101  1
  Pb  Pb9  1  0.74282901  0.48565801  0.25717101  1
  Ir  Ir10  1  0.45497501  0.19190900  0.76306601  1
  Th  Th11  1  0.95497501  0.19191000  0.54502501  1
  Hf  Hf12  1  0.76008601  0.80167602  0.45841001  1
  Sr  Sr13  1  0.26008600  0.80167602  0.23991401  1
  Se  Se14  1  0.73693501  0.19191100  0.04502400  1
  Be  Be15  1  0.23693500  0.19191000  0.26306500  1
  Ru  Ru16  1  0.04159000  0.80167602  0.73991401  1
  K  K17  1  0.54159000  0.80167602  0.95841002  1
