# generated using pymatgen
data_PrGdNbCdHgBiAsOsRuN
_symmetry_space_group_name_H-M   'P 1'
_cell_length_a   3.74352908
_cell_length_b   7.26142597
_cell_length_c   7.26142597
_cell_angle_alpha   90.00000000
_cell_angle_beta   90.00000000
_cell_angle_gamma   90.00000000
_symmetry_Int_Tables_number   1
_chemical_formula_structural   PrGdNbCdHgBiAsOsRuN
_chemical_formula_sum   'Pr1 Gd1 Nb1 Cd1 Hg1 Bi1 As1 Ru1 Os1 N1'
_cell_volume   197.38995121
_cell_formula_units_Z   1
loop_
 _symmetry_equiv_pos_site_id
 _symmetry_equiv_pos_as_xyz
  1  'x, y, z'
loop_
 _atom_site_type_symbol
 _atom_site_label
 _atom_site_symmetry_multiplicity
 _atom_site_fract_x
 _atom_site_fract_y
 _atom_site_fract_z
 _atom_site_occupancy
  Bi  Bi0  1  0.49999999  0.67383300  0.17383300  1
  Cd  Cd1  1  0.49999999  0.32616700  0.82616700  1
  Gd  Gd2  1  0.49999999  0.17383300  0.32616700  1
  Nb  Nb3  1  0.49999999  0.82616700  0.67383300  1
  Hg  Hg4  1  0.00000000  0.00000000  0.00000000  1
  Ru  Ru5  1  0.00000000  0.50000000  0.50000000  1
  Pr  Pr6  1  0.99999998  0.11973300  0.61973300  1
  Os  Os7  1  0.99999998  0.88026700  0.38026700  1
  As  As8  1  0.99999998  0.61973300  0.88026700  1
  N  N9  1  0.00000000  0.38026700  0.11973300  1
