# generated using pymatgen
data_KBaYbPuZrZnSnPbSXeClO
_symmetry_space_group_name_H-M   'P 1'
_cell_length_a   3.28692603
_cell_length_b   3.28692651
_cell_length_c   37.38653183
_cell_angle_alpha   90.00000000
_cell_angle_beta   90.00000000
_cell_angle_gamma   119.99999237
_symmetry_Int_Tables_number   1
_chemical_formula_structural   KBaYbPuZrZnSnPbSXeClO
_chemical_formula_sum
'K1 Ba1 Yb1 Pu1 Zr1 Zn1 Sn1 Pb1 S1 Xe1 Cl1 O1'
_cell_volume   349.80480388
_cell_formula_units_Z   1
loop_
 _symmetry_equiv_pos_site_id
 _symmetry_equiv_pos_as_xyz
  1  'x, y, z'
loop_
 _atom_site_type_symbol
 _atom_site_label
 _atom_site_symmetry_multiplicity
 _atom_site_fract_x
 _atom_site_fract_y
 _atom_site_fract_z
 _atom_site_occupancy
  Pu  Pu0  1  0.00000000  0.00000000  0.90607296  1
  Ba  Ba1  1  0.00000000  0.00000000  0.53034997  1
  K  K2  1  0.66666664  0.33333332  0.71819996  1
  S  S3  1  0.66666664  0.33333332  0.34245798  1
  Sn  Sn4  1  0.00000000  0.00000000  0.29707799  1
  Zr  Zr5  1  0.66666664  0.33333332  0.95117695  1
  Xe  Xe6  1  0.66666664  0.33333332  0.57572297  1
  Pb  Pb7  1  0.66666664  0.33333332  0.86096796  1
  Cl  Cl8  1  0.66666664  0.33333332  0.48497298  1
  Yb  Yb9  1  0.00000000  0.00000000  0.38784898  1
  Zn  Zn10  1  0.00000000  0.00000000  0.67697097  1
  O  O11  1  0.00000000  0.00000000  0.75942996  1
