# generated using pymatgen
data_Ba2SrLaTbCeSmYZrUMn2ZnTcHgOsCSeXeNe
_symmetry_space_group_name_H-M   'P 1'
_cell_length_a   5.00024700
_cell_length_b   6.94551611
_cell_length_c   8.79615402
_cell_angle_alpha   90.00000000
_cell_angle_beta   90.00000000
_cell_angle_gamma   90.00000000
_symmetry_Int_Tables_number   1
_chemical_formula_structural   Ba2SrLaTbCeSmYZrUMn2ZnTcHgOsCSeXeNe
_chemical_formula_sum
'Ba2 Sr1 La1 Tb1 Ce1 Sm1 Y1 Zr1 U1 Mn2 Zn1 Tc1 Hg1 Os1 Se1 C1 Xe1 Ne1'
_cell_volume   305.48423759
_cell_formula_units_Z   1
loop_
 _symmetry_equiv_pos_site_id
 _symmetry_equiv_pos_as_xyz
  1  'x, y, z'
loop_
 _atom_site_type_symbol
 _atom_site_label
 _atom_site_symmetry_multiplicity
 _atom_site_fract_x
 _atom_site_fract_y
 _atom_site_fract_z
 _atom_site_occupancy
  Os  Os0  1  0.17333500  0.82086499  0.80299300  1
  Zn  Zn1  1  0.67333500  0.17913500  0.69700700  1
  Sr  Sr2  1  0.17333500  0.82086499  0.19700700  1
  Se  Se3  1  0.67333500  0.17913500  0.30299300  1
  Ba  Ba4  1  0.69526800  0.51070799  0.00000000  1
  La  La5  1  0.19526800  0.48929199  0.50000000  1
  Ba  Ba6  1  0.32455300  0.05824200  0.71115400  1
  Xe  Xe7  1  0.27314300  0.93277099  0.00000000  1
  Mn  Mn8  1  0.32455300  0.05824200  0.28884600  1
  Tb  Tb9  1  0.54646200  0.55758799  0.14042100  1
  Hg  Hg10  1  0.82455300  0.94175799  0.78884600  1
  Zr  Zr11  1  0.54646200  0.55758799  0.85957900  1
  Ne  Ne12  1  0.82455300  0.94175799  0.21115400  1
  Sm  Sm13  1  0.04646200  0.44241199  0.64042100  1
  Y  Y14  1  0.04646200  0.44241199  0.35957900  1
  Tc  Tc15  1  0.77314300  0.06722900  0.50000000  1
  C  C16  1  0.27456400  0.69494599  0.50000000  1
  Ce  Ce17  1  0.95332500  0.63528099  0.00000000  1
  Mn  Mn18  1  0.77456400  0.30505400  0.00000000  1
  U  U19  1  0.45332500  0.36471899  0.50000000  1
