# generated using pymatgen
data_AcPmHoTiZnGaCoCuReSnBHIrPdCKr
_symmetry_space_group_name_H-M   'P 1'
_cell_length_a   5.03578520
_cell_length_b   5.25584459
_cell_length_c   7.61361170
_cell_angle_alpha   92.56614685
_cell_angle_beta   89.99964142
_cell_angle_gamma   89.99995422
_symmetry_Int_Tables_number   1
_chemical_formula_structural   AcPmHoTiZnGaCoCuReSnBHIrPdCKr
_chemical_formula_sum
'Ac1 Pm1 Ho1 Ti1 Zn1 Ga1 Co1 Cu1 Re1 Sn1 B1 H1 Ir1 Pd1 C1 Kr1'
_cell_volume   201.30970204
_cell_formula_units_Z   1
loop_
 _symmetry_equiv_pos_site_id
 _symmetry_equiv_pos_as_xyz
  1  'x, y, z'
loop_
 _atom_site_type_symbol
 _atom_site_label
 _atom_site_symmetry_multiplicity
 _atom_site_fract_x
 _atom_site_fract_y
 _atom_site_fract_z
 _atom_site_occupancy
  H  H0  1  0.50014000  0.49987802  0.50003001  1
  Ga  Ga1  1  0.50014800  0.50007402  0.99999101  1
  Pm  Pm2  1  0.00006305  0.99997604  0.50001103  1
  Zn  Zn3  1  0.00003500  0.00005900  0.00006400  1
  C  C4  1  0.21379102  0.71469103  0.46483302  1
  Cu  Cu5  1  0.21380100  0.28530301  0.03511700  1
  Re  Re6  1  0.78602800  0.71471703  0.96504201  1
  Ir  Ir7  1  0.78600198  0.28527301  0.53489900  1
  Ho  Ho8  1  0.11059800  0.00000300  0.74999701  1
  B  B9  1  0.29580903  0.79668503  0.07181001  1
  Ac  Ac10  1  0.29577100  0.20333301  0.42819500  1
  Pd  Pd11  1  0.39432901  0.50002702  0.74999801  1
  Sn  Sn12  1  0.60561000  0.50001002  0.24999300  1
  Kr  Kr13  1  0.70421001  0.79668203  0.57167401  1
  Ti  Ti14  1  0.70421698  0.20332301  0.92833800  1
  Co  Co15  1  0.88944601  0.99996504  0.25000901  1
