# generated using pymatgen
data_LiTbSmDyLuMgUAlVZnSnOsRhAuICl
_symmetry_space_group_name_H-M   'P 1'
_cell_length_a   5.86822987
_cell_length_b   5.86822987
_cell_length_c   8.15819454
_cell_angle_alpha   90.00000000
_cell_angle_beta   90.00000000
_cell_angle_gamma   90.00000000
_symmetry_Int_Tables_number   1
_chemical_formula_structural   LiTbSmDyLuMgUAlVZnSnOsRhAuICl
_chemical_formula_sum
'Li1 Tb1 Sm1 Dy1 Lu1 Mg1 U1 Al1 V1 Zn1 Sn1 Os1 Rh1 Au1 I1 Cl1'
_cell_volume   280.93658059
_cell_formula_units_Z   1
loop_
 _symmetry_equiv_pos_site_id
 _symmetry_equiv_pos_as_xyz
  1  'x, y, z'
loop_
 _atom_site_type_symbol
 _atom_site_label
 _atom_site_symmetry_multiplicity
 _atom_site_fract_x
 _atom_site_fract_y
 _atom_site_fract_z
 _atom_site_occupancy
  Sn  Sn0  1  0.50000001  0.50000001  0.00000000  1
  V  V1  1  0.00000000  0.00000000  0.00000000  1
  Sm  Sm2  1  0.00000000  0.00000000  0.50000003  1
  Tb  Tb3  1  0.50000001  0.50000001  0.50000003  1
  Lu  Lu4  1  0.00000000  0.50000001  0.74142104  1
  Li  Li5  1  0.50000001  0.00000000  0.25857901  1
  I  I6  1  0.00000000  0.50000001  0.96023905  1
  Mg  Mg7  1  0.50000001  0.00000000  0.03976100  1
  Zn  Zn8  1  0.77993002  0.72007002  0.67291504  1
  Al  Al9  1  0.22007001  0.27993001  0.67291504  1
  U  U10  1  0.72007002  0.77993002  0.32708502  1
  Os  Os11  1  0.22007001  0.72007002  0.67291504  1
  Au  Au12  1  0.77993002  0.27993001  0.67291504  1
  Dy  Dy13  1  0.72007002  0.22007001  0.32708502  1
  Rh  Rh14  1  0.27993001  0.22007001  0.32708502  1
  Cl  Cl15  1  0.27993001  0.77993002  0.32708502  1
