# generated using pymatgen
data_PbAuIHeLaDyHo2Tm2LuPuPaAlZnBr
_symmetry_space_group_name_H-M   'P 1'
_cell_length_a   2.84330392
_cell_length_b   5.27904415
_cell_length_c   9.80454826
_cell_angle_alpha   96.04054260
_cell_angle_beta   90.00000000
_cell_angle_gamma   90.00000000
_symmetry_Int_Tables_number   1
_chemical_formula_structural   PbAuIHeLaDyHo2Tm2LuPuPaAlZnBr
_chemical_formula_sum
'Pb1 Au1 I1 He1 La1 Dy1 Ho2 Tm2 Lu1 Pu1 Pa1 Al1 Zn1 Br1'
_cell_volume   146.34844298
_cell_formula_units_Z   1
loop_
 _symmetry_equiv_pos_site_id
 _symmetry_equiv_pos_as_xyz
  1  'x, y, z'
loop_
 _atom_site_type_symbol
 _atom_site_label
 _atom_site_symmetry_multiplicity
 _atom_site_fract_x
 _atom_site_fract_y
 _atom_site_fract_z
 _atom_site_occupancy
  Pb  Pb0  1  0.50000001  0.24798799  0.75046398  1
  Au  Au1  1  0.00000000  0.00000000  0.49999999  1
  I  I2  1  0.50000001  0.75201198  0.24953598  1
  He  He3  1  -0.00000000  0.49999998  -0.00000001  1
  Tm  Tm4  1  0.50000001  0.49999998  0.49999998  1
  Al  Al5  1  -0.00000000  0.75673698  0.75264097  1
  Ho  Ho6  1  -0.00000000  0.24326299  0.24735899  1
  La  La7  1  0.50000001  0.00000000  -0.00000000  1
  Br  Br8  1  0.50000001  0.64248598  0.86541197  1
  Dy  Dy9  1  -0.00000000  0.38230599  0.61551398  1
  Lu  Lu10  1  0.50000001  0.13288200  0.35981199  1
  Tm  Tm11  1  -0.00000000  0.88438197  0.11673899  1
  Ho  Ho12  1  0.50000001  0.86711797  0.64018797  1
  Pa  Pa13  1  -0.00000000  0.61769398  0.38448598  1
  Zn  Zn14  1  0.50000001  0.35751399  0.13458799  1
  Pu  Pu15  1  -0.00000000  0.11561800  0.88326097  1
