# generated using pymatgen
data_RbLa2CeErZrNbAl2VTcSnRuPtXe2
_symmetry_space_group_name_H-M   'P 1'
_cell_length_a   4.70033979
_cell_length_b   4.99916697
_cell_length_c   5.77286005
_cell_angle_alpha   90.00000000
_cell_angle_beta   90.00000000
_cell_angle_gamma   90.00000000
_symmetry_Int_Tables_number   1
_chemical_formula_structural   RbLa2CeErZrNbAl2VTcSnRuPtXe2
_chemical_formula_sum
'Rb1 La2 Ce1 Er1 Zr1 Nb1 Al2 V1 Tc1 Sn1 Ru1 Pt1 Xe2'
_cell_volume   135.64941521
_cell_formula_units_Z   1
loop_
 _symmetry_equiv_pos_site_id
 _symmetry_equiv_pos_as_xyz
  1  'x, y, z'
loop_
 _atom_site_type_symbol
 _atom_site_label
 _atom_site_symmetry_multiplicity
 _atom_site_fract_x
 _atom_site_fract_y
 _atom_site_fract_z
 _atom_site_occupancy
  Rb  Rb0  1  0.99980604  0.08317200  0.62522499  1
  Ce  Ce1  1  0.49980602  0.91682801  0.37477500  1
  V  V2  1  0.49980602  0.41682800  0.12522500  1
  Al  Al3  1  0.99980604  0.58317200  0.87477499  1
  Pt  Pt4  1  0.99931804  0.08516400  0.12509200  1
  Er  Er5  1  0.99931804  0.58516400  0.37490800  1
  Xe  Xe6  1  0.49931802  0.41483600  0.62509199  1
  Zr  Zr7  1  0.49931802  0.91483601  0.87490799  1
  Xe  Xe8  1  0.37849702  0.58420200  0.87257999  1
  Tc  Tc9  1  0.37437902  0.07946600  0.12277900  1
  La  La10  1  0.87849704  0.41579800  0.12742000  1
  Ru  Ru11  1  0.87849704  0.91579801  0.37258000  1
  Sn  Sn12  1  0.87437904  0.42053400  0.62277899  1
  Nb  Nb13  1  0.87437904  0.92053401  0.87722099  1
  La  La14  1  0.37437902  0.57946600  0.37722100  1
  Al  Al15  1  0.37849702  0.08420200  0.62741999  1
