# generated using pymatgen
data_CaAcEuErTiBeAlVNiSnBiOsRhHeRu
_symmetry_space_group_name_H-M   'P 1'
_cell_length_a   5.64345980
_cell_length_b   5.73807192
_cell_length_c   5.73807192
_cell_angle_alpha   62.20785141
_cell_angle_beta   87.45201111
_cell_angle_gamma   92.54798889
_symmetry_Int_Tables_number   1
_chemical_formula_structural   CaAcEuErTiBeAlVNiSnBiOsRhHeRu
_chemical_formula_sum
'Ca1 Ac1 Eu1 Er1 Ti1 Be1 Al1 V1 Ni1 Sn1 Bi1 Os1 Rh1 He1 Ru1'
_cell_volume   163.76921143
_cell_formula_units_Z   1
loop_
 _symmetry_equiv_pos_site_id
 _symmetry_equiv_pos_as_xyz
  1  'x, y, z'
loop_
 _atom_site_type_symbol
 _atom_site_label
 _atom_site_symmetry_multiplicity
 _atom_site_fract_x
 _atom_site_fract_y
 _atom_site_fract_z
 _atom_site_occupancy
  Ca  Ca0  1  0.37529199  0.66782399  0.99008800  1
  Be  Be1  1  0.37529200  0.00991200  0.33217600  1
  Os  Os2  1  0.62470800  0.33217600  0.00991201  1
  Rh  Rh3  1  0.62470798  0.99008799  0.66782401  1
  V  V4  1  -0.00000001  0.32200000  0.32200000  1
  Er  Er5  1  -0.00000002  0.67799999  0.67800000  1
  Ac  Ac6  1  0.00000000  0.00000000  0.00000000  1
  Eu  Eu7  1  0.63297199  0.67825599  0.32174401  1
  Ni  Ni8  1  0.36702799  0.32174400  0.67825600  1
  He  He9  1  0.68691400  0.37794600  0.62205401  1
  Ti  Ti10  1  0.31308599  0.62205399  0.37794601  1
  Bi  Bi11  1  0.74789599  0.67740799  0.03344601  1
  Sn  Sn12  1  0.74789598  0.96655399  0.32259201  1
  Ru  Ru13  1  0.25210399  0.32259200  0.96655400  1
  Al  Al14  1  0.25210400  0.03344600  0.67740800  1
