# generated using pymatgen
data_BaMgZnBSeXe
_symmetry_space_group_name_H-M   'P 1'
_cell_length_a   3.75823998
_cell_length_b   3.75823998
_cell_length_c   11.05144405
_cell_angle_alpha   80.21020508
_cell_angle_beta   80.21020508
_cell_angle_gamma   60.00000000
_symmetry_Int_Tables_number   1
_chemical_formula_structural   BaMgZnBSeXe
_chemical_formula_sum   'Ba1 Mg1 Zn1 B1 Se1 Xe1'
_cell_volume   132.55078834
_cell_formula_units_Z   1
loop_
 _symmetry_equiv_pos_site_id
 _symmetry_equiv_pos_as_xyz
  1  'x, y, z'
loop_
 _atom_site_type_symbol
 _atom_site_label
 _atom_site_symmetry_multiplicity
 _atom_site_fract_x
 _atom_site_fract_y
 _atom_site_fract_z
 _atom_site_occupancy
  B  B0  1  0.79387900  0.79387900  0.61836304  1
  Ba  Ba1  1  0.20612100  0.20612100  0.38163701  1
  Xe  Xe2  1  0.39225200  0.39225200  0.82324403  1
  Zn  Zn3  1  0.60774800  0.60774800  0.17675602  1
  Se  Se4  1  0.13947200  0.13947200  0.58158402  1
  Mg  Mg5  1  0.86052800  0.86052800  0.41841604  1
