# generated using pymatgen
data_AcPrNdHfNpScNbBr
_symmetry_space_group_name_H-M   'P 1'
_cell_length_a   3.90807295
_cell_length_b   5.44034815
_cell_length_c   5.44034815
_cell_angle_alpha   90.00000000
_cell_angle_beta   90.00000000
_cell_angle_gamma   90.00000000
_symmetry_Int_Tables_number   1
_chemical_formula_structural   AcPrNdHfNpScNbBr
_chemical_formula_sum   'Ac1 Pr1 Nd1 Hf1 Sc1 Np1 Nb1 Br1'
_cell_volume   115.66875129
_cell_formula_units_Z   1
loop_
 _symmetry_equiv_pos_site_id
 _symmetry_equiv_pos_as_xyz
  1  'x, y, z'
loop_
 _atom_site_type_symbol
 _atom_site_label
 _atom_site_symmetry_multiplicity
 _atom_site_fract_x
 _atom_site_fract_y
 _atom_site_fract_z
 _atom_site_occupancy
  Nd  Nd0  1  0.96129301  0.99999997  0.49999999  1
  Ac  Ac1  1  0.03870700  0.49999999  -0.00000000  1
  Hf  Hf2  1  0.49112801  0.99999997  0.49999999  1
  Nb  Nb3  1  0.50887201  0.49999999  -0.00000000  1
  Sc  Sc4  1  -0.00000000  0.24999999  0.24999999  1
  Np  Np5  1  -0.00000000  0.74999998  0.24999999  1
  Br  Br6  1  0.00000000  0.74999998  0.74999998  1
  Pr  Pr7  1  0.00000000  0.24999999  0.74999998  1
