# generated using pymatgen
data_CsTbPrThScTiFeTcHIr
_symmetry_space_group_name_H-M   'P 1'
_cell_length_a   5.50992203
_cell_length_b   5.50992203
_cell_length_c   5.50992203
_cell_angle_alpha   87.68811798
_cell_angle_beta   61.32566833
_cell_angle_gamma   118.67433167
_symmetry_Int_Tables_number   1
_chemical_formula_structural   CsTbPrThScTiFeTcHIr
_chemical_formula_sum   'Cs1 Tb1 Pr1 Th1 Sc1 Ti1 Fe1 Tc1 H1 Ir1'
_cell_volume   120.54665689
_cell_formula_units_Z   1
loop_
 _symmetry_equiv_pos_site_id
 _symmetry_equiv_pos_as_xyz
  1  'x, y, z'
loop_
 _atom_site_type_symbol
 _atom_site_label
 _atom_site_symmetry_multiplicity
 _atom_site_fract_x
 _atom_site_fract_y
 _atom_site_fract_z
 _atom_site_occupancy
  Pr  Pr0  1  -0.00000000  0.25000001  0.75000004  1
  Fe  Fe1  1  -0.00000001  0.75000003  0.25000003  1
  Ti  Ti2  1  0.75457003  0.12728500  0.37271502  1
  H  H3  1  0.50000001  0.62728502  0.12728502  1
  Th  Th4  1  0.24543000  0.87271503  0.62728505  1
  Tb  Tb5  1  0.50000002  0.37271501  0.87271504  1
  Sc  Sc6  1  0.50000002  0.16782801  0.66782803  1
  Cs  Cs7  1  0.83565503  0.66782702  0.83217305  1
  Tc  Tc8  1  0.16434500  0.33217301  0.16782701  1
  Ir  Ir9  1  0.50000001  0.83217203  0.33217203  1
