# generated using pymatgen
data_KRb2BaEuGdHoThNeNaPaVCdCoPPdRhBr
_symmetry_space_group_name_H-M   'P 1'
_cell_length_a   5.63214779
_cell_length_b   5.63214779
_cell_length_c   13.38336086
_cell_angle_alpha   90.00000000
_cell_angle_beta   90.00000000
_cell_angle_gamma   90.00000000
_symmetry_Int_Tables_number   1
_chemical_formula_structural   KRb2BaEuGdHoThNeNaPaVCdCoPPdRhBr
_chemical_formula_sum
'Rb2 K1 Ba1 Gd1 Eu1 Ho1 Th1 Ne1 Na1 Pa1 V1 Cd1 Co1 P1 Pd1 Rh1 Br1'
_cell_volume   424.53477726
_cell_formula_units_Z   1
loop_
 _symmetry_equiv_pos_site_id
 _symmetry_equiv_pos_as_xyz
  1  'x, y, z'
loop_
 _atom_site_type_symbol
 _atom_site_label
 _atom_site_symmetry_multiplicity
 _atom_site_fract_x
 _atom_site_fract_y
 _atom_site_fract_z
 _atom_site_occupancy
  Th  Th0  1  0.75973503  0.75973503  0.00000000  1
  Rb  Rb1  1  0.24026501  0.75973503  0.50000001  1
  Ne  Ne2  1  0.75973503  0.24026501  0.50000001  1
  Ho  Ho3  1  0.24026501  0.24026501  0.00000000  1
  P  P4  1  0.50000002  0.50000002  0.75000001  1
  Gd  Gd5  1  0.50000002  0.50000002  0.25000000  1
  V  V6  1  0.00000000  0.50000002  0.75000001  1
  Br  Br7  1  0.50000002  0.00000000  0.75000001  1
  Rb  Rb8  1  0.00000000  0.50000002  0.25000000  1
  Pa  Pa9  1  0.50000002  0.00000000  0.25000000  1
  Na  Na10  1  0.73800503  0.73800503  0.65452301  1
  Co  Co11  1  0.26199501  0.26199501  0.65452301  1
  Rh  Rh12  1  0.73800503  0.73800503  0.34547700  1
  Cd  Cd13  1  0.73800503  0.26199501  0.15452300  1
  Eu  Eu14  1  0.26199501  0.73800503  0.84547701  1
  K  K15  1  0.26199501  0.26199501  0.34547700  1
  Ba  Ba16  1  0.26199501  0.73800503  0.15452300  1
  Pd  Pd17  1  0.73800503  0.26199501  0.84547701  1
