# generated using pymatgen
data_TbSmErLuUTaTlSbWSe
_symmetry_space_group_name_H-M   'P 1'
_cell_length_a   6.52008152
_cell_length_b   6.52008152
_cell_length_c   6.52008152
_cell_angle_alpha   60.00000000
_cell_angle_beta   60.00000000
_cell_angle_gamma   60.00000000
_symmetry_Int_Tables_number   1
_chemical_formula_structural   TbSmErLuUTaTlSbWSe
_chemical_formula_sum   'Tb1 Sm1 Er1 Lu1 U1 Ta1 Tl1 Sb1 W1 Se1'
_cell_volume   195.99458799
_cell_formula_units_Z   1
loop_
 _symmetry_equiv_pos_site_id
 _symmetry_equiv_pos_as_xyz
  1  'x, y, z'
loop_
 _atom_site_type_symbol
 _atom_site_label
 _atom_site_symmetry_multiplicity
 _atom_site_fract_x
 _atom_site_fract_y
 _atom_site_fract_z
 _atom_site_occupancy
  Lu  Lu0  1  0.25000001  0.25000001  0.25000001  1
  Tb  Tb1  1  0.75000002  0.75000002  0.75000002  1
  Tl  Tl2  1  0.00000000  0.00000000  0.00000000  1
  Ta  Ta3  1  0.50000002  0.50000002  0.50000002  1
  W  W4  1  0.24007701  0.75992302  0.24007701  1
  Sm  Sm5  1  0.24007701  0.24007701  0.75992302  1
  Er  Er6  1  0.75992302  0.24007701  0.75992302  1
  Sb  Sb7  1  0.24007701  0.75992302  0.75992302  1
  Se  Se8  1  0.75992302  0.24007701  0.24007701  1
  U  U9  1  0.75992302  0.75992302  0.24007701  1
