# generated using pymatgen
data_YbPaNbVZnCdNiSbMoAuCSCl
_symmetry_space_group_name_H-M   'P 1'
_cell_length_a   4.96265602
_cell_length_b   6.28155613
_cell_length_c   6.28155613
_cell_angle_alpha   120.00000000
_cell_angle_beta   90.00000000
_cell_angle_gamma   90.00000000
_symmetry_Int_Tables_number   1
_chemical_formula_structural   YbPaNbVZnCdNiSbMoAuCSCl
_chemical_formula_sum
'Yb1 Pa1 Nb1 V1 Zn1 Cd1 Ni1 Sb1 Mo1 Au1 C1 S1 Cl1'
_cell_volume   169.58182124
_cell_formula_units_Z   1
loop_
 _symmetry_equiv_pos_site_id
 _symmetry_equiv_pos_as_xyz
  1  'x, y, z'
loop_
 _atom_site_type_symbol
 _atom_site_label
 _atom_site_symmetry_multiplicity
 _atom_site_fract_x
 _atom_site_fract_y
 _atom_site_fract_z
 _atom_site_occupancy
  Zn  Zn0  1  0.31630500  0.00000000  -0.00000000  1
  Ni  Ni1  1  0.25199200  0.33333333  0.66666664  1
  Au  Au2  1  0.75244600  0.83064998  0.16934999  1
  Nb  Nb3  1  0.75244600  0.33869999  0.16934999  1
  Yb  Yb4  1  0.75244600  0.83064998  0.66129997  1
  Cd  Cd5  1  0.95937300  0.00000000  -0.00000000  1
  V  V6  1  0.95827500  0.99202498  0.49601198  1
  Sb  Sb7  1  0.95827500  0.50398699  0.49601198  1
  C  C8  1  0.95827500  0.50398699  0.00797400  1
  Pa  Pa9  1  0.53527500  0.66666665  0.33333332  1
  Mo  Mo10  1  0.51763000  0.69493098  0.84746497  1
  S  S11  1  0.51763000  0.15253400  0.84746497  1
  Cl  Cl12  1  0.51763000  0.15253400  0.30506799  1
