# generated using pymatgen
data_RbNaSrAcLaCePrErTmTaTiMnNbVCdFeIrPdKrHe
_symmetry_space_group_name_H-M   'P 1'
_cell_length_a   5.49013090
_cell_length_b   5.68394995
_cell_length_c   7.89140081
_cell_angle_alpha   90.00000000
_cell_angle_beta   90.00000000
_cell_angle_gamma   90.00000000
_symmetry_Int_Tables_number   1
_chemical_formula_structural
RbNaSrAcLaCePrErTmTaTiMnNbVCdFeIrPdKrHe
_chemical_formula_sum
;
Rb1 Na1 Sr1 La1 Ac1 Ce1 Pr1 Er1 Tm1 Ta1 Ti1 Mn1 Nb1 V1 Cd1 Fe1 Ir1 Pd1
Kr1 He1
;
_cell_volume   246.25612805
_cell_formula_units_Z   1
loop_
 _symmetry_equiv_pos_site_id
 _symmetry_equiv_pos_as_xyz
  1  'x, y, z'
loop_
 _atom_site_type_symbol
 _atom_site_label
 _atom_site_symmetry_multiplicity
 _atom_site_fract_x
 _atom_site_fract_y
 _atom_site_fract_z
 _atom_site_occupancy
  Ti  Ti0  1  0.01602200  0.94308401  0.75000002  1
  Rb  Rb1  1  0.51602201  0.55691601  0.25000001  1
  V  V2  1  0.48397801  0.44308400  0.75000002  1
  Ir  Ir3  1  0.98397802  0.05691600  0.25000001  1
  Tm  Tm4  1  0.50000001  0.00000000  0.50000001  1
  Pr  Pr5  1  0.00000000  0.50000000  0.50000001  1
  Nb  Nb6  1  0.00000000  0.50000000  -0.00000000  1
  Cd  Cd7  1  0.50000001  0.00000000  -0.00000000  1
  Pd  Pd8  1  0.69710001  0.29925900  0.44338601  1
  Ta  Ta9  1  0.19710000  0.20074100  0.55661401  1
  Mn  Mn10  1  0.80290001  0.79925901  0.05661400  1
  La  La11  1  0.30290001  0.70074101  0.94338602  1
  Kr  Kr12  1  0.30290001  0.70074101  0.55661401  1
  Er  Er13  1  0.80290001  0.79925901  0.44338601  1
  Ac  Ac14  1  0.19710000  0.20074100  0.94338602  1
  He  He15  1  0.69710001  0.29925900  0.05661400  1
  Sr  Sr16  1  0.10790200  0.46018200  0.25000001  1
  Ce  Ce17  1  0.60790201  0.03981800  0.75000002  1
  Fe  Fe18  1  0.39209801  0.96018201  0.25000001  1
  Na  Na19  1  0.89209802  0.53981800  0.75000002  1
