# generated using pymatgen
data_Ta2NeRbCaNdEuInCoCu
_symmetry_space_group_name_H-M   'P 1'
_cell_length_a   6.43018579
_cell_length_b   6.43018579
_cell_length_c   6.43018579
_cell_angle_alpha   60.00000000
_cell_angle_beta   60.00000000
_cell_angle_gamma   60.00000000
_symmetry_Int_Tables_number   1
_chemical_formula_structural   Ta2NeRbCaNdEuInCoCu
_chemical_formula_sum   'Ta2 Ne1 Rb1 Ca1 Nd1 Eu1 In1 Co1 Cu1'
_cell_volume   187.99901213
_cell_formula_units_Z   1
loop_
 _symmetry_equiv_pos_site_id
 _symmetry_equiv_pos_as_xyz
  1  'x, y, z'
loop_
 _atom_site_type_symbol
 _atom_site_label
 _atom_site_symmetry_multiplicity
 _atom_site_fract_x
 _atom_site_fract_y
 _atom_site_fract_z
 _atom_site_occupancy
  Ta  Ta0  1  0.25000000  0.25000000  0.25000000  1
  Ne  Ne1  1  0.75000000  0.75000000  0.75000000  1
  In  In2  1  0.50000000  0.50000000  0.50000000  1
  Eu  Eu3  1  0.00000000  0.00000000  0.00000000  1
  Ta  Ta4  1  0.22318400  0.77681600  0.22318400  1
  Rb  Rb5  1  0.22318400  0.22318400  0.77681600  1
  Co  Co6  1  0.77681600  0.22318400  0.77681600  1
  Cu  Cu7  1  0.22318400  0.77681600  0.77681600  1
  Ca  Ca8  1  0.77681600  0.22318400  0.22318400  1
  Nd  Nd9  1  0.77681600  0.77681600  0.22318400  1
