# generated using pymatgen
data_BaYbNdGdDyHfThPaMnZnFeCoReSiPPdKrNeSN
_symmetry_space_group_name_H-M   'P 1'
_cell_length_a   8.53817558
_cell_length_b   8.53817558
_cell_length_c   8.53817558
_cell_angle_alpha   109.47122192
_cell_angle_beta   109.47122192
_cell_angle_gamma   109.47122192
_symmetry_Int_Tables_number   1
_chemical_formula_structural   BaYbNdGdDyHfThPaMnZnFeCoReSiPPdKrNeSN
_chemical_formula_sum
;
Ba1 Yb1 Nd1 Gd1 Dy1 Hf1 Th1 Pa1 Mn1 Zn1 Fe1 Co1 Si1 Re1 P1 Pd1 Kr1 Ne1
S1 N1
;
_cell_volume   479.15203092
_cell_formula_units_Z   1
loop_
 _symmetry_equiv_pos_site_id
 _symmetry_equiv_pos_as_xyz
  1  'x, y, z'
loop_
 _atom_site_type_symbol
 _atom_site_label
 _atom_site_symmetry_multiplicity
 _atom_site_fract_x
 _atom_site_fract_y
 _atom_site_fract_z
 _atom_site_occupancy
  Kr  Kr0  1  0.87500002  0.12500001  0.75000003  1
  Si  Si1  1  0.62500003  0.37500002  0.25000004  1
  Ne  Ne2  1  0.12500002  0.25000001  0.37500002  1
  Ba  Ba3  1  0.37500005  0.75000003  0.12500005  1
  N  N4  1  0.75000005  0.62500003  0.87500006  1
  Pa  Pa5  1  0.25000006  0.87500004  0.62500006  1
  Dy  Dy6  1  0.00000003  0.50000002  0.67875203  1
  Co  Co7  1  0.32124802  0.32124801  0.82124803  1
  Nd  Nd8  1  0.50000002  0.17875201  0.50000002  1
  Yb  Yb9  1  0.17875207  1.00000005  0.00000006  1
  Fe  Fe10  1  0.82124806  0.82124804  0.32124807  1
  Zn  Zn11  1  1.00000005  0.50000002  0.17875205  1
  P  P12  1  0.50000005  0.67875203  0.50000005  1
  Hf  Hf13  1  0.67875207  1.00000005  1.00000008  1
  Th  Th14  1  0.37500004  0.62500003  0.75000005  1
  S  S15  1  0.12500006  0.87500004  0.25000005  1
  Pd  Pd16  1  0.62500002  0.25000001  0.87500003  1
  Gd  Gd17  1  0.87500006  0.75000003  0.62500007  1
  Re  Re18  1  0.75000002  0.12500001  0.37500003  1
  Mn  Mn19  1  0.25000003  0.37500002  0.12500003  1
