# generated using pymatgen
data_SrLaY2ErGaGeBIrN
_symmetry_space_group_name_H-M   'P 1'
_cell_length_a   7.69693184
_cell_length_b   7.73955870
_cell_length_c   7.69693184
_cell_angle_alpha   119.81797791
_cell_angle_beta   90.00000000
_cell_angle_gamma   119.81797791
_symmetry_Int_Tables_number   1
_chemical_formula_structural   SrLaY2ErGaGeBIrN
_chemical_formula_sum   'Sr1 La1 Y2 Er1 Ga1 Ge1 B1 Ir1 N1'
_cell_volume   325.99338927
_cell_formula_units_Z   1
loop_
 _symmetry_equiv_pos_site_id
 _symmetry_equiv_pos_as_xyz
  1  'x, y, z'
loop_
 _atom_site_type_symbol
 _atom_site_label
 _atom_site_symmetry_multiplicity
 _atom_site_fract_x
 _atom_site_fract_y
 _atom_site_fract_z
 _atom_site_occupancy
  La  La0  1  0.25000004  0.50000004  0.75000005  1
  Ge  Ge1  1  0.75000005  0.50000004  0.25000004  1
  Ir  Ir2  1  0.00000000  0.00000000  0.00000000  1
  B  B3  1  0.50000001  0.00000000  0.50000001  1
  Er  Er4  1  0.28271008  0.99999908  0.21728908  1
  Y  Y5  1  0.71729001  0.00000100  0.78271102  1
  N  N6  1  0.78271010  1.00000008  0.28271009  1
  Ga  Ga7  1  0.21729000  0.00000000  0.71729001  1
  Sr  Sr8  1  0.75000005  0.50000004  0.75000005  1
  Y  Y9  1  0.25000004  0.50000004  0.25000004  1
