# generated using pymatgen
data_CsPmThZnCoMoRhCl
_symmetry_space_group_name_H-M   'P 1'
_cell_length_a   5.30689669
_cell_length_b   5.30689669
_cell_length_c   5.58304358
_cell_angle_alpha   61.62311554
_cell_angle_beta   61.62311554
_cell_angle_gamma   59.99999237
_symmetry_Int_Tables_number   1
_chemical_formula_structural   CsPmThZnCoMoRhCl
_chemical_formula_sum   'Cs1 Pm1 Th1 Zn1 Co1 Mo1 Rh1 Cl1'
_cell_volume   113.83275691
_cell_formula_units_Z   1
loop_
 _symmetry_equiv_pos_site_id
 _symmetry_equiv_pos_as_xyz
  1  'x, y, z'
loop_
 _atom_site_type_symbol
 _atom_site_label
 _atom_site_symmetry_multiplicity
 _atom_site_fract_x
 _atom_site_fract_y
 _atom_site_fract_z
 _atom_site_occupancy
  Th  Th0  1  0.49999998  0.49999999  0.49999997  1
  Pm  Pm1  1  0.00000000  0.00000000  0.00000000  1
  Zn  Zn2  1  0.24950198  0.86516998  0.24794197  1
  Mo  Mo3  1  0.86516997  0.63738599  0.24794196  1
  Cs  Cs4  1  0.36261398  0.75049799  0.75205797  1
  Rh  Rh5  1  0.13482999  0.36261399  0.75205798  1
  Cl  Cl6  1  0.75049798  0.13483000  0.75205797  1
  Co  Co7  1  0.63738598  0.24950200  0.24794197  1
