# generated using pymatgen
data_SrTbCeGdPuThNbAsPPdWHe
_symmetry_space_group_name_H-M   'P 1'
_cell_length_a   4.31225586
_cell_length_b   6.91946983
_cell_length_c   7.57226706
_cell_angle_alpha   90.00000000
_cell_angle_beta   90.00000000
_cell_angle_gamma   90.00000000
_symmetry_Int_Tables_number   1
_chemical_formula_structural   SrTbCeGdPuThNbAsPPdWHe
_chemical_formula_sum
'Sr1 Tb1 Ce1 Gd1 Pu1 Th1 Nb1 As1 P1 Pd1 W1 He1'
_cell_volume   225.94527479
_cell_formula_units_Z   1
loop_
 _symmetry_equiv_pos_site_id
 _symmetry_equiv_pos_as_xyz
  1  'x, y, z'
loop_
 _atom_site_type_symbol
 _atom_site_label
 _atom_site_symmetry_multiplicity
 _atom_site_fract_x
 _atom_site_fract_y
 _atom_site_fract_z
 _atom_site_occupancy
  Gd  Gd0  1  0.25000001  0.50331801  0.69492999  1
  Pu  Pu1  1  0.75000002  0.49668201  0.30507000  1
  Nb  Nb2  1  0.25000001  0.00331800  0.80506999  1
  Tb  Tb3  1  0.75000002  0.99668202  0.19493000  1
  Pd  Pd4  1  0.25000001  0.28742301  0.10674400  1
  Ce  Ce5  1  0.75000002  0.71257702  0.89325599  1
  As  As6  1  0.25000001  0.78742302  0.39325600  1
  P  P7  1  0.75000002  0.21257701  0.60674400  1
  W  W8  1  0.75000002  0.84439502  0.56678400  1
  Th  Th9  1  0.25000001  0.15560500  0.43321600  1
  Sr  Sr10  1  0.75000002  0.34439501  0.93321599  1
  He  He11  1  0.25000001  0.65560502  0.06678400  1
