# generated using pymatgen
data_AcCeDyScTlTcAsW
_symmetry_space_group_name_H-M   'P 1'
_cell_length_a   5.92435408
_cell_length_b   7.30101585
_cell_length_c   7.30101585
_cell_angle_alpha   120.00000000
_cell_angle_beta   90.00000000
_cell_angle_gamma   90.00000000
_symmetry_Int_Tables_number   1
_chemical_formula_structural   AcCeDyScTlTcAsW
_chemical_formula_sum   'Ac1 Ce1 Dy1 Sc1 Tl1 Tc1 As1 W1'
_cell_volume   273.48796611
_cell_formula_units_Z   1
loop_
 _symmetry_equiv_pos_site_id
 _symmetry_equiv_pos_as_xyz
  1  'x, y, z'
loop_
 _atom_site_type_symbol
 _atom_site_label
 _atom_site_symmetry_multiplicity
 _atom_site_fract_x
 _atom_site_fract_y
 _atom_site_fract_z
 _atom_site_occupancy
  Tl  Tl0  1  0.74999999  0.83248201  0.16751797  1
  Dy  Dy1  1  0.74999999  0.33503600  0.16751799  1
  Sc  Sc2  1  0.74999999  0.83248201  0.66496397  1
  Ce  Ce3  1  0.25000000  0.16751800  0.83248198  1
  Ac  Ac4  1  0.25000000  0.66496400  0.83248197  1
  Tc  Tc5  1  0.25000000  0.16751800  0.33503599  1
  W  W6  1  0.25000000  0.66666667  0.33333331  1
  As  As7  1  0.74999999  0.33333334  0.66666664  1
