# generated using pymatgen
data_YHfUPaBeVSnBiSbAsIrCSXe
_symmetry_space_group_name_H-M   'P 1'
_cell_length_a   5.94637251
_cell_length_b   5.94637251
_cell_length_c   5.94782972
_cell_angle_alpha   60.00810242
_cell_angle_beta   60.00810242
_cell_angle_gamma   59.99999619
_symmetry_Int_Tables_number   1
_chemical_formula_structural   YHfUPaBeVSnBiSbAsIrCSXe
_chemical_formula_sum
'Y1 Hf1 U1 Pa1 Be1 V1 Sn1 Bi1 Sb1 As1 Ir1 C1 S1 Xe1'
_cell_volume   148.73080099
_cell_formula_units_Z   1
loop_
 _symmetry_equiv_pos_site_id
 _symmetry_equiv_pos_as_xyz
  1  'x, y, z'
loop_
 _atom_site_type_symbol
 _atom_site_label
 _atom_site_symmetry_multiplicity
 _atom_site_fract_x
 _atom_site_fract_y
 _atom_site_fract_z
 _atom_site_occupancy
  S  S0  1  0.49999998  0.00000000  0.00000001  1
  V  V1  1  0.49999997  0.49999998  0.00000002  1
  Xe  Xe2  1  -0.00000001  0.49999998  0.00000001  1
  Y  Y3  1  0.12323099  0.12323100  0.63030700  1
  Sb  Sb4  1  0.87676895  0.87676897  0.36969303  1
  Ir  Ir5  1  0.49999997  0.49999998  0.50000001  1
  Hf  Hf6  1  0.25818199  0.25818199  0.22545401  1
  Be  Be7  1  0.25426698  0.71282498  0.77864101  1
  Bi  Bi8  1  0.25426699  0.25426699  0.77864100  1
  Pa  Pa9  1  0.71282497  0.25426699  0.77864101  1
  Sn  Sn10  1  0.74181796  0.74181798  0.77454602  1
  U  U11  1  0.74573297  0.28717499  0.22135901  1
  As  As12  1  0.74573296  0.74573298  0.22135902  1
  C  C13  1  0.28717498  0.74573298  0.22135902  1
