# generated using pymatgen
data_LaBeVCdCuSi2AgGeMoHS2INe
_symmetry_space_group_name_H-M   'P 1'
_cell_length_a   5.53153419
_cell_length_b   5.53153419
_cell_length_c   6.06687689
_cell_angle_alpha   62.87843704
_cell_angle_beta   62.87843704
_cell_angle_gamma   59.99999619
_symmetry_Int_Tables_number   1
_chemical_formula_structural   LaBeVCdCuSi2AgGeMoHS2INe
_chemical_formula_sum
'La1 Be1 V1 Cd1 Cu1 Si2 Ag1 Ge1 Mo1 H1 S2 I1 Ne1'
_cell_volume   136.68646786
_cell_formula_units_Z   1
loop_
 _symmetry_equiv_pos_site_id
 _symmetry_equiv_pos_as_xyz
  1  'x, y, z'
loop_
 _atom_site_type_symbol
 _atom_site_label
 _atom_site_symmetry_multiplicity
 _atom_site_fract_x
 _atom_site_fract_y
 _atom_site_fract_z
 _atom_site_occupancy
  S  S0  1  0.50511200  0.23458900  0.36074404  1
  Mo  Mo1  1  0.23458898  0.89955501  0.36074406  1
  I  I2  1  0.89955499  0.50511201  0.36074406  1
  Cd  Cd3  1  0.49488798  0.76541101  0.63925607  1
  La  La4  1  0.76541100  0.10044500  0.63925605  1
  V  V5  1  0.10044499  0.49488801  0.63925605  1
  Ne  Ne6  1  0.65533599  0.65533601  0.03399205  1
  Ge  Ge7  1  0.34466399  0.34466400  0.96600806  1
  Cu  Cu8  1  0.00000000  0.00000000  0.00000000  1
  Si  Si9  1  0.76489999  0.38461601  0.75670207  1
  Si  Si10  1  0.61538398  0.90621801  0.24329807  1
  Be  Be11  1  0.90621800  0.23510000  0.24329805  1
  Ag  Ag12  1  0.23509998  0.61538401  0.24329804  1
  H  H13  1  0.38461600  0.09378200  0.75670205  1
  S  S14  1  0.09378198  0.76490001  0.75670206  1
