# generated using pymatgen
data_RbLaSnBiNF
_symmetry_space_group_name_H-M   'P 1'
_cell_length_a   4.14153814
_cell_length_b   4.14153814
_cell_length_c   8.50837994
_cell_angle_alpha   104.08611298
_cell_angle_beta   104.08611298
_cell_angle_gamma   90.00000000
_symmetry_Int_Tables_number   1
_chemical_formula_structural   RbLaSnBiNF
_chemical_formula_sum   'Rb1 La1 Sn1 Bi1 N1 F1'
_cell_volume   137.02169940
_cell_formula_units_Z   1
loop_
 _symmetry_equiv_pos_site_id
 _symmetry_equiv_pos_as_xyz
  1  'x, y, z'
loop_
 _atom_site_type_symbol
 _atom_site_label
 _atom_site_symmetry_multiplicity
 _atom_site_fract_x
 _atom_site_fract_y
 _atom_site_fract_z
 _atom_site_occupancy
  F  F0  1  -0.00000000  0.49999998  0.99999996  1
  La  La1  1  0.49999997  0.99999996  0.99999995  1
  Rb  Rb2  1  0.67750297  0.67750297  0.35500598  1
  N  N3  1  0.32249698  0.32249699  0.64499397  1
  Sn  Sn4  1  0.86160596  0.86160597  0.72321196  1
  Bi  Bi5  1  0.13839399  0.13839399  0.27678799  1
