# generated using pymatgen
data_CaTmPuHfNpMnCuIrOsO
_symmetry_space_group_name_H-M   'P 1'
_cell_length_a   6.86239338
_cell_length_b   6.86239338
_cell_length_c   6.86239338
_cell_angle_alpha   60.00000000
_cell_angle_beta   60.00000000
_cell_angle_gamma   60.00000000
_symmetry_Int_Tables_number   1
_chemical_formula_structural   CaTmPuHfNpMnCuIrOsO
_chemical_formula_sum   'Ca1 Tm1 Pu1 Hf1 Np1 Mn1 Cu1 Os1 Ir1 O1'
_cell_volume   228.51348403
_cell_formula_units_Z   1
loop_
 _symmetry_equiv_pos_site_id
 _symmetry_equiv_pos_as_xyz
  1  'x, y, z'
loop_
 _atom_site_type_symbol
 _atom_site_label
 _atom_site_symmetry_multiplicity
 _atom_site_fract_x
 _atom_site_fract_y
 _atom_site_fract_z
 _atom_site_occupancy
  Mn  Mn0  1  0.75000002  0.75000002  0.75000002  1
  Os  Os1  1  0.25000001  0.25000001  0.25000001  1
  Ir  Ir2  1  0.00000000  0.00000000  0.00000000  1
  Tm  Tm3  1  0.50000001  0.50000001  0.50000001  1
  Ca  Ca4  1  0.19510000  0.19510000  0.80490002  1
  Hf  Hf5  1  0.80490002  0.19510000  0.80490002  1
  Cu  Cu6  1  0.80490002  0.80490002  0.19510000  1
  Pu  Pu7  1  0.19510000  0.80490002  0.80490002  1
  Np  Np8  1  0.80490002  0.19510000  0.19510000  1
  O  O9  1  0.19510000  0.80490002  0.19510000  1
