# generated using pymatgen
data_TbNdPuScCu2ReAgHgOsRuPtRhS
_symmetry_space_group_name_H-M   'P 1'
_cell_length_a   6.71340418
_cell_length_b   6.71340418
_cell_length_c   7.43582106
_cell_angle_alpha   63.16496658
_cell_angle_beta   63.16496658
_cell_angle_gamma   59.99999619
_symmetry_Int_Tables_number   1
_chemical_formula_structural   TbNdPuScCu2ReAgHgOsRuPtRhS
_chemical_formula_sum
'Tb1 Nd1 Pu1 Sc1 Cu2 Re1 Ag1 Hg1 Os1 Ru1 Pt1 Rh1 S1'
_cell_volume   247.68353634
_cell_formula_units_Z   1
loop_
 _symmetry_equiv_pos_site_id
 _symmetry_equiv_pos_as_xyz
  1  'x, y, z'
loop_
 _atom_site_type_symbol
 _atom_site_label
 _atom_site_symmetry_multiplicity
 _atom_site_fract_x
 _atom_site_fract_y
 _atom_site_fract_z
 _atom_site_occupancy
  Hg  Hg0  1  0.83340297  0.83340302  0.49979104  1
  Cu  Cu1  1  0.16659699  0.16659700  0.50020901  1
  Pu  Pu2  1  0.95796999  0.28714901  0.13231403  1
  Pt  Pt3  1  0.28714898  0.62256701  0.13231403  1
  Cu  Cu4  1  0.62256697  0.95797002  0.13231404  1
  Sc  Sc5  1  0.37743300  0.04203000  0.86768600  1
  Os  Os6  1  0.71285099  0.37743301  0.86768602  1
  Rh  Rh7  1  0.04202997  0.71285101  0.86768602  1
  Re  Re8  1  0.75038300  0.08300600  0.74891601  1
  Tb  Tb9  1  0.41769497  0.75038301  0.74891603  1
  Ru  Ru10  1  0.08300598  0.41769501  0.74891601  1
  Ag  Ag11  1  0.91699398  0.58230501  0.25108404  1
  Nd  Nd12  1  0.58230499  0.24961700  0.25108402  1
  S  S13  1  0.24961697  0.91699402  0.25108403  1
