# generated using pymatgen
data_HeAcNeCaHfThFeReBiRu
_symmetry_space_group_name_H-M   'P 1'
_cell_length_a   8.50677013
_cell_length_b   8.50677013
_cell_length_c   8.50677013
_cell_angle_alpha   60.00000000
_cell_angle_beta   60.00000000
_cell_angle_gamma   60.00000000
_symmetry_Int_Tables_number   1
_chemical_formula_structural   HeAcNeCaHfThFeReBiRu
_chemical_formula_sum   'He1 Ac1 Ne1 Ca1 Th1 Hf1 Fe1 Re1 Bi1 Ru1'
_cell_volume   435.29040593
_cell_formula_units_Z   1
loop_
 _symmetry_equiv_pos_site_id
 _symmetry_equiv_pos_as_xyz
  1  'x, y, z'
loop_
 _atom_site_type_symbol
 _atom_site_label
 _atom_site_symmetry_multiplicity
 _atom_site_fract_x
 _atom_site_fract_y
 _atom_site_fract_z
 _atom_site_occupancy
  He  He0  1  0.25000001  0.25000001  0.25000001  1
  Ac  Ac1  1  0.75000002  0.75000002  0.75000002  1
  Ne  Ne2  1  0.50000001  0.50000001  0.50000001  1
  Th  Th3  1  0.00000000  0.00000000  0.00000000  1
  Ca  Ca4  1  0.24008501  0.75991502  0.24008501  1
  Ru  Ru5  1  0.24008501  0.24008501  0.75991502  1
  Re  Re6  1  0.75991502  0.24008501  0.75991502  1
  Bi  Bi7  1  0.24008501  0.75991502  0.75991502  1
  Fe  Fe8  1  0.75991502  0.24008501  0.24008501  1
  Hf  Hf9  1  0.75991502  0.75991502  0.24008501  1
