# generated using pymatgen
data_CsGdNp3Tl2CrCuAgGeP2Ru
_symmetry_space_group_name_H-M   'P 1'
_cell_length_a   5.06085300
_cell_length_b   6.64972067
_cell_length_c   6.64972067
_cell_angle_alpha   101.23802948
_cell_angle_beta   90.00000000
_cell_angle_gamma   90.00000000
_symmetry_Int_Tables_number   1
_chemical_formula_structural   CsGdNp3Tl2CrCuAgGeP2Ru
_chemical_formula_sum   'Cs1 Gd1 Np3 Tl2 Cr1 Cu1 Ag1 Ge1 P2 Ru1'
_cell_volume   219.49392567
_cell_formula_units_Z   1
loop_
 _symmetry_equiv_pos_site_id
 _symmetry_equiv_pos_as_xyz
  1  'x, y, z'
loop_
 _atom_site_type_symbol
 _atom_site_label
 _atom_site_symmetry_multiplicity
 _atom_site_fract_x
 _atom_site_fract_y
 _atom_site_fract_z
 _atom_site_occupancy
  P  P0  1  0.75000000  0.83049000  0.59556697  1
  Ag  Ag1  1  0.25000000  0.10677800  0.89322200  1
  Tl  Tl2  1  0.25000000  0.59556700  0.83048998  1
  Np  Np3  1  0.75000000  0.89322200  0.10677796  1
  Cs  Cs4  1  0.25000000  0.16951000  0.40443300  1
  Cr  Cr5  1  0.75000000  0.40443300  0.16950998  1
  Ru  Ru6  1  0.25000000  0.69579500  0.30420497  1
  P  P7  1  0.75000000  0.30420500  0.69579499  1
  Gd  Gd8  1  0.25000000  0.81801000  0.56568597  1
  Tl  Tl9  1  0.75000000  0.12697800  0.87302200  1
  Ge  Ge10  1  0.25000000  0.87302200  0.12697796  1
  Cu  Cu11  1  0.75000000  0.56568600  0.81800998  1
  Np  Np12  1  0.75000000  0.18199000  0.43431400  1
  Np  Np13  1  0.25000000  0.43431400  0.18198998  1
