# generated using pymatgen
data_CaEuHoTmMgNbVFeNiSbIrPdPtAu
_symmetry_space_group_name_H-M   'P 1'
_cell_length_a   5.96416283
_cell_length_b   5.96416283
_cell_length_c   5.96416187
_cell_angle_alpha   60.21615982
_cell_angle_beta   60.21615982
_cell_angle_gamma   60.21615601
_symmetry_Int_Tables_number   1
_chemical_formula_structural   CaEuHoTmMgNbVFeNiSbIrPdPtAu
_chemical_formula_sum
'Ca1 Eu1 Ho1 Tm1 Mg1 Nb1 V1 Fe1 Ni1 Sb1 Pd1 Ir1 Pt1 Au1'
_cell_volume   150.74874934
_cell_formula_units_Z   1
loop_
 _symmetry_equiv_pos_site_id
 _symmetry_equiv_pos_as_xyz
  1  'x, y, z'
loop_
 _atom_site_type_symbol
 _atom_site_label
 _atom_site_symmetry_multiplicity
 _atom_site_fract_x
 _atom_site_fract_y
 _atom_site_fract_z
 _atom_site_occupancy
  Sb  Sb0  1  0.37437498  0.37437498  0.37437503  1
  Tm  Tm1  1  0.75419596  0.75419596  0.75419607  1
  V  V2  1  0.86800195  0.37670398  0.37670405  1
  Ni  Ni3  1  0.37670398  0.86800196  0.37670405  1
  Pd  Pd4  1  0.37670398  0.37670398  0.86800205  1
  Ca  Ca5  1  0.99231794  0.99231795  0.99231809  1
  Mg  Mg6  1  0.13298399  0.13298399  0.13298401  1
  Fe  Fe7  1  0.58745497  0.12831099  0.12831102  1
  Pt  Pt8  1  0.12831099  0.58745497  0.12831102  1
  Nb  Nb9  1  0.12831099  0.12831099  0.58745503  1
  Ho  Ho10  1  0.61542397  0.61542397  0.61542406  1
  Au  Au11  1  0.16735899  0.62392797  0.62392805  1
  Eu  Eu12  1  0.62392797  0.16735899  0.62392805  1
  Ir  Ir13  1  0.62392797  0.62392797  0.16735904  1
