# generated using pymatgen
data_CaYb2CeSmHoThBeInGaReB2AsRhCSN
_symmetry_space_group_name_H-M   'P 1'
_cell_length_a   5.70572186
_cell_length_b   5.71073771
_cell_length_c   8.67682552
_cell_angle_alpha   71.67221832
_cell_angle_beta   80.66237640
_cell_angle_gamma   68.22671509
_symmetry_Int_Tables_number   1
_chemical_formula_structural   CaYb2CeSmHoThBeInGaReB2AsRhCSN
_chemical_formula_sum
'Ca1 Yb2 Ce1 Sm1 Ho1 Th1 Be1 In1 Ga1 Re1 B2 As1 Rh1 C1 S1 N1'
_cell_volume   248.90235971
_cell_formula_units_Z   1
loop_
 _symmetry_equiv_pos_site_id
 _symmetry_equiv_pos_as_xyz
  1  'x, y, z'
loop_
 _atom_site_type_symbol
 _atom_site_label
 _atom_site_symmetry_multiplicity
 _atom_site_fract_x
 _atom_site_fract_y
 _atom_site_fract_z
 _atom_site_occupancy
  Th  Th0  1  0.76567602  0.02053600  0.92765407  1
  Sm  Sm1  1  0.25695103  0.54979298  0.89803604  1
  C  C2  1  0.23432406  0.97946396  0.07234598  1
  Yb  Yb3  1  0.74304904  0.45020698  0.10196401  1
  B  B4  1  0.75091306  0.90500896  0.32091701  1
  Ga  Ga5  1  0.24646804  0.74004997  0.48293601  1
  Rh  Rh6  1  0.75353203  0.25994999  0.51706404  1
  Ho  Ho7  1  0.24908701  0.09499100  0.67908304  1
  Yb  Yb8  1  0.21864802  0.34896899  0.25542201  1
  N  N9  1  0.78135205  0.65103097  0.74457804  1
  Re  Re10  1  0.52347605  0.79254397  0.88414204  1
  Ca  Ca11  1  0.97840904  0.33156699  0.86083306  1
  Ce  Ce12  1  0.02159104  0.66843297  0.13916699  1
  B  B13  1  0.47652402  0.20745599  0.11585801  1
  As  As14  1  0.02464301  0.13494599  0.30340501  1
  S  S15  1  0.35649703  0.34184599  0.42925602  1
  Be  Be16  1  0.97535707  0.86505397  0.69659504  1
  In  In17  1  0.64350305  0.65815397  0.57074403  1
