# generated using pymatgen
data_ThTaTiCrGaBr
_symmetry_space_group_name_H-M   'P 1'
_cell_length_a   4.46055984
_cell_length_b   4.46056080
_cell_length_c   5.76799488
_cell_angle_alpha   90.00000000
_cell_angle_beta   90.00000000
_cell_angle_gamma   119.99999237
_symmetry_Int_Tables_number   1
_chemical_formula_structural   ThTaTiCrGaBr
_chemical_formula_sum   'Th1 Ta1 Ti1 Cr1 Ga1 Br1'
_cell_volume   99.38809469
_cell_formula_units_Z   1
loop_
 _symmetry_equiv_pos_site_id
 _symmetry_equiv_pos_as_xyz
  1  'x, y, z'
loop_
 _atom_site_type_symbol
 _atom_site_label
 _atom_site_symmetry_multiplicity
 _atom_site_fract_x
 _atom_site_fract_y
 _atom_site_fract_z
 _atom_site_occupancy
  Ti  Ti0  1  0.00000000  0.00000000  0.00000000  1
  Th  Th1  1  0.00000000  0.00000000  0.50000001  1
  Cr  Cr2  1  0.66666667  0.33333331  0.75000002  1
  Ga  Ga3  1  0.33333331  0.66666662  0.25000001  1
  Br  Br4  1  0.66666667  0.33333331  0.25000001  1
  Ta  Ta5  1  0.33333331  0.66666662  0.75000002  1
