# generated using pymatgen
data_TbYbErHfAlIn2SbAsPtCN
_symmetry_space_group_name_H-M   'P 1'
_cell_length_a   3.44177699
_cell_length_b   5.74261713
_cell_length_c   8.87062263
_cell_angle_alpha   90.00000000
_cell_angle_beta   90.00000000
_cell_angle_gamma   90.00000000
_symmetry_Int_Tables_number   1
_chemical_formula_structural   TbYbErHfAlIn2SbAsPtCN
_chemical_formula_sum   'Tb1 Yb1 Er1 Hf1 Al1 In2 Sb1 As1 Pt1 C1 N1'
_cell_volume   175.32614884
_cell_formula_units_Z   1
loop_
 _symmetry_equiv_pos_site_id
 _symmetry_equiv_pos_as_xyz
  1  'x, y, z'
loop_
 _atom_site_type_symbol
 _atom_site_label
 _atom_site_symmetry_multiplicity
 _atom_site_fract_x
 _atom_site_fract_y
 _atom_site_fract_z
 _atom_site_occupancy
  N  N0  1  0.25000000  0.06720400  0.66295603  1
  Tb  Tb1  1  0.25000000  0.43279599  0.16295601  1
  C  C2  1  0.75000000  0.93279598  0.33704401  1
  Sb  Sb3  1  0.75000000  0.56720399  0.83704403  1
  Hf  Hf4  1  0.25000000  0.61168899  0.55085102  1
  Al  Al5  1  0.25000000  0.88831098  0.05085100  1
  In  In6  1  0.75000000  0.38831099  0.44914902  1
  Yb  Yb7  1  0.75000000  0.11168900  0.94914904  1
  As  As8  1  0.25000000  0.19443600  0.93055804  1
  Er  Er9  1  0.25000000  0.30556399  0.43055802  1
  Pt  Pt10  1  0.75000000  0.80556398  0.06944200  1
  In  In11  1  0.75000000  0.69443598  0.56944202  1
