# generated using pymatgen
data_TbNd2GdPuHfZrPaTaMnNb2SiBiTePRu2O
_symmetry_space_group_name_H-M   'P 1'
_cell_length_a   6.93098593
_cell_length_b   6.93098593
_cell_length_c   6.93098688
_cell_angle_alpha   98.68650055
_cell_angle_beta   98.68650055
_cell_angle_gamma   98.68650818
_symmetry_Int_Tables_number   1
_chemical_formula_structural   TbNd2GdPuHfZrPaTaMnNb2SiBiTePRu2O
_chemical_formula_sum
'Tb1 Nd2 Gd1 Pu1 Hf1 Zr1 Ta1 Pa1 Mn1 Nb2 Si1 Bi1 Te1 P1 Ru2 O1'
_cell_volume   320.17048805
_cell_formula_units_Z   1
loop_
 _symmetry_equiv_pos_site_id
 _symmetry_equiv_pos_as_xyz
  1  'x, y, z'
loop_
 _atom_site_type_symbol
 _atom_site_label
 _atom_site_symmetry_multiplicity
 _atom_site_fract_x
 _atom_site_fract_y
 _atom_site_fract_z
 _atom_site_occupancy
  Tb  Tb0  1  0.39405104  0.68923102  0.85583795  1
  Si  Si1  1  0.85583804  0.39405101  0.68923095  1
  Gd  Gd2  1  0.14416203  0.60594902  0.31076897  1
  Nd  Nd3  1  0.60594903  0.31076901  0.14416196  1
  P  P4  1  0.31076901  0.14416200  0.60594898  1
  Ru  Ru5  1  0.68923105  0.85583803  0.39405094  1
  Nb  Nb6  1  0.00000000  0.00000000  0.00000000  1
  Nd  Nd7  1  0.82275904  0.56337902  0.40739594  1
  Nb  Nb8  1  0.29523001  0.07079200  0.95582898  1
  O  O9  1  0.40739604  0.82275903  0.56337895  1
  Bi  Bi10  1  0.59260402  0.17724101  0.43662097  1
  Ta  Ta11  1  0.17724102  0.43662101  0.59260397  1
  Hf  Hf12  1  0.56337903  0.40739601  0.82275896  1
  Pa  Pa13  1  0.43662103  0.59260402  0.17724096  1
  Zr  Zr14  1  0.92920803  0.04417100  0.70476996  1
  Mn  Mn15  1  0.07079204  0.95582903  0.29522996  1
  Te  Te16  1  0.95582904  0.29523001  0.07079195  1
  Pu  Pu17  1  0.70477005  0.92920803  0.04417094  1
  Ru  Ru18  1  0.04417103  0.70477002  0.92920797  1
