# generated using pymatgen
data_UNbVGaFeSnTe2MoAsRuRh
_symmetry_space_group_name_H-M   'P 1'
_cell_length_a   3.07076192
_cell_length_b   4.99140215
_cell_length_c   9.73974705
_cell_angle_alpha   90.00006104
_cell_angle_beta   90.00000000
_cell_angle_gamma   90.00000000
_symmetry_Int_Tables_number   1
_chemical_formula_structural   UNbVGaFeSnTe2MoAsRuRh
_chemical_formula_sum   'U1 Nb1 V1 Ga1 Fe1 Sn1 Te2 Mo1 As1 Ru1 Rh1'
_cell_volume   149.28507333
_cell_formula_units_Z   1
loop_
 _symmetry_equiv_pos_site_id
 _symmetry_equiv_pos_as_xyz
  1  'x, y, z'
loop_
 _atom_site_type_symbol
 _atom_site_label
 _atom_site_symmetry_multiplicity
 _atom_site_fract_x
 _atom_site_fract_y
 _atom_site_fract_z
 _atom_site_occupancy
  Mo  Mo0  1  0.75000002  0.47593799  0.34327299  1
  Ga  Ga1  1  0.75000002  0.02406200  0.84327500  1
  Te  Te2  1  0.25000001  0.97591297  0.15669797  1
  U  U3  1  0.24999901  0.52408598  0.65669998  1
  Ru  Ru4  1  0.75000002  0.16922699  0.22839399  1
  Te  Te5  1  0.25000001  0.66924298  0.27161398  1
  Fe  Fe6  1  0.75000002  0.33077199  0.72839399  1
  Nb  Nb7  1  0.25000001  0.83075798  0.77161398  1
  V  V8  1  0.75000002  0.80690098  0.03201198  1
  As  As9  1  0.25000001  0.30691199  0.46800599  1
  Sn  Sn10  1  0.75000002  0.69309998  0.53201198  1
  Rh  Rh11  1  0.25000001  0.19308999  0.96800599  1
