# generated using pymatgen
data_Li2Ac2LaNdEuLuPaCuHgWClO
_symmetry_space_group_name_H-M   'P 1'
_cell_length_a   3.95383906
_cell_length_b   3.95383906
_cell_length_c   11.74808979
_cell_angle_alpha   90.00000000
_cell_angle_beta   90.00000000
_cell_angle_gamma   90.00000000
_symmetry_Int_Tables_number   1
_chemical_formula_structural   Li2Ac2LaNdEuLuPaCuHgWClO
_chemical_formula_sum
'Li2 Ac2 La1 Nd1 Eu1 Lu1 Pa1 Cu1 Hg1 W1 Cl1 O1'
_cell_volume   183.65604725
_cell_formula_units_Z   1
loop_
 _symmetry_equiv_pos_site_id
 _symmetry_equiv_pos_as_xyz
  1  'x, y, z'
loop_
 _atom_site_type_symbol
 _atom_site_label
 _atom_site_symmetry_multiplicity
 _atom_site_fract_x
 _atom_site_fract_y
 _atom_site_fract_z
 _atom_site_occupancy
  Cu  Cu0  1  0.49999999  0.49999999  0.19913800  1
  W  W1  1  0.49999999  0.49999999  0.80086201  1
  Li  Li2  1  0.49999999  0.49999999  0.50000001  1
  Cl  Cl3  1  0.00000000  0.00000000  0.00000000  1
  Ac  Ac4  1  0.00000000  0.00000000  0.35700701  1
  Nd  Nd5  1  0.00000000  0.00000000  0.64299301  1
  O  O6  1  0.00000000  0.00000000  0.16841300  1
  Li  Li7  1  0.00000000  0.00000000  0.83158701  1
  Hg  Hg8  1  0.00000000  0.49999999  0.00000000  1
  Eu  Eu9  1  0.49999999  0.00000000  0.00000000  1
  La  La10  1  0.00000000  0.49999999  0.36868301  1
  Ac  Ac11  1  0.00000000  0.49999999  0.63131701  1
  Lu  Lu12  1  0.49999999  0.00000000  0.36868301  1
  Pa  Pa13  1  0.49999999  0.00000000  0.63131701  1
