# generated using pymatgen
data_KPmNdSmLuMnSi
_symmetry_space_group_name_H-M   'P 1'
_cell_length_a   3.96301508
_cell_length_b   3.96301508
_cell_length_c   7.11801386
_cell_angle_alpha   90.00000000
_cell_angle_beta   90.00000000
_cell_angle_gamma   90.00000000
_symmetry_Int_Tables_number   1
_chemical_formula_structural   KPmNdSmLuMnSi
_chemical_formula_sum   'K1 Pm1 Nd1 Sm1 Lu1 Mn1 Si1'
_cell_volume   111.79188495
_cell_formula_units_Z   1
loop_
 _symmetry_equiv_pos_site_id
 _symmetry_equiv_pos_as_xyz
  1  'x, y, z'
loop_
 _atom_site_type_symbol
 _atom_site_label
 _atom_site_symmetry_multiplicity
 _atom_site_fract_x
 _atom_site_fract_y
 _atom_site_fract_z
 _atom_site_occupancy
  Lu  Lu0  1  0.49999999  0.49999999  0.00000000  1
  Nd  Nd1  1  0.00000000  0.00000000  0.50000001  1
  Mn  Mn2  1  0.00000000  0.00000000  0.00000000  1
  K  K3  1  0.49999999  0.00000000  0.70299401  1
  Si  Si4  1  -0.00000000  0.49999999  0.70299401  1
  Sm  Sm5  1  0.49999999  0.00000000  0.29700601  1
  Pm  Pm6  1  -0.00000000  0.49999999  0.29700601  1
