# generated using pymatgen
data_PrPuHfZrCrCuGeTePt
_symmetry_space_group_name_H-M   'P 1'
_cell_length_a   4.99743605
_cell_length_b   4.99743652
_cell_length_c   5.30831480
_cell_angle_alpha   90.00000000
_cell_angle_beta   90.00000000
_cell_angle_gamma   120.00000000
_symmetry_Int_Tables_number   1
_chemical_formula_structural   PrPuHfZrCrCuGeTePt
_chemical_formula_sum   'Pr1 Pu1 Hf1 Zr1 Cr1 Cu1 Ge1 Te1 Pt1'
_cell_volume   114.81055947
_cell_formula_units_Z   1
loop_
 _symmetry_equiv_pos_site_id
 _symmetry_equiv_pos_as_xyz
  1  'x, y, z'
loop_
 _atom_site_type_symbol
 _atom_site_label
 _atom_site_symmetry_multiplicity
 _atom_site_fract_x
 _atom_site_fract_y
 _atom_site_fract_z
 _atom_site_occupancy
  Ge  Ge0  1  0.66666668  0.33333333  -0.00000000  1
  Pt  Pt1  1  0.33333337  0.66666667  0.50000002  1
  Zr  Zr2  1  0.00000000  0.00000000  0.50000002  1
  Cr  Cr3  1  0.66389503  0.70644400  0.29903001  1
  Cu  Cu4  1  0.04254904  0.70644400  0.70097003  1
  Te  Te5  1  0.66389505  0.95745100  0.70097003  1
  Pu  Pu6  1  0.29355602  0.33610500  0.70097003  1
  Hf  Hf7  1  0.04254902  0.33610500  0.29903001  1
  Pr  Pr8  1  0.29355605  0.95745100  0.29903001  1
