# generated using pymatgen
data_KSrAcPmNpTlSnSbOsI
_symmetry_space_group_name_H-M   'P 1'
_cell_length_a   5.30378819
_cell_length_b   5.30378819
_cell_length_c   6.20107269
_cell_angle_alpha   115.31856537
_cell_angle_beta   115.31856537
_cell_angle_gamma   90.00000000
_symmetry_Int_Tables_number   1
_chemical_formula_structural   KSrAcPmNpTlSnSbOsI
_chemical_formula_sum   'K1 Sr1 Ac1 Pm1 Np1 Tl1 Sn1 Sb1 Os1 I1'
_cell_volume   138.91924728
_cell_formula_units_Z   1
loop_
 _symmetry_equiv_pos_site_id
 _symmetry_equiv_pos_as_xyz
  1  'x, y, z'
loop_
 _atom_site_type_symbol
 _atom_site_label
 _atom_site_symmetry_multiplicity
 _atom_site_fract_x
 _atom_site_fract_y
 _atom_site_fract_z
 _atom_site_occupancy
  Sn  Sn0  1  0.80056888  0.80056893  0.60113787  1
  I  I1  1  0.26832196  0.26832198  0.53664396  1
  Sr  Sr2  1  0.99971789  0.49971796  0.99943589  1
  Pm  Pm3  1  0.49971789  0.99971792  0.99943588  1
  K  K4  1  0.07558899  0.07558899  0.15117799  1
  Sb  Sb5  1  0.61946091  0.61946095  0.23892190  1
  Os  Os6  1  0.61280891  0.61280895  0.72380691  1
  Ac  Ac7  1  0.61280895  0.11099799  0.72380695  1
  Tl  Tl8  1  0.11099798  0.11099799  0.72380699  1
  Np  Np9  1  0.11099794  0.61280895  0.72380694  1
