# generated using pymatgen
data_TbGdYHoHfMgPaMnNbCdNiGeSbHIrRu2F
_symmetry_space_group_name_H-M   'P 1'
_cell_length_a   4.29039001
_cell_length_b   4.29039001
_cell_length_c   22.29260635
_cell_angle_alpha   90.00000000
_cell_angle_beta   90.00000000
_cell_angle_gamma   120.00000000
_symmetry_Int_Tables_number   1
_chemical_formula_structural   TbGdYHoHfMgPaMnNbCdNiGeSbHIrRu2F
_chemical_formula_sum
'Tb1 Gd1 Y1 Ho1 Hf1 Mg1 Pa1 Mn1 Nb1 Cd1 Ni1 Ge1 Sb1 Ir1 Ru2 H1 F1'
_cell_volume   355.37348834
_cell_formula_units_Z   1
loop_
 _symmetry_equiv_pos_site_id
 _symmetry_equiv_pos_as_xyz
  1  'x, y, z'
loop_
 _atom_site_type_symbol
 _atom_site_label
 _atom_site_symmetry_multiplicity
 _atom_site_fract_x
 _atom_site_fract_y
 _atom_site_fract_z
 _atom_site_occupancy
  Sb  Sb0  1  0.66666668  0.33333336  0.74356602  1
  Mn  Mn1  1  0.66666668  0.33333336  0.41091701  1
  Ir  Ir2  1  0.66666668  0.33333336  0.07800100  1
  Gd  Gd3  1  0.66666668  0.33333336  0.92103303  1
  Hf  Hf4  1  0.66666668  0.33333336  0.58731802  1
  Ru  Ru5  1  0.66666668  0.33333336  0.25505001  1
  Nb  Nb6  1  0.00000000  0.00000000  0.66159302  1
  Ge  Ge7  1  0.00000000  0.00000000  0.32885901  1
  Ho  Ho8  1  0.00000000  0.00000000  0.84542402  1
  Ni  Ni9  1  0.00000000  0.00000000  0.51272201  1
  Ru  Ru10  1  0.00000000  0.00000000  0.18058001  1
  Cd  Cd11  1  0.33333336  0.66666671  0.81858402  1
  Pa  Pa12  1  0.33333336  0.66666671  0.48640801  1
  Y  Y13  1  0.33333336  0.66666671  0.15455600  1
  Mg  Mg14  1  0.33333336  0.66666671  0.67359102  1
  H  H15  1  0.33333336  0.66666671  0.34137401  1
  F  F16  1  0.33333336  0.66666671  0.00525000  1
  Tb  Tb17  1  0.00000000  0.00000000  0.99517703  1
