# generated using pymatgen
data_KEuLuZrTiFeGeMoPdPt
_symmetry_space_group_name_H-M   'P 1'
_cell_length_a   6.89233303
_cell_length_b   7.87824011
_cell_length_c   8.64799213
_cell_angle_alpha   62.90319061
_cell_angle_beta   90.00000000
_cell_angle_gamma   90.00000000
_symmetry_Int_Tables_number   1
_chemical_formula_structural   KEuLuZrTiFeGeMoPdPt
_chemical_formula_sum   'K1 Eu1 Lu1 Zr1 Ti1 Fe1 Ge1 Mo1 Pd1 Pt1'
_cell_volume   418.03915814
_cell_formula_units_Z   1
loop_
 _symmetry_equiv_pos_site_id
 _symmetry_equiv_pos_as_xyz
  1  'x, y, z'
loop_
 _atom_site_type_symbol
 _atom_site_label
 _atom_site_symmetry_multiplicity
 _atom_site_fract_x
 _atom_site_fract_y
 _atom_site_fract_z
 _atom_site_occupancy
  Mo  Mo0  1  0.25000000  0.58880900  0.82238201  1
  Fe  Fe1  1  0.75000000  0.41119100  0.17761800  1
  Zr  Zr2  1  0.25000000  0.20196300  0.59607401  1
  Pd  Pd3  1  0.75000000  0.79803700  0.40392599  1
  Ti  Ti4  1  0.25000000  0.07797300  0.19986200  1
  Eu  Eu5  1  0.75000000  0.27783500  0.80013802  1
  Ge  Ge6  1  0.75000000  0.92202700  0.80013800  1
  Lu  Lu7  1  0.25000000  0.72216500  0.19986199  1
  K  K8  1  0.00000000  0.00000000  0.00000000  1
  Pt  Pt9  1  0.50000000  0.00000000  0.00000000  1
