# generated using pymatgen
data_KTbGdHfPaBeInAg2TePbXeNePt
_symmetry_space_group_name_H-M   'P 1'
_cell_length_a   5.39578247
_cell_length_b   5.39578247
_cell_length_c   7.43993664
_cell_angle_alpha   79.78317261
_cell_angle_beta   79.78317261
_cell_angle_gamma   69.68549347
_symmetry_Int_Tables_number   1
_chemical_formula_structural   KTbGdHfPaBeInAg2TePbXeNePt
_chemical_formula_sum
'K1 Tb1 Gd1 Hf1 Pa1 Be1 In1 Ag2 Te1 Pb1 Xe1 Ne1 Pt1'
_cell_volume   198.33617846
_cell_formula_units_Z   1
loop_
 _symmetry_equiv_pos_site_id
 _symmetry_equiv_pos_as_xyz
  1  'x, y, z'
loop_
 _atom_site_type_symbol
 _atom_site_label
 _atom_site_symmetry_multiplicity
 _atom_site_fract_x
 _atom_site_fract_y
 _atom_site_fract_z
 _atom_site_occupancy
  Te  Te0  1  0.50647606  0.84056600  0.32494002  1
  Xe  Xe1  1  0.83536903  0.16463100  0.50000002  1
  Gd  Gd2  1  0.00234706  0.99765300  0.00000001  1
  Be  Be3  1  0.15943403  0.49352400  0.67506001  1
  Ne  Ne4  1  0.45890403  0.26921100  0.96829501  1
  K  K5  1  0.73078905  0.54109600  0.03170502  1
  Ag  Ag6  1  0.21378403  0.49040000  0.21655001  1
  Tb  Tb7  1  0.50960006  0.78621600  0.78345002  1
  Pa  Pa8  1  0.49324803  0.37157400  0.21280301  1
  Hf  Hf9  1  0.62842605  0.50675200  0.78719702  1
  In  In10  1  0.06300304  0.67556700  0.33380801  1
  Pt  Pt11  1  0.57785807  0.90487300  0.91347002  1
  Pb  Pb12  1  0.09512703  0.42214200  0.08653001  1
  Ag  Ag13  1  0.32443306  0.93699700  0.66619202  1
