# generated using pymatgen
data_TbY2TmTaCrReHgGeMoHIrPdRuXeBr2F
_symmetry_space_group_name_H-M   'P 1'
_cell_length_a   5.96272087
_cell_length_b   6.68901920
_cell_length_c   6.68901920
_cell_angle_alpha   90.00000000
_cell_angle_beta   90.00000000
_cell_angle_gamma   90.00000000
_symmetry_Int_Tables_number   1
_chemical_formula_structural   TbY2TmTaCrReHgGeMoHIrPdRuXeBr2F
_chemical_formula_sum
'Tb1 Y2 Tm1 Ta1 Cr1 Re1 Hg1 Ge1 Mo1 Ru1 Ir1 Pd1 H1 Xe1 Br2 F1'
_cell_volume   266.78988816
_cell_formula_units_Z   1
loop_
 _symmetry_equiv_pos_site_id
 _symmetry_equiv_pos_as_xyz
  1  'x, y, z'
loop_
 _atom_site_type_symbol
 _atom_site_label
 _atom_site_symmetry_multiplicity
 _atom_site_fract_x
 _atom_site_fract_y
 _atom_site_fract_z
 _atom_site_occupancy
  Cr  Cr0  1  0.00000000  0.00000000  0.00000000  1
  Y  Y1  1  -0.00000000  0.49999998  0.49999998  1
  Hg  Hg2  1  0.50000001  0.82450297  0.67549698  1
  Ge  Ge3  1  0.50000001  0.67549698  0.17549699  1
  Ru  Ru4  1  0.50000001  0.32450299  0.82450297  1
  Tb  Tb5  1  0.50000001  0.17549699  0.32450299  1
  F  F6  1  -0.00000000  0.49999998  0.00000000  1
  Br  Br7  1  0.00000000  0.00000000  0.49999998  1
  Y  Y8  1  0.50000001  0.49999998  0.49999998  1
  Mo  Mo9  1  0.50000001  0.00000000  0.00000000  1
  Ta  Ta10  1  0.25805101  0.13994300  0.63994298  1
  Re  Re11  1  0.25805101  0.86005697  0.36005699  1
  Ir  Ir12  1  0.25805101  0.36005699  0.13994300  1
  Pd  Pd13  1  0.25805101  0.63994298  0.86005697  1
  H  H14  1  0.74194902  0.13994300  0.63994298  1
  Tm  Tm15  1  0.74194902  0.63994298  0.86005697  1
  Xe  Xe16  1  0.74194902  0.86005697  0.36005699  1
  Br  Br17  1  0.74194902  0.36005699  0.13994300  1
