# generated using pymatgen
data_EuGdYLuU2Al2CdRe2SnTePHIrPbI
_symmetry_space_group_name_H-M   'P 1'
_cell_length_a   5.99689484
_cell_length_b   6.86452198
_cell_length_c   6.86452198
_cell_angle_alpha   90.00000000
_cell_angle_beta   90.00000000
_cell_angle_gamma   90.00000000
_symmetry_Int_Tables_number   1
_chemical_formula_structural   EuGdYLuU2Al2CdRe2SnTePHIrPbI
_chemical_formula_sum
'Gd1 Eu1 Y1 Lu1 U2 Al2 Cd1 Re2 Sn1 Te1 P1 Ir1 H1 Pb1 I1'
_cell_volume   282.58365164
_cell_formula_units_Z   1
loop_
 _symmetry_equiv_pos_site_id
 _symmetry_equiv_pos_as_xyz
  1  'x, y, z'
loop_
 _atom_site_type_symbol
 _atom_site_label
 _atom_site_symmetry_multiplicity
 _atom_site_fract_x
 _atom_site_fract_y
 _atom_site_fract_z
 _atom_site_occupancy
  Lu  Lu0  1  0.00000000  0.50000000  0.50000000  1
  Cd  Cd1  1  0.00000000  0.00000000  0.00000000  1
  Sn  Sn2  1  0.50000001  0.67367900  0.17367900  1
  Y  Y3  1  0.50000001  0.17367900  0.32632100  1
  Al  Al4  1  0.50000001  0.82632100  0.67367900  1
  Al  Al5  1  0.50000001  0.32632100  0.82632100  1
  U  U6  1  0.00000000  0.00000000  0.50000000  1
  Te  Te7  1  0.00000000  0.50000000  -0.00000000  1
  Pb  Pb8  1  0.50000001  0.50000000  0.50000000  1
  P  P9  1  0.50000001  0.00000000  -0.00000000  1
  I  I10  1  0.25015301  0.14038400  0.64038400  1
  Re  Re11  1  0.25015301  0.85961600  0.35961600  1
  Ir  Ir12  1  0.25015301  0.35961600  0.14038400  1
  Gd  Gd13  1  0.25015301  0.64038400  0.85961600  1
  U  U14  1  0.74984702  0.14038400  0.64038400  1
  Re  Re15  1  0.74984702  0.64038400  0.85961600  1
  Eu  Eu16  1  0.74984702  0.85961600  0.35961600  1
  H  H17  1  0.74984702  0.35961600  0.14038400  1
