# generated using pymatgen
data_AcLaYbPrPaAlCrB
_symmetry_space_group_name_H-M   'P 1'
_cell_length_a   4.29755020
_cell_length_b   4.29755068
_cell_length_c   7.65334606
_cell_angle_alpha   90.00000000
_cell_angle_beta   90.00000000
_cell_angle_gamma   120.00000000
_symmetry_Int_Tables_number   1
_chemical_formula_structural   AcLaYbPrPaAlCrB
_chemical_formula_sum   'Ac1 Yb1 La1 Pr1 Pa1 Al1 Cr1 B1'
_cell_volume   122.41198722
_cell_formula_units_Z   1
loop_
 _symmetry_equiv_pos_site_id
 _symmetry_equiv_pos_as_xyz
  1  'x, y, z'
loop_
 _atom_site_type_symbol
 _atom_site_label
 _atom_site_symmetry_multiplicity
 _atom_site_fract_x
 _atom_site_fract_y
 _atom_site_fract_z
 _atom_site_occupancy
  Ac  Ac0  1  0.00000000  0.00000000  0.50000000  1
  Yb  Yb1  1  0.00000000  0.00000000  0.00000000  1
  Cr  Cr2  1  0.33333337  0.66666666  0.58883800  1
  La  La3  1  0.66666666  0.33333333  0.08883800  1
  Pa  Pa4  1  0.33333337  0.66666666  0.91116199  1
  Al  Al5  1  0.66666666  0.33333333  0.41116200  1
  Pr  Pr6  1  0.33333337  0.66666666  0.25000000  1
  B  B7  1  0.66666666  0.33333333  0.74999999  1
