# generated using pymatgen
data_LaTbYTaMnBeTlCrInReAgBPPt
_symmetry_space_group_name_H-M   'P 1'
_cell_length_a   5.52141380
_cell_length_b   5.52141380
_cell_length_c   11.26954937
_cell_angle_alpha   90.00000000
_cell_angle_beta   90.00000000
_cell_angle_gamma   90.00000000
_symmetry_Int_Tables_number   1
_chemical_formula_structural   LaTbYTaMnBeTlCrInReAgBPPt
_chemical_formula_sum
'Tb1 La1 Y1 Ta1 Mn1 Be1 Tl1 Cr1 In1 Re1 Ag1 B1 P1 Pt1'
_cell_volume   343.56359912
_cell_formula_units_Z   1
loop_
 _symmetry_equiv_pos_site_id
 _symmetry_equiv_pos_as_xyz
  1  'x, y, z'
loop_
 _atom_site_type_symbol
 _atom_site_label
 _atom_site_symmetry_multiplicity
 _atom_site_fract_x
 _atom_site_fract_y
 _atom_site_fract_z
 _atom_site_occupancy
  P  P0  1  -0.00000000  0.50000002  0.25490299  1
  Tb  Tb1  1  0.50000002  0.00000000  0.74509698  1
  La  La2  1  -0.00000000  0.50000002  0.74509698  1
  Mn  Mn3  1  0.50000002  0.00000000  0.25490299  1
  Ag  Ag4  1  0.00000000  0.00000000  0.00000000  1
  Be  Be5  1  0.50000002  0.50000002  0.49999998  1
  Pt  Pt6  1  0.26811201  0.26811201  0.11509300  1
  Cr  Cr7  1  0.73188803  0.73188803  0.11509300  1
  B  B8  1  0.26811201  0.73188803  0.88490697  1
  Y  Y9  1  0.73188803  0.26811201  0.88490697  1
  Tl  Tl10  1  0.23870701  0.23870701  0.61758698  1
  Re  Re11  1  0.76129303  0.76129303  0.61758698  1
  In  In12  1  0.23870701  0.76129303  0.38241299  1
  Ta  Ta13  1  0.76129303  0.23870701  0.38241299  1
