# generated using pymatgen
data_K2LiAcTbZrNbTlCuNiTePPdPb2F
_symmetry_space_group_name_H-M   'P 1'
_cell_length_a   5.97154379
_cell_length_b   8.83605385
_cell_length_c   8.83605385
_cell_angle_alpha   119.70705414
_cell_angle_beta   90.00000000
_cell_angle_gamma   90.00000000
_symmetry_Int_Tables_number   1
_chemical_formula_structural   K2LiAcTbZrNbTlCuNiTePPdPb2F
_chemical_formula_sum
'K2 Li1 Ac1 Tb1 Zr1 Nb1 Tl1 Cu1 Ni1 Te1 P1 Pd1 Pb2 F1'
_cell_volume   404.95653145
_cell_formula_units_Z   1
loop_
 _symmetry_equiv_pos_site_id
 _symmetry_equiv_pos_as_xyz
  1  'x, y, z'
loop_
 _atom_site_type_symbol
 _atom_site_label
 _atom_site_symmetry_multiplicity
 _atom_site_fract_x
 _atom_site_fract_y
 _atom_site_fract_z
 _atom_site_occupancy
  Pd  Pd0  1  0.49999802  0.66693500  0.33311099  1
  P  P1  1  0.49999802  0.33311100  0.66693497  1
  Ac  Ac2  1  0.99999804  0.33306500  0.66688897  1
  Te  Te3  1  0.99999804  0.66688900  0.33306499  1
  Ni  Ni4  1  0.25004701  0.73889800  0.73889797  1
  K  K5  1  0.24998801  0.26082900  0.99956095  1
  Pb  Pb6  1  0.24998801  0.99956000  0.26082799  1
  Li  Li7  1  0.75004703  0.26110200  0.26110199  1
  Tl  Tl8  1  0.74998803  0.73917100  0.00043900  1
  Tb  Tb9  1  0.74998803  0.00044000  0.73917196  1
  Zr  Zr10  1  0.25002801  0.38361200  0.38361198  1
  Pb  Pb11  1  0.24997701  0.61641100  0.00007200  1
  F  F12  1  0.24997701  0.00007100  0.61640997  1
  Cu  Cu13  1  0.75002803  0.61638800  0.61638797  1
  Nb  Nb14  1  0.74997703  0.38358900  0.99992795  1
  K  K15  1  0.74997703  0.99992900  0.38358998  1
