# generated using pymatgen
data_NaTlSnHgOF
_symmetry_space_group_name_H-M   'P 1'
_cell_length_a   4.32098389
_cell_length_b   4.32098389
_cell_length_c   8.41484547
_cell_angle_alpha   104.87716675
_cell_angle_beta   104.87716675
_cell_angle_gamma   90.00000000
_symmetry_Int_Tables_number   1
_chemical_formula_structural   NaTlSnHgOF
_chemical_formula_sum   'Na1 Tl1 Sn1 Hg1 O1 F1'
_cell_volume   146.39007893
_cell_formula_units_Z   1
loop_
 _symmetry_equiv_pos_site_id
 _symmetry_equiv_pos_as_xyz
  1  'x, y, z'
loop_
 _atom_site_type_symbol
 _atom_site_label
 _atom_site_symmetry_multiplicity
 _atom_site_fract_x
 _atom_site_fract_y
 _atom_site_fract_z
 _atom_site_occupancy
  Sn  Sn0  1  0.25000000  0.75000002  0.50000001  1
  Tl  Tl1  1  0.50000001  0.50000001  -0.00000001  1
  Hg  Hg2  1  0.66787602  0.16787600  0.33575201  1
  Na  Na3  1  0.08212400  0.08212400  0.16424800  1
  O  O4  1  0.83212402  0.33212401  0.66424801  1
  F  F5  1  0.91787602  0.91787602  0.83575202  1
