# generated using pymatgen
data_CsRbNa3YbPrEuTiNiAgSnHgBiBPXeI
_symmetry_space_group_name_H-M   'P 1'
_cell_length_a   4.61790085
_cell_length_b   4.61790085
_cell_length_c   9.45189857
_cell_angle_alpha   90.00000000
_cell_angle_beta   90.00000000
_cell_angle_gamma   90.00000000
_symmetry_Int_Tables_number   1
_chemical_formula_structural   CsRbNa3YbPrEuTiNiAgSnHgBiBPXeI
_chemical_formula_sum
'Cs1 Rb1 Na3 Yb1 Pr1 Eu1 Ti1 Ni1 Ag1 Sn1 Hg1 Bi1 B1 P1 Xe1 I1'
_cell_volume   201.56181504
_cell_formula_units_Z   1
loop_
 _symmetry_equiv_pos_site_id
 _symmetry_equiv_pos_as_xyz
  1  'x, y, z'
loop_
 _atom_site_type_symbol
 _atom_site_label
 _atom_site_symmetry_multiplicity
 _atom_site_fract_x
 _atom_site_fract_y
 _atom_site_fract_z
 _atom_site_occupancy
  Pr  Pr0  1  0.00000000  0.00000000  0.00000000  1
  Eu  Eu1  1  0.50000002  0.50000002  0.50000002  1
  Ag  Ag2  1  0.50000002  0.50000002  0.83233304  1
  Yb  Yb3  1  0.00000000  0.00000000  0.33233301  1
  Hg  Hg4  1  0.50000002  0.50000002  0.16766701  1
  B  B5  1  0.00000000  0.00000000  0.66766703  1
  Na  Na6  1  0.69406702  0.69406702  0.66488503  1
  Na  Na7  1  0.30593301  0.30593301  0.66488503  1
  Na  Na8  1  0.69406702  0.69406702  0.33511502  1
  Ti  Ti9  1  0.19406701  0.80593303  0.16488501  1
  Bi  Bi10  1  0.80593303  0.19406701  0.16488501  1
  Sn  Sn11  1  0.80593303  0.19406701  0.83511504  1
  Cs  Cs12  1  0.30364501  0.30364501  0.00000000  1
  Rb  Rb13  1  0.19635501  0.80364503  0.50000002  1
  P  P14  1  0.80364503  0.19635501  0.50000002  1
  Xe  Xe15  1  0.69635502  0.69635502  0.00000000  1
  I  I16  1  0.30593301  0.30593301  0.33511502  1
  Ni  Ni17  1  0.19406701  0.80593303  0.83511504  1
