# generated using pymatgen
data_KNaPmDy2Y2TmZrTaCdFeAgGeSbMoHeAsOsBr
_symmetry_space_group_name_H-M   'P 1'
_cell_length_a   7.32897949
_cell_length_b   7.47990084
_cell_length_c   7.47990084
_cell_angle_alpha   78.24439240
_cell_angle_beta   62.51077652
_cell_angle_gamma   62.51077652
_symmetry_Int_Tables_number   1
_chemical_formula_structural   KNaPmDy2Y2TmZrTaCdFeAgGeSbMoHeAsOsBr
_chemical_formula_sum
'K1 Na1 Pm1 Y2 Dy2 Tm1 Zr1 Ta1 Cd1 Fe1 Ag1 Ge1 Sb1 Mo1 He1 As1 Os1 Br1'
_cell_volume   322.66183478
_cell_formula_units_Z   1
loop_
 _symmetry_equiv_pos_site_id
 _symmetry_equiv_pos_as_xyz
  1  'x, y, z'
loop_
 _atom_site_type_symbol
 _atom_site_label
 _atom_site_symmetry_multiplicity
 _atom_site_fract_x
 _atom_site_fract_y
 _atom_site_fract_z
 _atom_site_occupancy
  Ta  Ta0  1  0.15622101  0.17719800  0.41924798  1
  Fe  Fe1  1  0.50068101  0.17328200  0.82742998  1
  Mo  Mo2  1  0.00068104  0.82742998  0.17328193  1
  Pm  Pm3  1  0.65622103  0.41924799  0.17719797  1
  Na  Na4  1  0.08620304  0.68009599  0.66723593  1
  Y  Y5  1  0.58620304  0.66723599  0.68009594  1
  Dy  Dy6  1  0.36429703  0.60641199  0.73121094  1
  Y  Y7  1  0.86429704  0.73121098  0.60641194  1
  Sb  Sb8  1  0.10812701  0.15555600  0.07302899  1
  Cd  Cd9  1  0.76400903  0.57338899  0.39916296  1
  He  He10  1  0.94935204  0.60502199  0.94160395  1
  Ge  Ge11  1  0.76450603  0.39742099  0.76150297  1
  Tm  Tm12  1  0.97986706  0.94798698  0.76099092  1
  Zr  Zr13  1  0.28363703  0.44565299  0.15476896  1
  K  K14  1  0.78363701  0.15476900  0.44565299  1
  Br  Br15  1  0.44935205  0.94160398  0.60502192  1
  As  As16  1  0.26450604  0.76150298  0.39742093  1
  Ag  Ag17  1  0.26400902  0.39916299  0.57338896  1
  Os  Os18  1  0.60812701  0.07302900  0.15555600  1
  Dy  Dy19  1  0.47986704  0.76099098  0.94798693  1
