# generated using pymatgen
data_NaSrY2HoTiTlCdInGaHgBiSbHRhPbAuFHeN
_symmetry_space_group_name_H-M   'P 1'
_cell_length_a   5.48661327
_cell_length_b   5.48661327
_cell_length_c   7.70825911
_cell_angle_alpha   90.00000000
_cell_angle_beta   90.00000000
_cell_angle_gamma   91.31479645
_symmetry_Int_Tables_number   1
_chemical_formula_structural   NaSrY2HoTiTlCdInGaHgBiSbHRhPbAuFHeN
_chemical_formula_sum
;
Na1 Sr1 Y2 Ho1 Ti1 Tl1 Cd1 In1 Ga1 Hg1 Bi1 Sb1 H1 Rh1 Pb1 Au1 F1 He1
N1
;
_cell_volume   231.98005491
_cell_formula_units_Z   1
loop_
 _symmetry_equiv_pos_site_id
 _symmetry_equiv_pos_as_xyz
  1  'x, y, z'
loop_
 _atom_site_type_symbol
 _atom_site_label
 _atom_site_symmetry_multiplicity
 _atom_site_fract_x
 _atom_site_fract_y
 _atom_site_fract_z
 _atom_site_occupancy
  Rh  Rh0  1  0.49999996  0.49999999  -0.00000000  1
  Bi  Bi1  1  0.49999996  0.49999999  0.49999999  1
  Sr  Sr2  1  0.17973095  0.82026898  0.25000000  1
  H  H3  1  0.82026897  0.17973100  0.74999999  1
  Cd  Cd4  1  0.08780395  0.71081898  0.93026399  1
  Y  Y5  1  0.08780395  0.71081898  0.56973599  1
  Pb  Pb6  1  0.71081898  0.08780400  0.43026399  1
  F  F7  1  0.71081898  0.08780400  0.06973600  1
  Hg  Hg8  1  0.28918094  0.91219598  0.93026399  1
  Au  Au9  1  0.91219596  0.28918099  0.43026399  1
  He  He10  1  0.28918094  0.91219598  0.56973599  1
  Ti  Ti11  1  0.91219596  0.28918099  0.06973600  1
  Tl  Tl12  1  0.28591398  0.22660699  0.74999999  1
  N  N13  1  0.22660698  0.28591399  0.25000000  1
  In  In14  1  0.71408594  0.77339298  0.25000000  1
  Y  Y15  1  0.77339294  0.71408598  0.74999999  1
  Na  Na16  1  0.76099297  0.23900699  0.49368299  1
  Ho  Ho17  1  0.23900695  0.76099298  0.99368299  1
  Ga  Ga18  1  0.23900695  0.76099298  0.50631699  1
  Sb  Sb19  1  0.76099297  0.23900699  0.00631700  1
