# generated using pymatgen
data_SiHe
_symmetry_space_group_name_H-M   'P 1'
_cell_length_a   3.66111803
_cell_length_b   3.66111875
_cell_length_c   5.94792891
_cell_angle_alpha   90.00000000
_cell_angle_beta   90.00000000
_cell_angle_gamma   119.99999237
_symmetry_Int_Tables_number   1
_chemical_formula_structural   SiHe
_chemical_formula_sum   'Si1 He1'
_cell_volume   69.04368768
_cell_formula_units_Z   1
loop_
 _symmetry_equiv_pos_site_id
 _symmetry_equiv_pos_as_xyz
  1  'x, y, z'
loop_
 _atom_site_type_symbol
 _atom_site_label
 _atom_site_symmetry_multiplicity
 _atom_site_fract_x
 _atom_site_fract_y
 _atom_site_fract_z
 _atom_site_occupancy
  Si  Si0  1  0.00000000  0.00000000  0.00000000  1
  He  He1  1  0.66666665  0.33333332  0.50000001  1
