# generated using pymatgen
data_CeNd3VCrHgSbPb
_symmetry_space_group_name_H-M   'P 1'
_cell_length_a   6.13216972
_cell_length_b   6.13216972
_cell_length_c   7.00539970
_cell_angle_alpha   90.79988098
_cell_angle_beta   90.79988098
_cell_angle_gamma   90.59181976
_symmetry_Int_Tables_number   1
_chemical_formula_structural   CeNd3VCrHgSbPb
_chemical_formula_sum   'Ce1 Nd3 V1 Cr1 Hg1 Sb1 Pb1'
_cell_volume   263.36165759
_cell_formula_units_Z   1
loop_
 _symmetry_equiv_pos_site_id
 _symmetry_equiv_pos_as_xyz
  1  'x, y, z'
loop_
 _atom_site_type_symbol
 _atom_site_label
 _atom_site_symmetry_multiplicity
 _atom_site_fract_x
 _atom_site_fract_y
 _atom_site_fract_z
 _atom_site_occupancy
  Nd  Nd0  1  0.51519003  0.48481000  0.00000004  1
  Nd  Nd1  1  0.98809801  0.01190200  0.00000004  1
  V  V2  1  0.99492801  0.00507200  0.50000003  1
  Cr  Cr3  1  0.49261906  0.99582101  0.38084905  1
  Ce  Ce4  1  0.00417903  0.50738100  0.61915101  1
  Hg  Hg5  1  0.98568902  0.19895800  0.12110004  1
  Nd  Nd6  1  0.80104201  0.01431100  0.87890002  1
  Sb  Sb7  1  0.98544206  0.82245901  0.11521307  1
  Pb  Pb8  1  0.17754100  0.01455800  0.88478700  1
