# generated using pymatgen
data_AcTbPmGdErPuUTl2FeSiAsHeW2O
_symmetry_space_group_name_H-M   'P 1'
_cell_length_a   6.20884323
_cell_length_b   6.53823900
_cell_length_c   7.46987104
_cell_angle_alpha   90.00000000
_cell_angle_beta   90.00000000
_cell_angle_gamma   90.00000000
_symmetry_Int_Tables_number   1
_chemical_formula_structural   AcTbPmGdErPuUTl2FeSiAsHeW2O
_chemical_formula_sum
'Tb1 Ac1 Pm1 Gd1 Er1 Pu1 U1 Tl2 Fe1 Si1 As1 He1 W2 O1'
_cell_volume   303.23867532
_cell_formula_units_Z   1
loop_
 _symmetry_equiv_pos_site_id
 _symmetry_equiv_pos_as_xyz
  1  'x, y, z'
loop_
 _atom_site_type_symbol
 _atom_site_label
 _atom_site_symmetry_multiplicity
 _atom_site_fract_x
 _atom_site_fract_y
 _atom_site_fract_z
 _atom_site_occupancy
  Si  Si0  1  0.99857096  0.15310200  0.50000000  1
  Pu  Pu1  1  0.49857098  0.84689800  0.00000000  1
  Fe  Fe2  1  0.50726598  0.32752800  0.74767400  1
  As  As3  1  0.50726598  0.32752800  0.25232600  1
  U  U4  1  0.00726600  0.67247200  0.75232600  1
  Tb  Tb5  1  0.00726600  0.67247200  0.24767400  1
  He  He6  1  0.49916398  0.82941200  0.50000000  1
  Tl  Tl7  1  0.99916396  0.17058800  0.00000000  1
  Pm  Pm8  1  0.86486697  0.81963200  0.50000000  1
  Ac  Ac9  1  0.36486699  0.18036800  -0.00000000  1
  W  W10  1  0.37866899  0.15544700  0.50000000  1
  Er  Er11  1  0.87866897  0.84455300  0.00000000  1
  O  O12  1  0.87659897  0.33959100  0.75460700  1
  Gd  Gd13  1  0.87659897  0.33959100  0.24539300  1
  W  W14  1  0.37659899  0.66040900  0.74539300  1
  Tl  Tl15  1  0.37659899  0.66040900  0.25460700  1
