# generated using pymatgen
data_BaAcTbNdSmEuYTlInBiTeAs
_symmetry_space_group_name_H-M   'P 1'
_cell_length_a   4.89821911
_cell_length_b   4.89821911
_cell_length_c   4.89821911
_cell_angle_alpha   90.00000000
_cell_angle_beta   90.00000000
_cell_angle_gamma   90.00000000
_symmetry_Int_Tables_number   1
_chemical_formula_structural   BaAcTbNdSmEuYTlInBiTeAs
_chemical_formula_sum
'Ba1 Tb1 Ac1 Nd1 Sm1 Eu1 Y1 Tl1 In1 Bi1 Te1 As1'
_cell_volume   117.52076901
_cell_formula_units_Z   1
loop_
 _symmetry_equiv_pos_site_id
 _symmetry_equiv_pos_as_xyz
  1  'x, y, z'
loop_
 _atom_site_type_symbol
 _atom_site_label
 _atom_site_symmetry_multiplicity
 _atom_site_fract_x
 _atom_site_fract_y
 _atom_site_fract_z
 _atom_site_occupancy
  Te  Te0  1  0.49999999  0.49999999  0.00000000  1
  Ba  Ba1  1  0.49999999  0.00000000  0.49999999  1
  As  As2  1  0.00000000  0.49999999  0.49999999  1
  Tl  Tl3  1  0.00000000  0.00000000  0.00000000  1
  In  In4  1  0.14920000  0.85079998  0.35079999  1
  Eu  Eu5  1  0.85079998  0.35079999  0.14920000  1
  Nd  Nd6  1  0.35079999  0.14920000  0.85079998  1
  Tb  Tb7  1  0.64919999  0.64919999  0.64919999  1
  Sm  Sm8  1  0.85079998  0.14920000  0.64919999  1
  Y  Y9  1  0.14920000  0.64919999  0.85079998  1
  Ac  Ac10  1  0.64919999  0.85079998  0.14920000  1
  Bi  Bi11  1  0.35079999  0.35079999  0.35079999  1
