# generated using pymatgen
data_CePrGdPuMg2TaSiNiGe
_symmetry_space_group_name_H-M   'P 1'
_cell_length_a   5.96204996
_cell_length_b   5.96204996
_cell_length_c   5.96204996
_cell_angle_alpha   60.00000000
_cell_angle_beta   60.00000000
_cell_angle_gamma   60.00000000
_symmetry_Int_Tables_number   1
_chemical_formula_structural   CePrGdPuMg2TaSiNiGe
_chemical_formula_sum   'Ce1 Pr1 Gd1 Pu1 Mg2 Ta1 Si1 Ni1 Ge1'
_cell_volume   149.85520609
_cell_formula_units_Z   1
loop_
 _symmetry_equiv_pos_site_id
 _symmetry_equiv_pos_as_xyz
  1  'x, y, z'
loop_
 _atom_site_type_symbol
 _atom_site_label
 _atom_site_symmetry_multiplicity
 _atom_site_fract_x
 _atom_site_fract_y
 _atom_site_fract_z
 _atom_site_occupancy
  Mg  Mg0  1  0.75000001  0.75000001  0.75000001  1
  Ta  Ta1  1  0.25000000  0.25000000  0.25000000  1
  Ni  Ni2  1  0.50000000  0.50000000  0.50000000  1
  Pu  Pu3  1  0.00000000  0.00000000  0.00000000  1
  Si  Si4  1  0.76925101  0.76925101  0.23074900  1
  Mg  Mg5  1  0.23074900  0.76925101  0.76925101  1
  Gd  Gd6  1  0.23074900  0.76925101  0.23074900  1
  Pr  Pr7  1  0.23074900  0.23074900  0.76925101  1
  Ce  Ce8  1  0.76925101  0.23074900  0.23074900  1
  Ge  Ge9  1  0.76925101  0.23074900  0.76925101  1
