# generated using pymatgen
data_EuReKrNePuBeCrAgSbTeMoRuRhWAuF
_symmetry_space_group_name_H-M   'P 1'
_cell_length_a   3.93156290
_cell_length_b   6.23098421
_cell_length_c   13.32972527
_cell_angle_alpha   90.00000000
_cell_angle_beta   90.00000000
_cell_angle_gamma   90.00000000
_symmetry_Int_Tables_number   1
_chemical_formula_structural   EuReKrNePuBeCrAgSbTeMoRuRhWAuF
_chemical_formula_sum
'Eu1 Re1 Kr1 Ne1 Pu1 Be1 Cr1 Ag1 Sb1 Te1 Mo1 Ru1 Rh1 W1 Au1 F1'
_cell_volume   326.54502944
_cell_formula_units_Z   1
loop_
 _symmetry_equiv_pos_site_id
 _symmetry_equiv_pos_as_xyz
  1  'x, y, z'
loop_
 _atom_site_type_symbol
 _atom_site_label
 _atom_site_symmetry_multiplicity
 _atom_site_fract_x
 _atom_site_fract_y
 _atom_site_fract_z
 _atom_site_occupancy
  Re  Re0  1  0.25000001  0.50105898  0.13333100  1
  Kr  Kr1  1  0.75000002  0.49894098  0.86666898  1
  Ne  Ne2  1  0.75000002  0.00105900  0.36666899  1
  Pu  Pu3  1  0.25000001  0.99894097  0.63333099  1
  Au  Au4  1  0.25000001  0.12583000  0.95466998  1
  F  F5  1  0.75000002  0.62582998  0.54532999  1
  Sb  Sb6  1  0.75000002  0.87416997  0.04533000  1
  Eu  Eu7  1  0.25000001  0.37416999  0.45466999  1
  Ag  Ag8  1  0.25000001  0.26203399  0.79441498  1
  Mo  Mo9  1  0.75000002  0.73796598  0.20558500  1
  W  W10  1  0.75000002  0.76203397  0.70558499  1
  Te  Te11  1  0.25000001  0.23796599  0.29441499  1
  Ru  Ru12  1  0.25000001  0.74521097  0.95992098  1
  Rh  Rh13  1  0.25000001  0.75478897  0.45992099  1
  Cr  Cr14  1  0.75000002  0.24521099  0.54007899  1
  Be  Be15  1  0.75000002  0.25478899  0.04007900  1
