# generated using pymatgen
data_NaLi2TbCeYHoTmLuTaMnTcHgSbPBr
_symmetry_space_group_name_H-M   'P 1'
_cell_length_a   4.99974585
_cell_length_b   4.99974585
_cell_length_c   8.77617741
_cell_angle_alpha   90.00000000
_cell_angle_beta   90.00000000
_cell_angle_gamma   90.00000000
_symmetry_Int_Tables_number   1
_chemical_formula_structural   NaLi2TbCeYHoTmLuTaMnTcHgSbPBr
_chemical_formula_sum
'Na1 Li2 Tb1 Ce1 Y1 Ho1 Tm1 Lu1 Ta1 Mn1 Tc1 Hg1 Sb1 P1 Br1'
_cell_volume   219.38213070
_cell_formula_units_Z   1
loop_
 _symmetry_equiv_pos_site_id
 _symmetry_equiv_pos_as_xyz
  1  'x, y, z'
loop_
 _atom_site_type_symbol
 _atom_site_label
 _atom_site_symmetry_multiplicity
 _atom_site_fract_x
 _atom_site_fract_y
 _atom_site_fract_z
 _atom_site_occupancy
  Tb  Tb0  1  0.00000000  0.00000000  0.82634596  1
  Tm  Tm1  1  0.50000002  0.50000002  0.67365397  1
  Sb  Sb2  1  0.50000002  0.50000002  0.32634598  1
  Y  Y3  1  0.00000000  0.00000000  0.17365399  1
  Tc  Tc4  1  0.82679103  0.82679103  -0.00000000  1
  Br  Br5  1  0.69932602  0.30067401  0.81377696  1
  Ce  Ce6  1  0.30067401  0.69932602  0.81377696  1
  Li  Li7  1  0.19932601  0.19932601  0.68622297  1
  Ta  Ta8  1  0.80067402  0.80067402  0.68622297  1
  Mn  Mn9  1  0.67320902  0.32679101  0.49999998  1
  Hg  Hg10  1  0.32679101  0.67320902  0.49999998  1
  Li  Li11  1  0.19932601  0.19932601  0.31377699  1
  Ho  Ho12  1  0.80067402  0.80067402  0.31377699  1
  P  P13  1  0.69932602  0.30067401  0.18622299  1
  Na  Na14  1  0.30067401  0.69932602  0.18622299  1
  Lu  Lu15  1  0.17320901  0.17320901  -0.00000000  1
