# generated using pymatgen
data_NaSrYErPuUTaTlInBRuO
_symmetry_space_group_name_H-M   'P 1'
_cell_length_a   4.29284811
_cell_length_b   6.50545788
_cell_length_c   6.90008688
_cell_angle_alpha   91.83469391
_cell_angle_beta   93.79080200
_cell_angle_gamma   96.63504791
_symmetry_Int_Tables_number   1
_chemical_formula_structural   NaSrYErPuUTaTlInBRuO
_chemical_formula_sum   'Na1 Sr1 Y1 Er1 Pu1 U1 Ta1 Tl1 In1 B1 Ru1 O1'
_cell_volume   190.83597839
_cell_formula_units_Z   1
loop_
 _symmetry_equiv_pos_site_id
 _symmetry_equiv_pos_as_xyz
  1  'x, y, z'
loop_
 _atom_site_type_symbol
 _atom_site_label
 _atom_site_symmetry_multiplicity
 _atom_site_fract_x
 _atom_site_fract_y
 _atom_site_fract_z
 _atom_site_occupancy
  Tl  Tl0  1  0.46039496  0.36842700  0.24456903  1
  Sr  Sr1  1  0.53960494  0.63157299  0.75543103  1
  Pu  Pu2  1  0.68022893  0.85854099  0.27226406  1
  Ta  Ta3  1  0.31977098  0.14145900  0.72773599  1
  Er  Er4  1  0.60065494  0.67499199  0.07939206  1
  B  B5  1  0.40378499  0.02209700  0.23441201  1
  Na  Na6  1  0.51222794  0.67913599  0.43100504  1
  Ru  Ru7  1  0.39934497  0.32500800  0.92060800  1
  O  O8  1  0.59621492  0.97790299  0.76558805  1
  Y  Y9  1  0.48777197  0.32086400  0.56899502  1
  U  U10  1  0.95962395  0.35051800  0.25495404  1
  In  In11  1  0.04037595  0.64948199  0.74504601  1
