# generated using pymatgen
data_KAcGdYGa
_symmetry_space_group_name_H-M   'P 1'
_cell_length_a   4.34323788
_cell_length_b   4.34323788
_cell_length_c   6.17546606
_cell_angle_alpha   110.58843231
_cell_angle_beta   110.58843231
_cell_angle_gamma   90.00000000
_symmetry_Int_Tables_number   1
_chemical_formula_structural   KAcGdYGa
_chemical_formula_sum   'K1 Ac1 Gd1 Y1 Ga1'
_cell_volume   101.06537593
_cell_formula_units_Z   1
loop_
 _symmetry_equiv_pos_site_id
 _symmetry_equiv_pos_as_xyz
  1  'x, y, z'
loop_
 _atom_site_type_symbol
 _atom_site_label
 _atom_site_symmetry_multiplicity
 _atom_site_fract_x
 _atom_site_fract_y
 _atom_site_fract_z
 _atom_site_occupancy
  Ac  Ac0  1  0.00000000  0.00000000  0.00000000  1
  Y  Y1  1  0.25000000  0.75000002  0.49999998  1
  Ga  Ga2  1  0.75000002  0.25000001  0.49999998  1
  K  K3  1  0.61843001  0.61843002  0.23685999  1
  Gd  Gd4  1  0.38157001  0.38157001  0.76313998  1
