# generated using pymatgen
data_PmPu2HeTbPrNdHfZrNbAgKr
_symmetry_space_group_name_H-M   'P 1'
_cell_length_a   4.89433908
_cell_length_b   7.40211821
_cell_length_c   7.69573593
_cell_angle_alpha   90.00000000
_cell_angle_beta   90.00000000
_cell_angle_gamma   90.00000000
_symmetry_Int_Tables_number   1
_chemical_formula_structural   PmPu2HeTbPrNdHfZrNbAgKr
_chemical_formula_sum   'Pm1 Pu2 He1 Tb1 Pr1 Nd1 Hf1 Zr1 Nb1 Ag1 Kr1'
_cell_volume   278.80478792
_cell_formula_units_Z   1
loop_
 _symmetry_equiv_pos_site_id
 _symmetry_equiv_pos_as_xyz
  1  'x, y, z'
loop_
 _atom_site_type_symbol
 _atom_site_label
 _atom_site_symmetry_multiplicity
 _atom_site_fract_x
 _atom_site_fract_y
 _atom_site_fract_z
 _atom_site_occupancy
  Pm  Pm0  1  0.25000000  0.80915198  0.46818900  1
  Pu  Pu1  1  0.74999999  0.19084799  0.53181100  1
  He  He2  1  0.74999999  0.30915199  0.03181100  1
  Tb  Tb3  1  0.25000000  0.69084798  0.96818901  1
  Zr  Zr4  1  0.74999999  0.61269498  0.69547901  1
  Hf  Hf5  1  0.74999999  0.88730498  0.19547900  1
  Kr  Kr6  1  0.25000000  0.11269500  0.80452101  1
  Nb  Nb7  1  0.25000000  0.38730499  0.30452100  1
  Pu  Pu8  1  0.74999999  0.55699198  0.34894600  1
  Ag  Ag9  1  0.74999999  0.94300797  0.84894601  1
  Pr  Pr10  1  0.25000000  0.05699200  0.15105400  1
  Nd  Nd11  1  0.25000000  0.44300799  0.65105401  1
