# generated using pymatgen
data_HgNeAcMgCdAgOsRuWClF2
_symmetry_space_group_name_H-M   'P 1'
_cell_length_a   4.33422184
_cell_length_b   6.88430405
_cell_length_c   7.59378386
_cell_angle_alpha   90.00000000
_cell_angle_beta   90.00000000
_cell_angle_gamma   90.00000000
_symmetry_Int_Tables_number   1
_chemical_formula_structural   HgNeAcMgCdAgOsRuWClF2
_chemical_formula_sum   'Hg1 Ne1 Ac1 Mg1 Cd1 Ag1 Ru1 Os1 W1 Cl1 F2'
_cell_volume   226.58408928
_cell_formula_units_Z   1
loop_
 _symmetry_equiv_pos_site_id
 _symmetry_equiv_pos_as_xyz
  1  'x, y, z'
loop_
 _atom_site_type_symbol
 _atom_site_label
 _atom_site_symmetry_multiplicity
 _atom_site_fract_x
 _atom_site_fract_y
 _atom_site_fract_z
 _atom_site_occupancy
  Hg  Hg0  1  0.75000003  0.49739700  0.79652802  1
  Ne  Ne1  1  0.25000001  0.00260300  0.29652801  1
  F  F2  1  0.75000003  0.99739699  0.70347201  1
  Ru  Ru3  1  0.25000001  0.50260300  0.20347200  1
  Ag  Ag4  1  0.25000001  0.69118600  0.59016901  1
  F  F5  1  0.25000001  0.19118600  0.90983102  1
  Ac  Ac6  1  0.75000003  0.30881400  0.40983101  1
  Mg  Mg7  1  0.75000003  0.80881399  0.09016900  1
  Cl  Cl8  1  0.25000001  0.79309699  0.91609202  1
  Os  Os9  1  0.25000001  0.29309700  0.58390801  1
  W  W10  1  0.75000003  0.70690300  0.41609201  1
  Cd  Cd11  1  0.75000003  0.20690300  0.08390800  1
