# generated using pymatgen
data_RbBaPm2SmEuTmThScTaMnCrAgBHOsXeKrFHe
_symmetry_space_group_name_H-M   'P 1'
_cell_length_a   5.72556877
_cell_length_b   5.78868103
_cell_length_c   8.04626465
_cell_angle_alpha   90.00000000
_cell_angle_beta   89.96572876
_cell_angle_gamma   90.00000000
_symmetry_Int_Tables_number   1
_chemical_formula_structural   RbBaPm2SmEuTmThScTaMnCrAgBHOsXeKrFHe
_chemical_formula_sum
;
Rb1 Ba1 Pm2 Sm1 Eu1 Tm1 Th1 Sc1 Ta1 Mn1 Cr1 Ag1 B1 H1 Os1 Xe1 Kr1 F1
He1
;
_cell_volume   266.68125494
_cell_formula_units_Z   1
loop_
 _symmetry_equiv_pos_site_id
 _symmetry_equiv_pos_as_xyz
  1  'x, y, z'
loop_
 _atom_site_type_symbol
 _atom_site_label
 _atom_site_symmetry_multiplicity
 _atom_site_fract_x
 _atom_site_fract_y
 _atom_site_fract_z
 _atom_site_occupancy
  Ba  Ba0  1  0.49903802  0.74049500  0.74938399  1
  Kr  Kr1  1  0.99903804  0.25950500  0.24938401  1
  H  H2  1  0.01813000  0.20444500  0.74795598  1
  Pm  Pm3  1  0.51813002  0.79555500  0.24795600  1
  Ag  Ag4  1  0.50319402  0.25869400  0.99937598  1
  B  B5  1  0.00319400  0.74130600  0.49937599  1
  F  F6  1  0.50063502  0.25590100  0.50010099  1
  Cr  Cr7  1  0.00063500  0.74409900  0.00010100  1
  Os  Os8  1  0.45223802  0.21597400  0.25503200  1
  Mn  Mn9  1  0.75882003  0.99455099  0.03873501  1
  Eu  Eu10  1  0.74608403  0.00830900  0.46783300  1
  Rb  Rb11  1  0.24608401  0.99169099  0.96783298  1
  Ta  Ta12  1  0.25882001  0.00544900  0.53873499  1
  He  He13  1  0.95223804  0.78402600  0.75503199  1
  Sc  Sc14  1  0.10114200  0.73921400  0.24210800  1
  Th  Th15  1  0.70091103  0.53296700  0.45095600  1
  Tm  Tm16  1  0.71980603  0.54225100  0.04852001  1
  Xe  Xe17  1  0.21980601  0.45774900  0.54851999  1
  Sm  Sm18  1  0.20091101  0.46703300  0.95095598  1
  Pm  Pm19  1  0.60114202  0.26078600  0.74210799  1
