# generated using pymatgen
data_PdNePmErTmUTaNbCoSiGe3MoPOsPtSeBrKr
_symmetry_space_group_name_H-M   'P 1'
_cell_length_a   5.89359713
_cell_length_b   6.14842701
_cell_length_c   8.46298599
_cell_angle_alpha   90.00000000
_cell_angle_beta   89.95512390
_cell_angle_gamma   90.00000000
_symmetry_Int_Tables_number   1
_chemical_formula_structural   PdNePmErTmUTaNbCoSiGe3MoPOsPtSeBrKr
_chemical_formula_sum
'Pd1 Ne1 Pm1 Er1 Tm1 U1 Ta1 Nb1 Co1 Si1 Ge3 Mo1 P1 Os1 Pt1 Se1 Br1 Kr1'
_cell_volume   306.66764324
_cell_formula_units_Z   1
loop_
 _symmetry_equiv_pos_site_id
 _symmetry_equiv_pos_as_xyz
  1  'x, y, z'
loop_
 _atom_site_type_symbol
 _atom_site_label
 _atom_site_symmetry_multiplicity
 _atom_site_fract_x
 _atom_site_fract_y
 _atom_site_fract_z
 _atom_site_occupancy
  Pd  Pd0  1  0.00000000  0.50000000  0.49999998  1
  Ne  Ne1  1  0.98589798  0.94898800  0.74455700  1
  Pm  Pm2  1  0.51410199  0.44898800  0.75544299  1
  Se  Se3  1  0.49999999  0.00000000  0.00000002  1
  U  U4  1  0.48589799  0.55101200  0.24455701  1
  Er  Er5  1  0.01410200  0.05101200  0.25544299  1
  Tm  Tm6  1  0.00000000  0.50000000  -0.00000000  1
  Co  Co7  1  0.49999999  0.00000000  0.50000000  1
  Ta  Ta8  1  0.89399998  0.44901800  0.21767203  1
  Kr  Kr9  1  0.83431198  0.23630600  0.93209099  1
  Ge  Ge10  1  0.77107498  0.17411500  0.54555101  1
  Nb  Nb11  1  0.72892498  0.67411500  0.95444898  1
  Br  Br12  1  0.66568799  0.73630600  0.56790900  1
  Mo  Mo13  1  0.60599999  0.94901800  0.28232801  1
  Si  Si14  1  0.39399999  0.05098200  0.71767198  1
  Ge  Ge15  1  0.33431199  0.26369400  0.43209099  1
  Ge  Ge16  1  0.27107499  0.32588500  0.04555101  1
  P  P17  1  0.22892500  0.82588500  0.45444899  1
  Os  Os18  1  0.16568800  0.76369400  0.06790900  1
  Pt  Pt19  1  0.10600000  0.55098200  0.78232797  1
