# generated using pymatgen
data_CsCaPrNdSmZrReAgSnHPtXe(BrCl)2
_symmetry_space_group_name_H-M   'P 1'
_cell_length_a   4.41931915
_cell_length_b   9.09129620
_cell_length_c   9.61187077
_cell_angle_alpha   118.22402191
_cell_angle_beta   103.29051971
_cell_angle_gamma   90.00000000
_symmetry_Int_Tables_number   1
_chemical_formula_structural   CsCaPrNdSmZrReAgSnHPtXe(BrCl)2
_chemical_formula_sum
'Cs1 Ca1 Pr1 Nd1 Sm1 Zr1 Re1 Ag1 Sn1 H1 Pt1 Xe1 Br2 Cl2'
_cell_volume   328.47903654
_cell_formula_units_Z   1
loop_
 _symmetry_equiv_pos_site_id
 _symmetry_equiv_pos_as_xyz
  1  'x, y, z'
loop_
 _atom_site_type_symbol
 _atom_site_label
 _atom_site_symmetry_multiplicity
 _atom_site_fract_x
 _atom_site_fract_y
 _atom_site_fract_z
 _atom_site_occupancy
  Br  Br0  1  1.00000000  0.26465100  1.00000002  1
  Xe  Xe1  1  0.00000005  0.73534899  1.00000000  1
  Sn  Sn2  1  0.20769704  0.70769699  0.41539401  1
  Zr  Zr3  1  0.79230300  0.29230299  0.58460602  1
  Pr  Pr4  1  0.57897999  0.07897900  0.15795901  1
  Pt  Pt5  1  0.42102005  0.92102098  0.84204101  1
  Re  Re6  1  0.57804902  0.57804899  0.15609802  1
  Ca  Ca7  1  0.42195102  0.42195099  0.84390201  1
  Ag  Ag8  1  0.80081002  0.64373099  0.60162002  1
  H  H9  1  0.19919002  0.35626899  0.39838000  1
  Cs  Cs10  1  0.80081004  0.95788998  0.60162002  1
  Sm  Sm11  1  0.19919000  0.04211000  0.39838000  1
  Cl  Cl12  1  0.64594101  0.39328399  0.29188302  1
  Br  Br13  1  0.35405903  0.60671599  0.70811701  1
  Cl  Cl14  1  0.64594104  0.89859898  0.29188302  1
  Nd  Nd15  1  0.35405900  0.10140100  0.70811700  1
