# generated using pymatgen
data_RbCaAcTbPmPr2EuErLuHfMgTiGaAgSn2BPtS
_symmetry_space_group_name_H-M   'P 1'
_cell_length_a   5.77894783
_cell_length_b   5.77894735
_cell_length_c   11.64937019
_cell_angle_alpha   90.00000000
_cell_angle_beta   90.00000000
_cell_angle_gamma   120.00000763
_symmetry_Int_Tables_number   1
_chemical_formula_structural   RbCaAcTbPmPr2EuErLuHfMgTiGaAgSn2BPtS
_chemical_formula_sum
'Rb1 Ca1 Ac1 Tb1 Pm1 Pr2 Eu1 Er1 Lu1 Hf1 Mg1 Ti1 Ga1 Ag1 Sn2 B1 Pt1 S1'
_cell_volume   336.92292059
_cell_formula_units_Z   1
loop_
 _symmetry_equiv_pos_site_id
 _symmetry_equiv_pos_as_xyz
  1  'x, y, z'
loop_
 _atom_site_type_symbol
 _atom_site_label
 _atom_site_symmetry_multiplicity
 _atom_site_fract_x
 _atom_site_fract_y
 _atom_site_fract_z
 _atom_site_occupancy
  Pm  Pm0  1  0.00000000  0.00000000  0.49999999  1
  Sn  Sn1  1  0.00000000  0.00000000  0.00000000  1
  Hf  Hf2  1  0.66666671  0.33333334  0.00514200  1
  Ac  Ac3  1  0.33333339  0.66666669  0.99485798  1
  Lu  Lu4  1  0.33333339  0.66666669  0.50514199  1
  Pr  Pr5  1  0.66666671  0.33333334  0.49485799  1
  Ag  Ag6  1  0.66666671  0.33333334  0.74999999  1
  Mg  Mg7  1  0.33333339  0.66666669  0.25000000  1
  Tb  Tb8  1  0.66893002  0.00796600  0.63591599  1
  S  S9  1  0.33903604  0.33107001  0.63591599  1
  Eu  Eu10  1  0.99203408  0.66096402  0.63591599  1
  Ga  Ga11  1  0.66096410  0.99203403  0.36408399  1
  Sn  Sn12  1  0.00796605  0.66893002  0.36408399  1
  Pt  Pt13  1  0.33107004  0.33903601  0.36408399  1
  Ca  Ca14  1  0.33107009  0.99203403  0.13591600  1
  Ti  Ti15  1  0.66096407  0.66893002  0.13591600  1
  Pr  Pr16  1  0.00796603  0.33903601  0.13591600  1
  Er  Er17  1  0.33903601  0.00796600  0.86408399  1
  Rb  Rb18  1  0.99203405  0.33107001  0.86408399  1
  B  B19  1  0.66893007  0.66096402  0.86408399  1
