# generated using pymatgen
data_YbSmDyLuHfScMnBeNb2InFeSiSn2GeMoPSeXe
_symmetry_space_group_name_H-M   'P 1'
_cell_length_a   5.59285593
_cell_length_b   5.74425507
_cell_length_c   7.94023561
_cell_angle_alpha   90.52373505
_cell_angle_beta   90.26686859
_cell_angle_gamma   90.63721466
_symmetry_Int_Tables_number   1
_chemical_formula_structural   YbSmDyLuHfScMnBeNb2InFeSiSn2GeMoPSeXe
_chemical_formula_sum
'Yb1 Sm1 Dy1 Lu1 Hf1 Sc1 Mn1 Be1 Nb2 In1 Fe1 Si1 Sn2 Ge1 Mo1 P1 Se1 Xe1'
_cell_volume   255.06496826
_cell_formula_units_Z   1
loop_
 _symmetry_equiv_pos_site_id
 _symmetry_equiv_pos_as_xyz
  1  'x, y, z'
loop_
 _atom_site_type_symbol
 _atom_site_label
 _atom_site_symmetry_multiplicity
 _atom_site_fract_x
 _atom_site_fract_y
 _atom_site_fract_z
 _atom_site_occupancy
  Mn  Mn0  1  0.51314501  0.05197700  0.24920602  1
  Xe  Xe1  1  0.01366003  0.44568601  0.74985399  1
  Sc  Sc2  1  0.48983207  0.94412803  0.75091500  1
  Si  Si3  1  0.00295507  0.99761103  0.49902398  1
  Nb  Nb4  1  0.49836304  0.50441602  0.00284600  1
  Sn  Sn5  1  0.49854704  0.50130402  0.49893701  1
  In  In6  1  0.00202400  0.00393700  0.00132700  1
  Yb  Yb7  1  0.99103005  0.55408802  0.25316502  1
  Lu  Lu8  1  0.08510807  0.95400103  0.24396998  1
  Sm  Sm9  1  0.39453804  0.47048801  0.25615800  1
  Se  Se10  1  0.90809401  0.03301700  0.75135004  1
  Fe  Fe11  1  0.59552704  0.52345002  0.74711301  1
  Ge  Ge12  1  0.80957403  0.29679901  0.05576002  1
  Sn  Sn13  1  0.68773706  0.79722602  0.45436501  1
  Be  Be14  1  0.20474005  0.69319402  0.54733799  1
  P  P15  1  0.30192602  0.20168701  0.95392801  1
  Hf  Hf16  1  0.19452805  0.71442902  0.94743599  1
  Nb  Nb17  1  0.30888302  0.20057501  0.54681001  1
  Mo  Mo18  1  0.79653203  0.31017001  0.44612902  1
  Dy  Dy19  1  0.70325906  0.80181502  0.04436800  1
