# generated using pymatgen
data_NaDyHfPaTi2AlFePXe
_symmetry_space_group_name_H-M   'P 1'
_cell_length_a   6.14528179
_cell_length_b   6.14528179
_cell_length_c   6.14528179
_cell_angle_alpha   60.00000000
_cell_angle_beta   60.00000000
_cell_angle_gamma   60.00000000
_symmetry_Int_Tables_number   1
_chemical_formula_structural   NaDyHfPaTi2AlFePXe
_chemical_formula_sum   'Na1 Dy1 Hf1 Pa1 Ti2 Al1 Fe1 P1 Xe1'
_cell_volume   164.10069065
_cell_formula_units_Z   1
loop_
 _symmetry_equiv_pos_site_id
 _symmetry_equiv_pos_as_xyz
  1  'x, y, z'
loop_
 _atom_site_type_symbol
 _atom_site_label
 _atom_site_symmetry_multiplicity
 _atom_site_fract_x
 _atom_site_fract_y
 _atom_site_fract_z
 _atom_site_occupancy
  Xe  Xe0  1  0.25000000  0.25000000  0.25000000  1
  Pa  Pa1  1  0.75000001  0.75000001  0.75000001  1
  Na  Na2  1  0.00000000  0.00000000  0.00000000  1
  P  P3  1  0.50000001  0.50000001  0.50000001  1
  Ti  Ti4  1  0.26877213  0.73122788  0.26877213  1
  Fe  Fe5  1  0.73122788  0.26877213  0.73122788  1
  Ti  Ti6  1  0.73122788  0.26877213  0.26877213  1
  Dy  Dy7  1  0.26877213  0.73122788  0.73122788  1
  Al  Al8  1  0.73122788  0.73122788  0.26877213  1
  Hf  Hf9  1  0.26877213  0.26877213  0.73122788  1
