# generated using pymatgen
data_SrCaTbCe2Ho2ScPaCdAsPt
_symmetry_space_group_name_H-M   'P 1'
_cell_length_a   4.55520582
_cell_length_b   7.91766644
_cell_length_c   11.56613255
_cell_angle_alpha   90.00000000
_cell_angle_beta   90.00000000
_cell_angle_gamma   106.71797180
_symmetry_Int_Tables_number   1
_chemical_formula_structural   SrCaTbCe2Ho2ScPaCdAsPt
_chemical_formula_sum   'Sr1 Ca1 Tb1 Ce2 Ho2 Sc1 Pa1 Cd1 As1 Pt1'
_cell_volume   399.51906729
_cell_formula_units_Z   1
loop_
 _symmetry_equiv_pos_site_id
 _symmetry_equiv_pos_as_xyz
  1  'x, y, z'
loop_
 _atom_site_type_symbol
 _atom_site_label
 _atom_site_symmetry_multiplicity
 _atom_site_fract_x
 _atom_site_fract_y
 _atom_site_fract_z
 _atom_site_occupancy
  Ce  Ce0  1  0.75485607  0.50971200  0.75000003  1
  Cd  Cd1  1  0.24514405  0.49028800  0.25000001  1
  Ca  Ca2  1  0.00000000  0.00000000  0.50000002  1
  Ce  Ce3  1  0.00000000  0.00000000  0.00000000  1
  As  As4  1  0.46868610  0.93737200  0.75000003  1
  Sc  Sc5  1  0.53131403  0.06262800  0.25000001  1
  Pa  Pa6  1  0.36125408  0.72250800  0.55161902  1
  Ho  Ho7  1  0.63874605  0.27749200  0.44838102  1
  Pt  Pt8  1  0.36125408  0.72250800  0.94838104  1
  Tb  Tb9  1  0.63874605  0.27749200  0.05161900  1
  Sr  Sr10  1  0.07956502  0.15913000  0.75000003  1
  Ho  Ho11  1  0.92043511  0.84087000  0.25000001  1
