# generated using pymatgen
data_BaLiLaGdYErHfPaAlTlInCoReTcMoS2HeAuF
_symmetry_space_group_name_H-M   'P 1'
_cell_length_a   5.49852800
_cell_length_b   5.82546806
_cell_length_c   11.62561893
_cell_angle_alpha   90.00000000
_cell_angle_beta   90.00000000
_cell_angle_gamma   90.00000000
_symmetry_Int_Tables_number   1
_chemical_formula_structural   BaLiLaGdYErHfPaAlTlInCoReTcMoS2HeAuF
_chemical_formula_sum
;
Ba1 Li1 La1 Gd1 Y1 Er1 Hf1 Pa1 Al1 Tl1 In1 Co1 Tc1 Re1 Mo1 S2 He1 Au1
F1
;
_cell_volume   372.38600455
_cell_formula_units_Z   1
loop_
 _symmetry_equiv_pos_site_id
 _symmetry_equiv_pos_as_xyz
  1  'x, y, z'
loop_
 _atom_site_type_symbol
 _atom_site_label
 _atom_site_symmetry_multiplicity
 _atom_site_fract_x
 _atom_site_fract_y
 _atom_site_fract_z
 _atom_site_occupancy
  In  In0  1  0.93540900  0.74999999  0.89757001  1
  S  S1  1  0.93540900  0.25000000  0.60243000  1
  Er  Er2  1  0.06459100  0.25000000  0.10243000  1
  Al  Al3  1  0.06459100  0.74999999  0.39757000  1
  Tc  Tc4  1  0.47363300  0.74999999  0.66588000  1
  He  He5  1  0.47363300  0.25000000  0.83412000  1
  Gd  Gd6  1  0.52636700  0.25000000  0.33412000  1
  Li  Li7  1  0.52636700  0.74999999  0.16588000  1
  F  F8  1  0.42808400  0.49999999  0.25000000  1
  Pa  Pa9  1  0.57191600  0.00000000  0.75000000  1
  La  La10  1  0.57191600  0.49999999  0.75000000  1
  Co  Co11  1  0.42808400  0.00000000  0.25000000  1
  Re  Re12  1  0.61475900  0.74999999  0.53886200  1
  Y  Y13  1  0.61475900  0.25000000  0.96113801  1
  Tl  Tl14  1  0.38524100  0.25000000  0.46113800  1
  Au  Au15  1  0.38524100  0.74999999  0.03886200  1
  Hf  Hf16  1  0.82995200  0.74999999  0.14811400  1
  S  S17  1  0.82995200  0.25000000  0.35188600  1
  Mo  Mo18  1  0.17004800  0.25000000  0.85188600  1
  Ba  Ba19  1  0.17004800  0.74999999  0.64811400  1
