# generated using pymatgen
data_BaAcPmLuTaBeAlTlInCoSiTcGeMoRuAuHeKr
_symmetry_space_group_name_H-M   'P 1'
_cell_length_a   7.95327282
_cell_length_b   7.95327282
_cell_length_c   7.95327282
_cell_angle_alpha   60.00000000
_cell_angle_beta   60.00000000
_cell_angle_gamma   60.00000000
_symmetry_Int_Tables_number   1
_chemical_formula_structural   BaAcPmLuTaBeAlTlInCoSiTcGeMoRuAuHeKr
_chemical_formula_sum
;
Ba1 Ac1 Pm1 Lu1 Ta1 Be1 Al1 Tl1 In1 Co1 Tc1 Si1 Ge1 Mo1 Ru1 Au1 He1
Kr1
;
_cell_volume   355.73176146
_cell_formula_units_Z   1
loop_
 _symmetry_equiv_pos_site_id
 _symmetry_equiv_pos_as_xyz
  1  'x, y, z'
loop_
 _atom_site_type_symbol
 _atom_site_label
 _atom_site_symmetry_multiplicity
 _atom_site_fract_x
 _atom_site_fract_y
 _atom_site_fract_z
 _atom_site_occupancy
  Ge  Ge0  1  0.74999998  0.74999998  0.74999998  1
  Au  Au1  1  0.00000000  0.00000000  0.00000000  1
  Al  Al2  1  0.37499999  0.87499998  0.37499999  1
  Tl  Tl3  1  0.37499999  0.37499999  0.37499999  1
  Ru  Ru4  1  0.37499999  0.37499999  0.87499998  1
  Ac  Ac5  1  0.87499998  0.37499999  0.37499999  1
  Co  Co6  1  0.44038699  0.05961300  0.44038699  1
  Lu  Lu7  1  0.69038698  0.30961299  0.69038698  1
  Tc  Tc8  1  0.44038699  0.05961300  0.05961300  1
  Ba  Ba9  1  0.44038699  0.44038699  0.05961300  1
  He  He10  1  0.05961300  0.05961300  0.44038699  1
  Be  Be11  1  0.05961300  0.44038699  0.44038699  1
  Pm  Pm12  1  0.05961300  0.44038699  0.05961300  1
  Si  Si13  1  0.30961299  0.69038698  0.69038698  1
  Ta  Ta14  1  0.69038698  0.30961299  0.30961299  1
  Kr  Kr15  1  0.69038698  0.69038698  0.30961299  1
  In  In16  1  0.30961299  0.30961299  0.69038698  1
  Mo  Mo17  1  0.30961299  0.69038698  0.30961299  1
