# generated using pymatgen
data_CsLiLuCrSnGeHRuWIClF
_symmetry_space_group_name_H-M   'P 1'
_cell_length_a   4.03574085
_cell_length_b   6.88399220
_cell_length_c   7.68982983
_cell_angle_alpha   90.00000000
_cell_angle_beta   90.00000000
_cell_angle_gamma   90.00000000
_symmetry_Int_Tables_number   1
_chemical_formula_structural   CsLiLuCrSnGeHRuWIClF
_chemical_formula_sum   'Cs1 Li1 Lu1 Cr1 Sn1 Ge1 H1 Ru1 W1 I1 Cl1 F1'
_cell_volume   213.63891782
_cell_formula_units_Z   1
loop_
 _symmetry_equiv_pos_site_id
 _symmetry_equiv_pos_as_xyz
  1  'x, y, z'
loop_
 _atom_site_type_symbol
 _atom_site_label
 _atom_site_symmetry_multiplicity
 _atom_site_fract_x
 _atom_site_fract_y
 _atom_site_fract_z
 _atom_site_occupancy
  H  H0  1  -0.00000000  0.38336099  0.75000002  1
  F  F1  1  -0.00000000  0.61663898  0.25000001  1
  Cs  Cs2  1  0.00000000  0.00000000  0.50000001  1
  Lu  Lu3  1  0.00000000  0.00000000  0.00000000  1
  I  I4  1  0.50000002  0.04169000  0.75000002  1
  Sn  Sn5  1  0.50000002  0.95830997  0.25000001  1
  Ge  Ge6  1  0.50000002  0.30066199  0.07069700  1
  Cr  Cr7  1  0.50000002  0.69933798  0.92930302  1
  Ru  Ru8  1  0.50000002  0.30066199  0.42930301  1
  Cl  Cl9  1  0.50000002  0.69933798  0.57069701  1
  W  W10  1  -0.00000000  0.81628398  0.75000002  1
  Li  Li11  1  -0.00000000  0.18371599  0.25000001  1
