# generated using pymatgen
data_HoHfUCrCdBiHSeNO
_symmetry_space_group_name_H-M   'P 1'
_cell_length_a   6.27676630
_cell_length_b   6.27676630
_cell_length_c   6.27676630
_cell_angle_alpha   60.00000000
_cell_angle_beta   60.00000000
_cell_angle_gamma   60.00000000
_symmetry_Int_Tables_number   1
_chemical_formula_structural   HoHfUCrCdBiHSeNO
_chemical_formula_sum   'Ho1 Hf1 U1 Cr1 Cd1 Bi1 H1 Se1 N1 O1'
_cell_volume   174.86096847
_cell_formula_units_Z   1
loop_
 _symmetry_equiv_pos_site_id
 _symmetry_equiv_pos_as_xyz
  1  'x, y, z'
loop_
 _atom_site_type_symbol
 _atom_site_label
 _atom_site_symmetry_multiplicity
 _atom_site_fract_x
 _atom_site_fract_y
 _atom_site_fract_z
 _atom_site_occupancy
  Cd  Cd0  1  0.75000000  0.75000000  0.75000000  1
  Bi  Bi1  1  0.25000000  0.25000000  0.25000000  1
  Ho  Ho2  1  0.50000000  0.50000000  0.50000000  1
  Cr  Cr3  1  0.00000000  0.00000000  0.00000000  1
  H  H4  1  0.21653900  0.78346100  0.21653900  1
  Se  Se5  1  0.78346100  0.21653900  0.78346100  1
  Hf  Hf6  1  0.21653900  0.78346100  0.78346100  1
  O  O7  1  0.78346100  0.21653900  0.21653900  1
  U  U8  1  0.21653900  0.21653900  0.78346100  1
  N  N9  1  0.78346100  0.78346100  0.21653900  1
