# generated using pymatgen
data_CaAcCeTmV3PtSeBr
_symmetry_space_group_name_H-M   'P 1'
_cell_length_a   6.90697813
_cell_length_b   6.90697813
_cell_length_c   6.90697813
_cell_angle_alpha   60.00000000
_cell_angle_beta   60.00000000
_cell_angle_gamma   60.00000000
_symmetry_Int_Tables_number   1
_chemical_formula_structural   CaAcCeTmV3PtSeBr
_chemical_formula_sum   'Ca1 Ac1 Ce1 Tm1 V3 Pt1 Se1 Br1'
_cell_volume   232.99641825
_cell_formula_units_Z   1
loop_
 _symmetry_equiv_pos_site_id
 _symmetry_equiv_pos_as_xyz
  1  'x, y, z'
loop_
 _atom_site_type_symbol
 _atom_site_label
 _atom_site_symmetry_multiplicity
 _atom_site_fract_x
 _atom_site_fract_y
 _atom_site_fract_z
 _atom_site_occupancy
  V  V0  1  0.25000000  0.25000000  0.25000000  1
  Tm  Tm1  1  0.74999999  0.74999999  0.74999999  1
  Pt  Pt2  1  0.49999999  0.49999999  0.49999999  1
  Ac  Ac3  1  0.00000000  0.00000000  0.00000000  1
  V  V4  1  0.23346800  0.76653199  0.23346800  1
  V  V5  1  0.23346800  0.23346800  0.76653199  1
  Br  Br6  1  0.76653199  0.23346800  0.76653199  1
  Se  Se7  1  0.23346800  0.76653199  0.76653199  1
  Ca  Ca8  1  0.76653199  0.23346800  0.23346800  1
  Ce  Ce9  1  0.76653199  0.76653199  0.23346800  1
