# generated using pymatgen
data_YbHoSiPtRh
_symmetry_space_group_name_H-M   'P 1'
_cell_length_a   4.15606546
_cell_length_b   4.15606546
_cell_length_c   10.47899723
_cell_angle_alpha   78.56217194
_cell_angle_beta   78.56217194
_cell_angle_gamma   60.00001144
_symmetry_Int_Tables_number   1
_chemical_formula_structural   YbHoSiPtRh
_chemical_formula_sum   'Yb1 Ho1 Si1 Pt1 Rh1'
_cell_volume   152.58791988
_cell_formula_units_Z   1
loop_
 _symmetry_equiv_pos_site_id
 _symmetry_equiv_pos_as_xyz
  1  'x, y, z'
loop_
 _atom_site_type_symbol
 _atom_site_label
 _atom_site_symmetry_multiplicity
 _atom_site_fract_x
 _atom_site_fract_y
 _atom_site_fract_z
 _atom_site_occupancy
  Yb  Yb0  1  0.38942299  0.38942298  0.83173097  1
  Ho  Ho1  1  0.60224699  0.60224698  0.19325899  1
  Si  Si2  1  0.21062800  0.21062799  0.36811599  1
  Pt  Pt3  1  0.99632598  0.99632596  0.01102199  1
  Rh  Rh4  1  0.77227499  0.77227497  0.68317498  1
