# generated using pymatgen
data_LiCaEuYHoErTmPuMgCuReAgBiAuSeF
_symmetry_space_group_name_H-M   'P 1'
_cell_length_a   4.97488594
_cell_length_b   5.30782557
_cell_length_c   6.21696377
_cell_angle_alpha   90.00000000
_cell_angle_beta   90.00000000
_cell_angle_gamma   89.64942169
_symmetry_Int_Tables_number   1
_chemical_formula_structural   LiCaEuYHoErTmPuMgCuReAgBiAuSeF
_chemical_formula_sum
'Li1 Ca1 Eu1 Y1 Ho1 Er1 Tm1 Pu1 Mg1 Re1 Cu1 Ag1 Bi1 Au1 Se1 F1'
_cell_volume   164.16099529
_cell_formula_units_Z   1
loop_
 _symmetry_equiv_pos_site_id
 _symmetry_equiv_pos_as_xyz
  1  'x, y, z'
loop_
 _atom_site_type_symbol
 _atom_site_label
 _atom_site_symmetry_multiplicity
 _atom_site_fract_x
 _atom_site_fract_y
 _atom_site_fract_z
 _atom_site_occupancy
  Y  Y0  1  0.49067200  0.84440497  1.00000004  1
  Li  Li1  1  0.99204101  0.67343197  0.75098803  1
  Re  Re2  1  0.49057300  0.32655899  0.74613603  1
  Ca  Ca3  1  0.49057300  0.32655899  0.25386401  1
  Mg  Mg4  1  0.99204101  0.67343197  0.24901201  1
  Au  Au5  1  0.99357301  0.17210699  0.50000002  1
  Ag  Ag6  1  0.99975201  0.17423699  1.00000004  1
  Bi  Bi7  1  0.49862900  0.81858297  0.50000002  1
  Ho  Ho8  1  0.89887801  0.89686097  1.00000004  1
  Se  Se9  1  0.31220700  0.18052199  1.00000004  1
  Tm  Tm10  1  0.88929001  0.31800899  0.79840703  1
  Cu  Cu11  1  0.39030300  0.68695197  0.70699503  1
  Er  Er12  1  0.81103300  0.80077797  0.50000002  1
  F  F13  1  0.41343600  0.10260200  0.50000002  1
  Eu  Eu14  1  0.39030300  0.68695197  0.29300501  1
  Pu  Pu15  1  0.88929001  0.31800899  0.20159301  1
