# generated using pymatgen
data_SmPuThZrAlVCrSiBPdXeI
_symmetry_space_group_name_H-M   'P 1'
_cell_length_a   4.83091593
_cell_length_b   4.83091688
_cell_length_c   7.36745787
_cell_angle_alpha   90.00000000
_cell_angle_beta   90.00000000
_cell_angle_gamma   119.99999237
_symmetry_Int_Tables_number   1
_chemical_formula_structural   SmPuThZrAlVCrSiBPdXeI
_chemical_formula_sum
'Sm1 Pu1 Th1 Zr1 Al1 V1 Cr1 Si1 B1 Pd1 Xe1 I1'
_cell_volume   148.90434508
_cell_formula_units_Z   1
loop_
 _symmetry_equiv_pos_site_id
 _symmetry_equiv_pos_as_xyz
  1  'x, y, z'
loop_
 _atom_site_type_symbol
 _atom_site_label
 _atom_site_symmetry_multiplicity
 _atom_site_fract_x
 _atom_site_fract_y
 _atom_site_fract_z
 _atom_site_occupancy
  Pu  Pu0  1  0.66666667  0.33333333  0.05808700  1
  V  V1  1  0.33333332  0.66666666  0.94191302  1
  Zr  Zr2  1  0.33333332  0.66666666  0.55808701  1
  Sm  Sm3  1  0.66666667  0.33333333  0.44191301  1
  I  I4  1  0.17096899  0.34193799  0.25000000  1
  Th  Th5  1  0.17096898  0.82903099  0.25000000  1
  B  B6  1  0.65806198  0.82903099  0.25000000  1
  Cr  Cr7  1  0.82903099  0.65806199  0.75000001  1
  Si  Si8  1  0.82903101  0.17096900  0.75000001  1
  Pd  Pd9  1  0.34193800  0.17096900  0.75000001  1
  Xe  Xe10  1  0.00000000  0.00000000  0.00000000  1
  Al  Al11  1  0.00000000  0.00000000  0.50000001  1
