# generated using pymatgen
data_CsSrLuCdInAsRhXeNO
_symmetry_space_group_name_H-M   'P 1'
_cell_length_a   4.30277777
_cell_length_b   7.45914841
_cell_length_c   9.56842899
_cell_angle_alpha   69.49277496
_cell_angle_beta   77.00638580
_cell_angle_gamma   73.23644257
_symmetry_Int_Tables_number   1
_chemical_formula_structural   CsSrLuCdInAsRhXeNO
_chemical_formula_sum   'Cs1 Sr1 Lu1 Cd1 In1 As1 Rh1 Xe1 N1 O1'
_cell_volume   272.77732959
_cell_formula_units_Z   1
loop_
 _symmetry_equiv_pos_site_id
 _symmetry_equiv_pos_as_xyz
  1  'x, y, z'
loop_
 _atom_site_type_symbol
 _atom_site_label
 _atom_site_symmetry_multiplicity
 _atom_site_fract_x
 _atom_site_fract_y
 _atom_site_fract_z
 _atom_site_occupancy
  Rh  Rh0  1  0.17443103  0.34470601  0.30643199  1
  O  O1  1  0.82556909  0.65529401  0.69356797  1
  Lu  Lu2  1  0.00000000  0.00000000  0.00000000  1
  In  In3  1  0.55309905  0.18504400  0.70875800  1
  Xe  Xe4  1  0.44690108  0.81495601  0.29124196  1
  Cd  Cd5  1  0.14922401  0.01582800  0.68572401  1
  As  As6  1  0.85077612  0.98417201  0.31427595  1
  N  N7  1  0.38290604  0.29845500  0.93573300  1
  Sr  Sr8  1  0.61709409  0.70154501  0.06426696  1
  Cs  Cs9  1  0.50000006  0.50000001  0.49999998  1
