# generated using pymatgen
data_BaCaYLuCuHg2PRh2AuSXeKr
_symmetry_space_group_name_H-M   'P 1'
_cell_length_a   8.11759949
_cell_length_b   8.11759949
_cell_length_c   8.11759949
_cell_angle_alpha   109.47122192
_cell_angle_beta   109.47122192
_cell_angle_gamma   109.47122192
_symmetry_Int_Tables_number   1
_chemical_formula_structural   BaCaYLuCuHg2PRh2AuSXeKr
_chemical_formula_sum
'Ba1 Ca1 Y1 Lu1 Cu1 Hg2 P1 Rh2 Au1 S1 Xe1 Kr1'
_cell_volume   411.77592204
_cell_formula_units_Z   1
loop_
 _symmetry_equiv_pos_site_id
 _symmetry_equiv_pos_as_xyz
  1  'x, y, z'
loop_
 _atom_site_type_symbol
 _atom_site_label
 _atom_site_symmetry_multiplicity
 _atom_site_fract_x
 _atom_site_fract_y
 _atom_site_fract_z
 _atom_site_occupancy
  Ba  Ba0  1  0.81005397  0.06005400  0.74999998  1
  Rh  Rh1  1  0.43994603  0.74999999  0.18994604  1
  Ca  Ca2  1  0.75000001  0.68994599  0.93994601  1
  Lu  Lu3  1  0.06005401  0.25000000  0.31005400  1
  S  S4  1  0.25000004  0.81005399  0.56005402  1
  Kr  Kr5  1  0.68994600  0.43994599  0.25000003  1
  Rh  Rh6  1  0.99999999  0.49999999  0.54057302  1
  Y  Y7  1  0.04057306  0.99999999  1.00000000  1
  Hg  Hg8  1  0.45942701  0.45942699  0.95942699  1
  Hg  Hg9  1  0.49999998  0.04057300  0.49999999  1
  Xe  Xe10  1  0.99999999  0.49999999  0.01402705  1
  Au  Au11  1  0.51402704  0.99999999  0.00000007  1
  P  P12  1  0.50000001  0.51402699  0.50000001  1
  Cu  Cu13  1  0.98597302  0.98597299  0.48597305  1
