# generated using pymatgen
data_SrCaNd2LuHfScNb2CoTcHgRuIBrNClO
_symmetry_space_group_name_H-M   'P 1'
_cell_length_a   5.20734596
_cell_length_b   5.95490789
_cell_length_c   8.75201702
_cell_angle_alpha   109.48320007
_cell_angle_beta   107.30715179
_cell_angle_gamma   90.00000000
_symmetry_Int_Tables_number   1
_chemical_formula_structural   SrCaNd2LuHfScNb2CoTcHgRuIBrNClO
_chemical_formula_sum
'Sr1 Ca1 Nd2 Lu1 Hf1 Sc1 Nb2 Co1 Tc1 Hg1 Ru1 I1 Br1 N1 Cl1 O1'
_cell_volume   242.78047648
_cell_formula_units_Z   1
loop_
 _symmetry_equiv_pos_site_id
 _symmetry_equiv_pos_as_xyz
  1  'x, y, z'
loop_
 _atom_site_type_symbol
 _atom_site_label
 _atom_site_symmetry_multiplicity
 _atom_site_fract_x
 _atom_site_fract_y
 _atom_site_fract_z
 _atom_site_occupancy
  O  O0  1  0.55603500  0.49779199  0.19164300  1
  Ru  Ru1  1  0.36439200  0.50220799  0.80835701  1
  Cl  Cl2  1  0.85985400  0.80685498  0.80880701  1
  I  I3  1  0.05104700  0.19314500  0.19119300  1
  Br  Br4  1  0.46821100  0.87073798  0.32289800  1
  Co  Co5  1  0.14531300  0.12926200  0.67710201  1
  Nd  Nd6  1  0.76641100  0.86778298  0.55430100  1
  N  N7  1  0.21211000  0.13221700  0.44569901  1
  Lu  Lu8  1  0.50294300  0.49999999  -0.00000001  1
  Tc  Tc9  1  0.94132201  0.00000000  0.00000000  1
  Hg  Hg10  1  0.28586600  0.37912399  0.20138900  1
  Nd  Nd11  1  0.08447700  0.62087599  0.79861101  1
  Nb  Nb12  1  0.56999700  0.65344898  0.76150201  1
  Nb  Nb13  1  0.80849500  0.34655099  0.23849800  1
  Hf  Hf14  1  0.62033200  0.77065898  0.33521900  1
  Sc  Sc15  1  0.28511300  0.22934099  0.66478101  1
  Sr  Sr16  1  0.85284300  0.95320698  0.67890500  1
  Ca  Ca17  1  0.17393800  0.04679300  0.32109501  1
