# generated using pymatgen
data_GdNeCsKCaLaYbPrZrScTaTiVHgPdO
_symmetry_space_group_name_H-M   'P 1'
_cell_length_a   3.05267310
_cell_length_b   5.07832384
_cell_length_c   9.86334229
_cell_angle_alpha   103.10762787
_cell_angle_beta   90.00000000
_cell_angle_gamma   90.00000000
_symmetry_Int_Tables_number   1
_chemical_formula_structural   GdNeCsKCaLaYbPrZrScTaTiVHgPdO
_chemical_formula_sum
'Gd1 Ne1 Cs1 K1 Ca1 Yb1 La1 Pr1 Zr1 Sc1 Ta1 Ti1 V1 Hg1 Pd1 O1'
_cell_volume   148.92224640
_cell_formula_units_Z   1
loop_
 _symmetry_equiv_pos_site_id
 _symmetry_equiv_pos_as_xyz
  1  'x, y, z'
loop_
 _atom_site_type_symbol
 _atom_site_label
 _atom_site_symmetry_multiplicity
 _atom_site_fract_x
 _atom_site_fract_y
 _atom_site_fract_z
 _atom_site_occupancy
  Gd  Gd0  1  0.24999999  0.12538201  0.62450702  1
  Ne  Ne1  1  0.74999998  0.37526102  0.87428503  1
  Yb  Yb2  1  0.24999999  0.62473903  0.12571502  1
  K  K3  1  0.74999998  0.87461804  0.37549303  1
  Hg  Hg4  1  0.24999999  0.87645604  0.87355804  1
  Sc  Sc5  1  0.74999998  0.12354401  0.12644201  1
  Pr  Pr6  1  0.24999999  0.37487402  0.37688602  1
  V  V7  1  0.74999998  0.62512603  0.62311403  1
  Pd  Pd8  1  0.24999999  0.52404002  0.74874403  1
  Ti  Ti9  1  0.74999998  0.77040203  0.00276802  1
  Cs  Cs10  1  0.24999999  0.01924700  0.25452501  1
  Ta  Ta11  1  0.74999998  0.27324001  0.50068502  1
  O  O12  1  0.24999999  0.72676003  0.49931503  1
  Zr  Zr13  1  0.74999998  0.98075304  0.74547504  1
  Ca  Ca14  1  0.24999999  0.22959801  0.99723203  1
  La  La15  1  0.74999998  0.47596002  0.25125602  1
