# generated using pymatgen
data_HoErNpTlZnTcGePtNF
_symmetry_space_group_name_H-M   'P 1'
_cell_length_a   8.25491047
_cell_length_b   8.25491047
_cell_length_c   8.25491047
_cell_angle_alpha   60.00000000
_cell_angle_beta   60.00000000
_cell_angle_gamma   60.00000000
_symmetry_Int_Tables_number   1
_chemical_formula_structural   HoErNpTlZnTcGePtNF
_chemical_formula_sum   'Ho1 Er1 Np1 Tl1 Zn1 Tc1 Ge1 Pt1 N1 F1'
_cell_volume   397.76091340
_cell_formula_units_Z   1
loop_
 _symmetry_equiv_pos_site_id
 _symmetry_equiv_pos_as_xyz
  1  'x, y, z'
loop_
 _atom_site_type_symbol
 _atom_site_label
 _atom_site_symmetry_multiplicity
 _atom_site_fract_x
 _atom_site_fract_y
 _atom_site_fract_z
 _atom_site_occupancy
  Ge  Ge0  1  0.24999999  0.24999999  0.24999999  1
  Pt  Pt1  1  0.74999998  0.74999998  0.74999998  1
  N  N2  1  0.49999999  0.49999999  0.49999999  1
  Tl  Tl3  1  0.00000000  0.00000000  0.00000000  1
  Tc  Tc4  1  0.23457199  0.76542798  0.23457199  1
  Zn  Zn5  1  0.23457199  0.23457199  0.76542798  1
  Ho  Ho6  1  0.76542798  0.23457199  0.76542798  1
  Er  Er7  1  0.23457199  0.76542798  0.76542798  1
  F  F8  1  0.76542798  0.23457199  0.23457199  1
  Np  Np9  1  0.76542798  0.76542798  0.23457199  1
