# generated using pymatgen
data_NaMgCuNiBSbTeWSKrHe
_symmetry_space_group_name_H-M   'P 1'
_cell_length_a   3.93270206
_cell_length_b   3.94580007
_cell_length_c   11.35639858
_cell_angle_alpha   100.00451660
_cell_angle_beta   90.00000000
_cell_angle_gamma   90.00000000
_symmetry_Int_Tables_number   1
_chemical_formula_structural   NaMgCuNiBSbTeWSKrHe
_chemical_formula_sum   'Na1 Mg1 Cu1 Ni1 B1 Sb1 Te1 W1 S1 Kr1 He1'
_cell_volume   173.54502556
_cell_formula_units_Z   1
loop_
 _symmetry_equiv_pos_site_id
 _symmetry_equiv_pos_as_xyz
  1  'x, y, z'
loop_
 _atom_site_type_symbol
 _atom_site_label
 _atom_site_symmetry_multiplicity
 _atom_site_fract_x
 _atom_site_fract_y
 _atom_site_fract_z
 _atom_site_occupancy
  W  W0  1  0.00000000  0.76582098  0.53164100  1
  Na  Na1  1  0.00000000  0.00102600  0.00205300  1
  Mg  Mg2  1  0.49999999  0.60339899  0.20679800  1
  Kr  Kr3  1  0.49999999  0.39776099  0.79552201  1
  Sb  Sb4  1  0.49999999  0.91560598  0.83121200  1
  Ni  Ni5  1  0.49999999  0.08301900  0.16603800  1
  Te  Te6  1  0.00000000  0.58276599  0.16553199  1
  S  S7  1  0.00000000  0.41637999  0.83276001  1
  B  B8  1  0.49999999  0.68368298  0.36736500  1
  He  He9  1  0.49999999  0.31640299  0.63280501  1
  Cu  Cu10  1  0.49999999  0.49933699  0.99867501  1
