# generated using pymatgen
data_PuCuHgTeAsCSHe
_symmetry_space_group_name_H-M   'P 1'
_cell_length_a   5.80309677
_cell_length_b   5.80309677
_cell_length_c   5.80309677
_cell_angle_alpha   60.00000000
_cell_angle_beta   60.00000000
_cell_angle_gamma   60.00000000
_symmetry_Int_Tables_number   1
_chemical_formula_structural   PuCuHgTeAsCSHe
_chemical_formula_sum   'Pu1 Cu1 Hg1 Te1 As1 C1 S1 He1'
_cell_volume   138.18612567
_cell_formula_units_Z   1
loop_
 _symmetry_equiv_pos_site_id
 _symmetry_equiv_pos_as_xyz
  1  'x, y, z'
loop_
 _atom_site_type_symbol
 _atom_site_label
 _atom_site_symmetry_multiplicity
 _atom_site_fract_x
 _atom_site_fract_y
 _atom_site_fract_z
 _atom_site_occupancy
  Pu  Pu0  1  0.49999999  0.49999999  0.49999999  1
  S  S1  1  0.25000000  0.25000000  0.25000000  1
  Te  Te2  1  0.74999999  0.74999999  0.74999999  1
  C  C3  1  0.00000000  0.00000000  0.00000000  1
  As  As4  1  0.37499999  0.87499998  0.87499998  1
  Hg  Hg5  1  0.87499998  0.87499998  0.37499999  1
  Cu  Cu6  1  0.87499998  0.87499998  0.87499998  1
  He  He7  1  0.87499998  0.37499999  0.87499998  1
