# generated using pymatgen
data_Cs2PaTiTcHg
_symmetry_space_group_name_H-M   'P 1'
_cell_length_a   4.06024790
_cell_length_b   5.23829794
_cell_length_c   5.23829889
_cell_angle_alpha   60.00000381
_cell_angle_beta   90.00000000
_cell_angle_gamma   90.00000000
_symmetry_Int_Tables_number   1
_chemical_formula_structural   Cs2PaTiTcHg
_chemical_formula_sum   'Cs2 Pa1 Ti1 Tc1 Hg1'
_cell_volume   96.48585954
_cell_formula_units_Z   1
loop_
 _symmetry_equiv_pos_site_id
 _symmetry_equiv_pos_as_xyz
  1  'x, y, z'
loop_
 _atom_site_type_symbol
 _atom_site_label
 _atom_site_symmetry_multiplicity
 _atom_site_fract_x
 _atom_site_fract_y
 _atom_site_fract_z
 _atom_site_occupancy
  Cs  Cs0  1  -0.00000000  0.33333334  0.33333332  1
  Pa  Pa1  1  0.00000000  0.66666668  0.66666664  1
  Hg  Hg2  1  0.00000000  0.00000000  0.00000000  1
  Tc  Tc3  1  0.50000001  0.83510302  0.83510396  1
  Cs  Cs4  1  0.50000001  0.83510302  0.32979398  1
  Ti  Ti5  1  0.50000001  0.32979301  0.83510397  1
