# generated using pymatgen
data_CsTbNpVZnCdFeHgRh2BrF
_symmetry_space_group_name_H-M   'P 1'
_cell_length_a   4.97427559
_cell_length_b   5.00243616
_cell_length_c   7.97844124
_cell_angle_alpha   86.29912567
_cell_angle_beta   86.81542206
_cell_angle_gamma   64.64844513
_symmetry_Int_Tables_number   1
_chemical_formula_structural   CsTbNpVZnCdFeHgRh2BrF
_chemical_formula_sum   'Cs1 Tb1 Np1 V1 Zn1 Cd1 Fe1 Hg1 Rh2 Br1 F1'
_cell_volume   178.95252141
_cell_formula_units_Z   1
loop_
 _symmetry_equiv_pos_site_id
 _symmetry_equiv_pos_as_xyz
  1  'x, y, z'
loop_
 _atom_site_type_symbol
 _atom_site_label
 _atom_site_symmetry_multiplicity
 _atom_site_fract_x
 _atom_site_fract_y
 _atom_site_fract_z
 _atom_site_occupancy
  Zn  Zn0  1  0.00000000  0.00000000  0.00000000  1
  Np  Np1  1  0.00000000  0.00000000  0.50000001  1
  Tb  Tb2  1  0.36391000  0.36792299  0.28805800  1
  V  V3  1  0.63609000  0.63207698  0.71194200  1
  F  F4  1  0.75742800  0.29278999  0.69045202  1
  Hg  Hg5  1  0.69288900  0.68695698  0.88938701  1
  Cd  Cd6  1  0.24257200  0.70720998  0.30954798  1
  Rh  Rh7  1  0.22531200  0.24053299  0.43232300  1
  Br  Br8  1  0.77468800  0.75946697  0.56767700  1
  Rh  Rh9  1  0.71013600  0.22001299  0.31174101  1
  Fe  Fe10  1  0.30711100  0.31304299  0.11061300  1
  Cs  Cs11  1  0.28986400  0.77998697  0.68825899  1
