# generated using pymatgen
data_SrNdGdPaHgAsOsPbF
_symmetry_space_group_name_H-M   'P 1'
_cell_length_a   3.55672789
_cell_length_b   3.55672741
_cell_length_c   32.58847809
_cell_angle_alpha   90.00000000
_cell_angle_beta   90.00000000
_cell_angle_gamma   120.00000763
_symmetry_Int_Tables_number   1
_chemical_formula_structural   SrNdGdPaHgAsOsPbF
_chemical_formula_sum   'Sr1 Nd1 Gd1 Pa1 Hg1 As1 Os1 Pb1 F1'
_cell_volume   357.02275673
_cell_formula_units_Z   1
loop_
 _symmetry_equiv_pos_site_id
 _symmetry_equiv_pos_as_xyz
  1  'x, y, z'
loop_
 _atom_site_type_symbol
 _atom_site_label
 _atom_site_symmetry_multiplicity
 _atom_site_fract_x
 _atom_site_fract_y
 _atom_site_fract_z
 _atom_site_occupancy
  F  F0  1  0.00000000  0.00000000  0.94426400  1
  Os  Os1  1  0.66666670  0.33333333  0.28704600  1
  Pa  Pa2  1  0.66666670  0.33333333  0.82442100  1
  Hg  Hg3  1  0.66666670  0.33333333  0.17557900  1
  Gd  Gd4  1  0.66666670  0.33333333  0.71295400  1
  Sr  Sr5  1  0.00000000  0.00000000  0.05573600  1
  Nd  Nd6  1  0.00000000  0.00000000  0.23134400  1
  As  As7  1  0.00000000  0.00000000  0.76865600  1
  Pb  Pb8  1  0.66666670  0.33333333  -0.00000000  1
