# generated using pymatgen
data_InFeTeMoBrN
_symmetry_space_group_name_H-M   'P 1'
_cell_length_a   3.76736093
_cell_length_b   6.75577116
_cell_length_c   6.75577116
_cell_angle_alpha   90.00000000
_cell_angle_beta   90.00000000
_cell_angle_gamma   90.00000000
_symmetry_Int_Tables_number   1
_chemical_formula_structural   InFeTeMoBrN
_chemical_formula_sum   'In1 Fe1 Te1 Mo1 Br1 N1'
_cell_volume   171.94402524
_cell_formula_units_Z   1
loop_
 _symmetry_equiv_pos_site_id
 _symmetry_equiv_pos_as_xyz
  1  'x, y, z'
loop_
 _atom_site_type_symbol
 _atom_site_label
 _atom_site_symmetry_multiplicity
 _atom_site_fract_x
 _atom_site_fract_y
 _atom_site_fract_z
 _atom_site_occupancy
  Te  Te0  1  0.00000000  0.00000000  0.00000000  1
  N  N1  1  0.50000001  0.49999999  0.49999999  1
  Mo  Mo2  1  0.00000000  0.29128499  0.29128499  1
  In  In3  1  1.00000002  0.70871498  0.70871498  1
  Fe  Fe4  1  0.50000001  0.20871500  0.79128498  1
  Br  Br5  1  0.50000001  0.79128498  0.20871500  1
