# generated using pymatgen
data_CsNaAcHf2ZrNp2TaMnTlTc3GeSbPH2Pd
_symmetry_space_group_name_H-M   'P 1'
_cell_length_a   5.19441700
_cell_length_b   5.46808290
_cell_length_c   7.54905939
_cell_angle_alpha   85.80796814
_cell_angle_beta   89.91940308
_cell_angle_gamma   89.87445068
_symmetry_Int_Tables_number   1
_chemical_formula_structural   CsNaAcHf2ZrNp2TaMnTlTc3GeSbPH2Pd
_chemical_formula_sum
'Cs1 Na1 Ac1 Hf2 Zr1 Np2 Ta1 Mn1 Tl1 Tc3 Ge1 Sb1 P1 H2 Pd1'
_cell_volume   213.84540189
_cell_formula_units_Z   1
loop_
 _symmetry_equiv_pos_site_id
 _symmetry_equiv_pos_as_xyz
  1  'x, y, z'
loop_
 _atom_site_type_symbol
 _atom_site_label
 _atom_site_symmetry_multiplicity
 _atom_site_fract_x
 _atom_site_fract_y
 _atom_site_fract_z
 _atom_site_occupancy
  Ta  Ta0  1  0.99803801  0.58993802  0.26684301  1
  Ac  Ac1  1  0.50349100  0.06371100  0.81074098  1
  Hf  Hf2  1  0.00607701  0.56084902  0.79972801  1
  Tc  Tc3  1  0.49144200  0.02088900  0.24112699  1
  Tc  Tc4  1  0.99847900  0.00174400  0.99832397  1
  Zr  Zr5  1  0.50258701  0.50684902  0.50497301  1
  H  H6  1  0.00453700  0.00740900  0.50132799  1
  Np  Np7  1  0.49735401  0.49929102  0.00309802  1
  Mn  Mn8  1  0.68871801  0.81460903  0.42605302  1
  Pd  Pd9  1  0.88069302  0.99537604  0.73775403  1
  Sb  Sb10  1  0.68463000  0.19431401  0.04805400  1
  Cs  Cs11  1  0.82912101  0.31277001  0.42962900  1
  Hf  Hf12  1  0.20932900  0.30228301  0.93534200  1
  H  H13  1  0.63421301  0.49203502  0.75073300  1
  Tc  Tc14  1  0.36879601  0.48601002  0.24788301  1
  Na  Na15  1  0.79813501  0.68647002  0.05045602  1
  Tl  Tl16  1  0.16852901  0.67519602  0.56015602  1
  Ge  Ge17  1  0.30324701  0.79079403  0.93820102  1
  P  P18  1  0.11166702  0.97829504  0.25770304  1
  Np  Np19  1  0.32091300  0.16356801  0.56307700  1
