# generated using pymatgen
data_TbAlCd3ReSiAgRh2SeO
_symmetry_space_group_name_H-M   'P 1'
_cell_length_a   6.91470432
_cell_length_b   6.91470432
_cell_length_c   9.65514088
_cell_angle_alpha   75.34576416
_cell_angle_beta   75.34576416
_cell_angle_gamma   87.66756439
_symmetry_Int_Tables_number   1
_chemical_formula_structural   TbAlCd3ReSiAgRh2SeO
_chemical_formula_sum   'Tb1 Al1 Cd3 Si1 Re1 Ag1 Rh2 Se1 O1'
_cell_volume   431.96277682
_cell_formula_units_Z   1
loop_
 _symmetry_equiv_pos_site_id
 _symmetry_equiv_pos_as_xyz
  1  'x, y, z'
loop_
 _atom_site_type_symbol
 _atom_site_label
 _atom_site_symmetry_multiplicity
 _atom_site_fract_x
 _atom_site_fract_y
 _atom_site_fract_z
 _atom_site_occupancy
  Rh  Rh0  1  0.14870507  0.85129501  0.24999998  1
  O  O1  1  0.85129502  0.14870500  0.75000001  1
  Al  Al2  1  0.75644306  0.64964700  0.01907297  1
  Si  Si3  1  0.35035302  0.24355700  0.48092701  1
  Cd  Cd4  1  0.24355703  0.35035300  0.98092702  1
  Cd  Cd5  1  0.64964707  0.75644301  0.51907299  1
  Ag  Ag6  1  0.21686107  0.78313901  0.75000000  1
  Re  Re7  1  0.78313902  0.21686100  0.24999999  1
  Tb  Tb8  1  0.09363305  0.65123000  0.64406400  1
  Rh  Rh9  1  0.34877008  0.90636701  0.85593600  1
  Se  Se10  1  0.65123001  0.09363300  0.14406399  1
  Cd  Cd11  1  0.90636703  0.34877000  0.35593599  1
