# generated using pymatgen
data_CsPmNdPuMn2NbCrInGaAsIrWOF
_symmetry_space_group_name_H-M   'P 1'
_cell_length_a   5.77706242
_cell_length_b   5.77706242
_cell_length_c   7.93713474
_cell_angle_alpha   69.12445831
_cell_angle_beta   69.12445831
_cell_angle_gamma   73.05545044
_symmetry_Int_Tables_number   1
_chemical_formula_structural   CsPmNdPuMn2NbCrInGaAsIrWOF
_chemical_formula_sum
'Cs1 Pm1 Nd1 Pu1 Mn2 Nb1 Cr1 In1 Ga1 As1 Ir1 W1 O1 F1'
_cell_volume   227.12056885
_cell_formula_units_Z   1
loop_
 _symmetry_equiv_pos_site_id
 _symmetry_equiv_pos_as_xyz
  1  'x, y, z'
loop_
 _atom_site_type_symbol
 _atom_site_label
 _atom_site_symmetry_multiplicity
 _atom_site_fract_x
 _atom_site_fract_y
 _atom_site_fract_z
 _atom_site_occupancy
  Mn  Mn0  1  0.00000000  0.00000000  0.00000000  1
  Nd  Nd1  1  0.49543304  0.49543300  0.23496999  1
  W  W2  1  0.50456704  0.50456700  0.76502999  1
  Pm  Pm3  1  0.00000000  0.00000000  0.50000001  1
  Ir  Ir4  1  0.19349206  0.77695599  0.30836998  1
  Nb  Nb5  1  0.22304407  0.80650799  0.69162999  1
  Cr  Cr6  1  0.80650802  0.22304400  0.69163000  1
  In  In7  1  0.77695602  0.19349200  0.30836999  1
  Ga  Ga8  1  0.50000004  0.50000000  0.49999999  1
  Pu  Pu9  1  0.66977503  0.33022500  -0.00000002  1
  Cs  Cs10  1  0.33022506  0.66977499  -0.00000002  1
  As  As11  1  0.75311807  0.75311799  0.64771498  1
  Mn  Mn12  1  0.24688202  0.24688200  0.35228500  1
  F  F13  1  0.73352206  0.73352199  0.10894597  1
  O  O14  1  0.26647802  0.26647800  0.89105401  1
