# generated using pymatgen
data_CaYbLuTl
_symmetry_space_group_name_H-M   'P 1'
_cell_length_a   4.32632351
_cell_length_b   4.32632351
_cell_length_c   8.07708645
_cell_angle_alpha   74.46574402
_cell_angle_beta   74.46574402
_cell_angle_gamma   60.00000381
_symmetry_Int_Tables_number   1
_chemical_formula_structural   CaYbLuTl
_chemical_formula_sum   'Ca1 Yb1 Lu1 Tl1'
_cell_volume   124.50757292
_cell_formula_units_Z   1
loop_
 _symmetry_equiv_pos_site_id
 _symmetry_equiv_pos_as_xyz
  1  'x, y, z'
loop_
 _atom_site_type_symbol
 _atom_site_label
 _atom_site_symmetry_multiplicity
 _atom_site_fract_x
 _atom_site_fract_y
 _atom_site_fract_z
 _atom_site_occupancy
  Lu  Lu0  1  0.00000000  0.00000000  0.00000000  1
  Ca  Ca1  1  0.50000001  0.50000003  0.49999997  1
  Yb  Yb2  1  0.76752702  0.76752704  0.69741895  1
  Tl  Tl3  1  0.23247301  0.23247301  0.30258098  1
