# generated using pymatgen
data_CaCeEuDyPuHf2MgTlInNiBTePIrPdWHeOsC
_symmetry_space_group_name_H-M   'P 1'
_cell_length_a   4.17551899
_cell_length_b   4.17551947
_cell_length_c   39.70955658
_cell_angle_alpha   86.98624420
_cell_angle_beta   86.98624420
_cell_angle_gamma   59.99999237
_symmetry_Int_Tables_number   1
_chemical_formula_structural   CaCeEuDyPuHf2MgTlInNiBTePIrPdWHeOsC
_chemical_formula_sum
;
Ca1 Ce1 Eu1 Dy1 Pu1 Hf2 Mg1 Tl1 In1 Ni1 B1 Te1 P1 Pd1 Ir1 W1 He1 Os1
C1
;
_cell_volume   598.47334698
_cell_formula_units_Z   1
loop_
 _symmetry_equiv_pos_site_id
 _symmetry_equiv_pos_as_xyz
  1  'x, y, z'
loop_
 _atom_site_type_symbol
 _atom_site_label
 _atom_site_symmetry_multiplicity
 _atom_site_fract_x
 _atom_site_fract_y
 _atom_site_fract_z
 _atom_site_occupancy
  Te  Te0  1  0.64631101  0.64631004  0.06106900  1
  Pu  Pu1  1  0.84571801  0.84571805  0.46284599  1
  W  W2  1  0.24572000  0.24572001  0.26284000  1
  Hf  Hf3  1  0.04542900  0.04543000  0.86371098  1
  Dy  Dy4  1  0.44571701  0.44571803  0.66284699  1
  P  P5  1  0.95457101  0.95457005  0.13628900  1
  Tl  Tl6  1  0.15428200  0.15428201  0.53715399  1
  He  He7  1  0.55428301  0.55428203  0.33715300  1
  Ce  Ce8  1  0.35368900  0.35369002  0.93893098  1
  In  In9  1  0.75428001  0.75428004  0.73715999  1
  Ni  Ni10  1  0.39997401  0.39997302  0.80007998  1
  Os  Os11  1  0.79999701  0.79999805  0.60000799  1
  Mg  Mg12  1  0.20000300  0.20000201  0.39999199  1
  Eu  Eu13  1  0.60002601  0.60002703  0.19992000  1
  Hf  Hf14  1  0.30039800  0.30039902  0.09880500  1
  Ca  Ca15  1  0.50000001  0.50000003  0.49999999  1
  B  B16  1  0.89999901  0.90000005  0.30000200  1
  C  C17  1  0.69960201  0.69960104  0.90119498  1
  Pd  Pd18  1  0.10000100  0.10000001  0.69999798  1
  Ir  Ir19  1  0.00000000  0.00000000  0.00000000  1
