# generated using pymatgen
data_KBaSrLuHgGeIrOsXeF
_symmetry_space_group_name_H-M   'P 1'
_cell_length_a   7.82226706
_cell_length_b   7.82226706
_cell_length_c   7.82226706
_cell_angle_alpha   60.00000000
_cell_angle_beta   60.00000000
_cell_angle_gamma   60.00000000
_symmetry_Int_Tables_number   1
_chemical_formula_structural   KBaSrLuHgGeIrOsXeF
_chemical_formula_sum   'K1 Ba1 Sr1 Lu1 Hg1 Ge1 Ir1 Os1 Xe1 F1'
_cell_volume   338.44096039
_cell_formula_units_Z   1
loop_
 _symmetry_equiv_pos_site_id
 _symmetry_equiv_pos_as_xyz
  1  'x, y, z'
loop_
 _atom_site_type_symbol
 _atom_site_label
 _atom_site_symmetry_multiplicity
 _atom_site_fract_x
 _atom_site_fract_y
 _atom_site_fract_z
 _atom_site_occupancy
  Ba  Ba0  1  0.49999999  0.49999999  0.49999999  1
  Ge  Ge1  1  0.25000000  0.25000000  0.25000000  1
  Sr  Sr2  1  0.74999999  0.74999999  0.74999999  1
  F  F3  1  0.00000000  0.00000000  0.00000000  1
  K  K4  1  0.22980200  0.77019799  0.22980200  1
  Lu  Lu5  1  0.22980200  0.22980200  0.77019799  1
  Ir  Ir6  1  0.77019799  0.22980200  0.77019799  1
  Xe  Xe7  1  0.22980200  0.77019799  0.77019799  1
  Hg  Hg8  1  0.77019799  0.22980200  0.22980200  1
  Os  Os9  1  0.77019799  0.77019799  0.22980200  1
