# generated using pymatgen
data_AcLaCePrThTaMn2BeCuSiGeBRuRhBrKr2
_symmetry_space_group_name_H-M   'P 1'
_cell_length_a   5.93197393
_cell_length_b   6.59917307
_cell_length_c   6.59917307
_cell_angle_alpha   90.00000000
_cell_angle_beta   90.00000000
_cell_angle_gamma   90.00000000
_symmetry_Int_Tables_number   1
_chemical_formula_structural   AcLaCePrThTaMn2BeCuSiGeBRuRhBrKr2
_chemical_formula_sum
'Ac1 La1 Ce1 Pr1 Th1 Ta1 Mn2 Be1 Cu1 Si1 Ge1 B1 Ru1 Rh1 Br1 Kr2'
_cell_volume   258.33203823
_cell_formula_units_Z   1
loop_
 _symmetry_equiv_pos_site_id
 _symmetry_equiv_pos_as_xyz
  1  'x, y, z'
loop_
 _atom_site_type_symbol
 _atom_site_label
 _atom_site_symmetry_multiplicity
 _atom_site_fract_x
 _atom_site_fract_y
 _atom_site_fract_z
 _atom_site_occupancy
  Cu  Cu0  1  1.00000001  0.49999999  0.49999999  1
  Rh  Rh1  1  0.00000000  0.00000000  0.00000000  1
  Mn  Mn2  1  0.50000001  0.67391699  0.82608299  1
  Ac  Ac3  1  0.50000001  0.82608299  0.32608300  1
  B  B4  1  0.50000001  0.17391700  0.67391699  1
  Ru  Ru5  1  0.50000001  0.32608300  0.17391700  1
  Kr  Kr6  1  1.00000001  0.49999999  0.00000000  1
  Si  Si7  1  1.00000001  0.00000000  0.49999999  1
  Be  Be8  1  0.50000001  0.49999999  0.49999999  1
  Ta  Ta9  1  0.50000001  0.00000000  0.00000000  1
  Br  Br10  1  0.74014301  0.14020500  0.35979500  1
  Mn  Mn11  1  0.74014301  0.85979499  0.64020499  1
  La  La12  1  0.74014301  0.64020499  0.14020500  1
  Kr  Kr13  1  0.74014301  0.35979500  0.85979499  1
  Pr  Pr14  1  0.25985700  0.85979499  0.64020499  1
  Th  Th15  1  0.25985700  0.64020499  0.14020500  1
  Ge  Ge16  1  0.25985700  0.14020500  0.35979500  1
  Ce  Ce17  1  0.25985700  0.35979500  0.85979499  1
