# generated using pymatgen
data_CsKLiAcYbDyTmZr2NpTiZnAgSbTeMoAsPC2
_symmetry_space_group_name_H-M   'P 1'
_cell_length_a   2.91688800
_cell_length_b   5.08889484
_cell_length_c   12.13007832
_cell_angle_alpha   94.64998627
_cell_angle_beta   96.90558624
_cell_angle_gamma   90.00000000
_symmetry_Int_Tables_number   1
_chemical_formula_structural   CsKLiAcYbDyTmZr2NpTiZnAgSbTeMoAsPC2
_chemical_formula_sum
'Cs1 K1 Li1 Yb1 Ac1 Dy1 Tm1 Zr2 Np1 Ti1 Zn1 Ag1 Sb1 Te1 Mo1 As1 P1 C2'
_cell_volume   178.15249940
_cell_formula_units_Z   1
loop_
 _symmetry_equiv_pos_site_id
 _symmetry_equiv_pos_as_xyz
  1  'x, y, z'
loop_
 _atom_site_type_symbol
 _atom_site_label
 _atom_site_symmetry_multiplicity
 _atom_site_fract_x
 _atom_site_fract_y
 _atom_site_fract_z
 _atom_site_occupancy
  C  C0  1  -0.00000001  0.50000002  -0.00000001  1
  Dy  Dy1  1  0.59742698  0.70460103  0.19485398  1
  Li  Li2  1  0.20042098  0.89479103  0.40084198  1
  Tm  Tm3  1  0.79957899  0.10520900  0.59915798  1
  Ag  Ag4  1  0.40257299  0.29539901  0.80514598  1
  Zr  Zr5  1  0.49999998  1.00000004  -0.00000002  1
  As  As6  1  0.90292498  0.81241103  0.80584997  1
  Np  Np7  1  0.09707500  0.18758901  0.19414999  1
  C  C8  1  0.69993299  0.40308502  0.39986598  1
  Mo  Mo9  1  0.30006699  0.59691502  0.60013398  1
  P  P10  1  0.05519899  0.87473803  0.11039798  1
  Yb  Yb11  1  0.64594000  0.07306400  0.29187999  1
  Ac  Ac12  1  0.24862299  0.26276801  0.49724599  1
  Zr  Zr13  1  0.84818699  0.47698402  0.69637398  1
  K  K14  1  0.44354099  0.66639503  0.88708198  1
  Cs  Cs15  1  0.94480099  0.12526200  0.88960198  1
  Te  Te16  1  0.55645899  0.33360501  0.11291799  1
  Sb  Sb17  1  0.15181299  0.52301602  0.30362599  1
  Ti  Ti18  1  0.75137698  0.73723203  0.50275397  1
  Zn  Zn19  1  0.35405998  0.92693604  0.70811997  1
