# generated using pymatgen
data_CsHfZrMnFeSiHgOsWS
_symmetry_space_group_name_H-M   'P 1'
_cell_length_a   8.12530708
_cell_length_b   8.12530708
_cell_length_c   8.12530708
_cell_angle_alpha   60.00000000
_cell_angle_beta   60.00000000
_cell_angle_gamma   60.00000000
_symmetry_Int_Tables_number   1
_chemical_formula_structural   CsHfZrMnFeSiHgOsWS
_chemical_formula_sum   'Cs1 Hf1 Zr1 Mn1 Fe1 Si1 Hg1 Os1 W1 S1'
_cell_volume   379.31878646
_cell_formula_units_Z   1
loop_
 _symmetry_equiv_pos_site_id
 _symmetry_equiv_pos_as_xyz
  1  'x, y, z'
loop_
 _atom_site_type_symbol
 _atom_site_label
 _atom_site_symmetry_multiplicity
 _atom_site_fract_x
 _atom_site_fract_y
 _atom_site_fract_z
 _atom_site_occupancy
  S  S0  1  0.25000001  0.25000001  0.25000001  1
  Fe  Fe1  1  0.75000003  0.75000003  0.75000003  1
  Cs  Cs2  1  0.50000002  0.50000002  0.50000002  1
  Hf  Hf3  1  0.00000000  0.00000000  0.00000000  1
  Os  Os4  1  0.24304101  0.75695903  0.24304101  1
  Mn  Mn5  1  0.24304001  0.24304201  0.75695903  1
  Si  Si6  1  0.75695903  0.24304101  0.75695903  1
  Zr  Zr7  1  0.24304101  0.75695903  0.75695903  1
  W  W8  1  0.75695803  0.24304101  0.24304201  1
  Hg  Hg9  1  0.75695903  0.75695903  0.24304101  1
