# generated using pymatgen
data_CsLiCaPr2EuDyYHoUPaGaBSbTeIrPdRh2C
_symmetry_space_group_name_H-M   'P 1'
_cell_length_a   5.37268019
_cell_length_b   5.78657103
_cell_length_c   10.91278362
_cell_angle_alpha   90.00000000
_cell_angle_beta   90.00000000
_cell_angle_gamma   90.00000000
_symmetry_Int_Tables_number   1
_chemical_formula_structural   CsLiCaPr2EuDyYHoUPaGaBSbTeIrPdRh2C
_chemical_formula_sum
'Cs1 Li1 Ca1 Pr2 Eu1 Dy1 Y1 Ho1 U1 Pa1 Ga1 B1 Sb1 Te1 Pd1 Ir1 Rh2 C1'
_cell_volume   339.27184608
_cell_formula_units_Z   1
loop_
 _symmetry_equiv_pos_site_id
 _symmetry_equiv_pos_as_xyz
  1  'x, y, z'
loop_
 _atom_site_type_symbol
 _atom_site_label
 _atom_site_symmetry_multiplicity
 _atom_site_fract_x
 _atom_site_fract_y
 _atom_site_fract_z
 _atom_site_occupancy
  B  B0  1  0.05769200  0.75000000  0.89478003  1
  Pd  Pd1  1  0.05769200  0.25000000  0.60522002  1
  Ho  Ho2  1  0.94230797  0.25000000  0.10522000  1
  Te  Te3  1  0.94230797  0.75000000  0.39478001  1
  Li  Li4  1  0.48232598  0.75000000  0.16120301  1
  Eu  Eu5  1  0.48232598  0.25000000  0.33879701  1
  Pr  Pr6  1  0.51767398  0.25000000  0.83879703  1
  Pa  Pa7  1  0.51767398  0.75000000  0.66120302  1
  Ga  Ga8  1  0.38194399  0.75000000  0.52373802  1
  C  C9  1  0.38194399  0.25000000  0.97626203  1
  Rh  Rh10  1  0.61805598  0.25000000  0.47626202  1
  Ca  Ca11  1  0.61805598  0.75000000  0.02373800  1
  Cs  Cs12  1  0.82971697  0.75000000  0.64726602  1
  Rh  Rh13  1  0.82971697  0.25000000  0.85273403  1
  U  U14  1  0.17028299  0.25000000  0.35273401  1
  Dy  Dy15  1  0.17028299  0.75000000  0.14726601  1
  Sb  Sb16  1  0.59029998  0.00000000  0.25000001  1
  Y  Y17  1  0.40969999  0.50000000  0.75000003  1
  Pr  Pr18  1  0.40969999  0.00000000  0.75000003  1
  Ir  Ir19  1  0.59029998  0.50000000  0.25000001  1
