# generated using pymatgen
data_LiAc2EuErMgTaInGa2Fe2BSbTePHPdPtXe
_symmetry_space_group_name_H-M   'P 1'
_cell_length_a   5.22651577
_cell_length_b   5.38720608
_cell_length_c   7.45329905
_cell_angle_alpha   90.00000000
_cell_angle_beta   90.00000000
_cell_angle_gamma   90.00000000
_symmetry_Int_Tables_number   1
_chemical_formula_structural   LiAc2EuErMgTaInGa2Fe2BSbTePHPdPtXe
_chemical_formula_sum
'Li1 Ac2 Eu1 Er1 Mg1 Ta1 In1 Ga2 Fe2 B1 Sb1 Te1 P1 H1 Pd1 Pt1 Xe1'
_cell_volume   209.85745450
_cell_formula_units_Z   1
loop_
 _symmetry_equiv_pos_site_id
 _symmetry_equiv_pos_as_xyz
  1  'x, y, z'
loop_
 _atom_site_type_symbol
 _atom_site_label
 _atom_site_symmetry_multiplicity
 _atom_site_fract_x
 _atom_site_fract_y
 _atom_site_fract_z
 _atom_site_occupancy
  In  In0  1  0.01284600  0.94582199  0.75000000  1
  Ac  Ac1  1  0.51284602  0.55417799  0.25000000  1
  B  B2  1  0.48715402  0.44582199  0.75000000  1
  Ac  Ac3  1  0.98715404  0.05417800  0.25000000  1
  Xe  Xe4  1  0.00000000  0.49999999  0.00000000  1
  Fe  Fe5  1  0.50000002  0.00000000  -0.00000000  1
  Er  Er6  1  0.50000002  0.00000000  0.50000000  1
  Li  Li7  1  0.00000000  0.49999999  0.50000000  1
  Ga  Ga8  1  0.70600903  0.29388700  0.45477400  1
  Ta  Ta9  1  0.20600901  0.20611300  0.54522600  1
  Te  Te10  1  0.79399103  0.79388699  0.04522600  1
  P  P11  1  0.29399101  0.70611299  0.95477399  1
  H  H12  1  0.29399101  0.70611299  0.54522600  1
  Sb  Sb13  1  0.79399103  0.79388699  0.45477400  1
  Eu  Eu14  1  0.20600901  0.20611300  0.95477399  1
  Fe  Fe15  1  0.70600903  0.29388700  0.04522600  1
  Pt  Pt16  1  0.08577900  0.47703899  0.25000000  1
  Pd  Pd17  1  0.58577903  0.02296100  0.75000000  1
  Ga  Ga18  1  0.41422102  0.97703899  0.25000000  1
  Mg  Mg19  1  0.91422104  0.52296099  0.75000000  1
