# generated using pymatgen
data_NdYScUTaZnCrCdAgHgOsWAuSXeF
_symmetry_space_group_name_H-M   'P 1'
_cell_length_a   3.09567404
_cell_length_b   3.09567451
_cell_length_c   20.24825096
_cell_angle_alpha   90.00000000
_cell_angle_beta   90.00000000
_cell_angle_gamma   119.99999237
_symmetry_Int_Tables_number   1
_chemical_formula_structural   NdYScUTaZnCrCdAgHgOsWAuSXeF
_chemical_formula_sum
'Nd1 Y1 Sc1 U1 Ta1 Zn1 Cr1 Cd1 Ag1 Hg1 Os1 W1 Au1 S1 Xe1 F1'
_cell_volume   168.04620020
_cell_formula_units_Z   1
loop_
 _symmetry_equiv_pos_site_id
 _symmetry_equiv_pos_as_xyz
  1  'x, y, z'
loop_
 _atom_site_type_symbol
 _atom_site_label
 _atom_site_symmetry_multiplicity
 _atom_site_fract_x
 _atom_site_fract_y
 _atom_site_fract_z
 _atom_site_occupancy
  W  W0  1  0.66666665  0.33333334  0.12487200  1
  S  S1  1  0.66666665  0.33333334  0.37495000  1
  Sc  Sc2  1  0.00000000  0.00000000  0.99990300  1
  Cr  Cr3  1  0.33333331  0.66666667  0.24989600  1
  F  F4  1  0.33333331  0.66666667  0.62487200  1
  Y  Y5  1  0.66666665  0.33333334  0.74989600  1
  Ag  Ag6  1  0.00000000  0.00000000  0.49990300  1
  Nd  Nd7  1  0.33333331  0.66666667  0.87495000  1
  Hg  Hg8  1  0.66666665  0.33333334  0.65591900  1
  Ta  Ta9  1  0.33333331  0.66666667  0.78126600  1
  U  U10  1  0.33333331  0.66666667  0.15591900  1
  Xe  Xe11  1  0.00000000  0.00000000  0.40608000  1
  Au  Au12  1  0.66666665  0.33333334  0.03111200  1
  Os  Os13  1  0.00000000  0.00000000  0.90608000  1
  Zn  Zn14  1  0.66666665  0.33333334  0.28126600  1
  Cd  Cd15  1  0.33333331  0.66666667  0.53111200  1
