# generated using pymatgen
data_YbCeYBeCrCdFeRuCSe
_symmetry_space_group_name_H-M   'P 1'
_cell_length_a   8.41724491
_cell_length_b   8.41724491
_cell_length_c   8.41724491
_cell_angle_alpha   60.00000000
_cell_angle_beta   60.00000000
_cell_angle_gamma   60.00000000
_symmetry_Int_Tables_number   1
_chemical_formula_structural   YbCeYBeCrCdFeRuCSe
_chemical_formula_sum   'Yb1 Ce1 Y1 Be1 Cr1 Cd1 Fe1 Ru1 C1 Se1'
_cell_volume   421.69154500
_cell_formula_units_Z   1
loop_
 _symmetry_equiv_pos_site_id
 _symmetry_equiv_pos_as_xyz
  1  'x, y, z'
loop_
 _atom_site_type_symbol
 _atom_site_label
 _atom_site_symmetry_multiplicity
 _atom_site_fract_x
 _atom_site_fract_y
 _atom_site_fract_z
 _atom_site_occupancy
  Cd  Cd0  1  0.25000000  0.25000000  0.25000000  1
  Cr  Cr1  1  0.75000001  0.75000001  0.75000001  1
  Be  Be2  1  0.50000000  0.50000000  0.50000000  1
  C  C3  1  0.00000000  0.00000000  0.00000000  1
  Se  Se4  1  0.22711400  0.77288601  0.22711400  1
  Yb  Yb5  1  0.22711400  0.22711400  0.77288601  1
  Y  Y6  1  0.77288601  0.22711400  0.77288601  1
  Ru  Ru7  1  0.22711400  0.77288601  0.77288601  1
  Ce  Ce8  1  0.77288601  0.22711400  0.22711400  1
  Fe  Fe9  1  0.77288601  0.77288601  0.22711400  1
