# generated using pymatgen
data_CsPr2HfScInNeNiHgMo
_symmetry_space_group_name_H-M   'P 1'
_cell_length_a   6.49312973
_cell_length_b   6.49312925
_cell_length_c   6.49312925
_cell_angle_alpha   60.00000000
_cell_angle_beta   59.99999619
_cell_angle_gamma   60.00000000
_symmetry_Int_Tables_number   1
_chemical_formula_structural   CsPr2HfScInNeNiHgMo
_chemical_formula_sum   'Cs1 Pr2 Hf1 Sc1 In1 Ne1 Ni1 Hg1 Mo1'
_cell_volume   193.57406305
_cell_formula_units_Z   1
loop_
 _symmetry_equiv_pos_site_id
 _symmetry_equiv_pos_as_xyz
  1  'x, y, z'
loop_
 _atom_site_type_symbol
 _atom_site_label
 _atom_site_symmetry_multiplicity
 _atom_site_fract_x
 _atom_site_fract_y
 _atom_site_fract_z
 _atom_site_occupancy
  Sc  Sc0  1  0.74999996  0.75000002  0.74999999  1
  In  In1  1  0.24999999  0.25000001  0.25000000  1
  Pr  Pr2  1  0.49999998  0.50000001  0.50000000  1
  Cs  Cs3  1  0.00000000  0.00000000  0.00000000  1
  Ne  Ne4  1  0.20608897  0.79391102  0.79391100  1
  Pr  Pr5  1  0.79391096  0.79391102  0.20608901  1
  Mo  Mo6  1  0.79391098  0.20608900  0.20608899  1
  Hg  Hg7  1  0.20608897  0.79391102  0.20608902  1
  Hf  Hf8  1  0.79391098  0.20608900  0.79391097  1
  Ni  Ni9  1  0.20608899  0.20608900  0.79391098  1
