# generated using pymatgen
data_KSrAcLaNp2PaAlCuBiBSbRuIClO
_symmetry_space_group_name_H-M   'P 1'
_cell_length_a   3.85307598
_cell_length_b   3.85307622
_cell_length_c   25.20812225
_cell_angle_alpha   90.00000000
_cell_angle_beta   90.00000000
_cell_angle_gamma   120.00000000
_symmetry_Int_Tables_number   1
_chemical_formula_structural   KSrAcLaNp2PaAlCuBiBSbRuIClO
_chemical_formula_sum
'K1 Sr1 La1 Ac1 Np2 Pa1 Al1 Cu1 Bi1 B1 Sb1 Ru1 I1 Cl1 O1'
_cell_volume   324.10542568
_cell_formula_units_Z   1
loop_
 _symmetry_equiv_pos_site_id
 _symmetry_equiv_pos_as_xyz
  1  'x, y, z'
loop_
 _atom_site_type_symbol
 _atom_site_label
 _atom_site_symmetry_multiplicity
 _atom_site_fract_x
 _atom_site_fract_y
 _atom_site_fract_z
 _atom_site_occupancy
  B  B0  1  0.66666668  0.33333334  0.87495903  1
  I  I1  1  0.00000000  0.00000000  0.99994303  1
  Ru  Ru2  1  0.33333336  0.66666669  0.37496001  1
  La  La3  1  0.33333336  0.66666669  0.12495000  1
  O  O4  1  0.00000000  0.00000000  0.24996901  1
  Np  Np5  1  0.66666668  0.33333334  0.49995701  1
  Ac  Ac6  1  0.00000000  0.00000000  0.62495802  1
  Np  Np7  1  0.33333336  0.66666669  0.74995902  1
  Bi  Bi8  1  0.33333336  0.66666669  0.65624002  1
  Sr  Sr9  1  0.33333336  0.66666669  0.28127901  1
  Cl  Cl10  1  0.66666668  0.33333334  0.78123802  1
  Cu  Cu11  1  0.00000000  0.00000000  0.15624500  1
  Sb  Sb12  1  0.33333336  0.66666669  0.03120600  1
  Pa  Pa13  1  0.00000000  0.00000000  0.90625003  1
  Al  Al14  1  0.66666668  0.33333334  0.40624101  1
  K  K15  1  0.00000000  0.00000000  0.53124702  1
