# generated using pymatgen
data_AcCeEuMgScCrGeAsSO
_symmetry_space_group_name_H-M   'P 1'
_cell_length_a   4.12534285
_cell_length_b   4.12534285
_cell_length_c   8.37562561
_cell_angle_alpha   90.00000000
_cell_angle_beta   90.00000000
_cell_angle_gamma   90.00000000
_symmetry_Int_Tables_number   1
_chemical_formula_structural   AcCeEuMgScCrGeAsSO
_chemical_formula_sum   'Ac1 Ce1 Eu1 Mg1 Sc1 Cr1 Ge1 As1 S1 O1'
_cell_volume   142.54019579
_cell_formula_units_Z   1
loop_
 _symmetry_equiv_pos_site_id
 _symmetry_equiv_pos_as_xyz
  1  'x, y, z'
loop_
 _atom_site_type_symbol
 _atom_site_label
 _atom_site_symmetry_multiplicity
 _atom_site_fract_x
 _atom_site_fract_y
 _atom_site_fract_z
 _atom_site_occupancy
  Ce  Ce0  1  0.50000002  0.50000002  0.24878901  1
  Ac  Ac1  1  0.50000002  0.50000002  0.75121103  1
  Sc  Sc2  1  0.00000000  0.00000000  0.00000000  1
  Mg  Mg3  1  0.00000000  0.00000000  0.50000002  1
  As  As4  1  0.00000000  0.00000000  0.25169301  1
  Eu  Eu5  1  0.00000000  0.00000000  0.74830703  1
  Ge  Ge6  1  0.00000000  0.50000002  -0.00000000  1
  O  O7  1  0.00000000  0.50000002  0.50000002  1
  Cr  Cr8  1  0.50000002  0.00000000  -0.00000000  1
  S  S9  1  0.50000002  0.00000000  0.50000002  1
