# generated using pymatgen
data_NdGdDyPaCoMoNeNiHN
_symmetry_space_group_name_H-M   'P 1'
_cell_length_a   5.12568283
_cell_length_b   5.12568283
_cell_length_c   5.56360054
_cell_angle_alpha   62.57130432
_cell_angle_beta   62.57130051
_cell_angle_gamma   59.99999619
_symmetry_Int_Tables_number   1
_chemical_formula_structural   NdGdDyPaCoMoNeNiHN
_chemical_formula_sum   'Nd1 Gd1 Dy1 Pa1 Co1 Mo1 Ne1 Ni1 H1 N1'
_cell_volume   107.19450000
_cell_formula_units_Z   1
loop_
 _symmetry_equiv_pos_site_id
 _symmetry_equiv_pos_as_xyz
  1  'x, y, z'
loop_
 _atom_site_type_symbol
 _atom_site_label
 _atom_site_symmetry_multiplicity
 _atom_site_fract_x
 _atom_site_fract_y
 _atom_site_fract_z
 _atom_site_occupancy
  Dy  Dy0  1  0.14897700  0.14897800  0.55306799  1
  Gd  Gd1  1  0.64897700  0.64897801  0.05306799  1
  Mo  Mo2  1  0.35102300  0.35102300  0.94693099  1
  Nd  Nd3  1  0.85102300  0.85102301  0.44693099  1
  Co  Co4  1  0.94653101  0.55346900  0.24999999  1
  Ne  Ne5  1  0.44653099  0.75000001  0.74999998  1
  Ni  Ni6  1  0.75000002  0.05346900  0.74999999  1
  Pa  Pa7  1  0.55347001  0.24999900  0.25000000  1
  H  H8  1  0.05346999  0.44653000  0.74999999  1
  N  N9  1  0.24999998  0.94653101  0.24999998  1
