# generated using pymatgen
data_LaErThVInReTcPt
_symmetry_space_group_name_H-M   'P 1'
_cell_length_a   5.04631519
_cell_length_b   5.90189791
_cell_length_c   5.90189743
_cell_angle_alpha   120.00000000
_cell_angle_beta   90.00000000
_cell_angle_gamma   90.00000000
_symmetry_Int_Tables_number   1
_chemical_formula_structural   LaErThVInReTcPt
_chemical_formula_sum   'La1 Er1 Th1 V1 In1 Tc1 Re1 Pt1'
_cell_volume   152.22583153
_cell_formula_units_Z   1
loop_
 _symmetry_equiv_pos_site_id
 _symmetry_equiv_pos_as_xyz
  1  'x, y, z'
loop_
 _atom_site_type_symbol
 _atom_site_label
 _atom_site_symmetry_multiplicity
 _atom_site_fract_x
 _atom_site_fract_y
 _atom_site_fract_z
 _atom_site_occupancy
  La  La0  1  0.24999999  0.33333333  0.66666665  1
  Er  Er1  1  0.74999997  0.66666666  0.33333330  1
  Th  Th2  1  0.24999999  0.83675499  0.67350996  1
  In  In3  1  0.24999999  0.32648900  0.16324398  1
  V  V4  1  0.24999999  0.83675499  0.16324395  1
  Pt  Pt5  1  0.74999997  0.16324500  0.32648999  1
  Tc  Tc6  1  0.74999997  0.16324500  0.83675600  1
  Re  Re7  1  0.74999997  0.67351099  0.83675597  1
