# generated using pymatgen
data_Rb2NaTbEuHoMgNbTl2ZnFe2SiTcNiAgAsPtAu
_symmetry_space_group_name_H-M   'P 1'
_cell_length_a   5.81799603
_cell_length_b   6.01446486
_cell_length_c   8.38078403
_cell_angle_alpha   90.00000000
_cell_angle_beta   90.00000000
_cell_angle_gamma   90.00000000
_symmetry_Int_Tables_number   1
_chemical_formula_structural   Rb2NaTbEuHoMgNbTl2ZnFe2SiTcNiAgAsPtAu
_chemical_formula_sum
'Rb2 Na1 Tb1 Eu1 Ho1 Mg1 Nb1 Tl2 Zn1 Fe2 Tc1 Si1 Ni1 Ag1 As1 Pt1 Au1'
_cell_volume   293.26150641
_cell_formula_units_Z   1
loop_
 _symmetry_equiv_pos_site_id
 _symmetry_equiv_pos_as_xyz
  1  'x, y, z'
loop_
 _atom_site_type_symbol
 _atom_site_label
 _atom_site_symmetry_multiplicity
 _atom_site_fract_x
 _atom_site_fract_y
 _atom_site_fract_z
 _atom_site_occupancy
  Mg  Mg0  1  0.01374500  0.95124902  0.75000000  1
  Na  Na1  1  0.51374500  0.54875101  0.25000000  1
  Ho  Ho2  1  0.98625500  0.04875100  0.25000000  1
  Fe  Fe3  1  0.48625500  0.45124901  0.75000000  1
  Rb  Rb4  1  0.50000000  0.00000000  0.50000000  1
  Tl  Tl5  1  0.00000000  0.50000001  0.00000000  1
  Ag  Ag6  1  0.50000000  0.00000000  0.00000000  1
  Tl  Tl7  1  0.00000000  0.50000001  0.50000000  1
  Tc  Tc8  1  0.69316800  0.30514901  0.06299400  1
  Zn  Zn9  1  0.80683200  0.80514902  0.06299400  1
  Fe  Fe10  1  0.30683200  0.69485102  0.93700600  1
  Ni  Ni11  1  0.69316800  0.30514901  0.43700600  1
  Eu  Eu12  1  0.19316800  0.19485100  0.56299400  1
  Pt  Pt13  1  0.80683200  0.80514902  0.43700600  1
  Tb  Tb14  1  0.11976900  0.44740101  0.25000000  1
  Si  Si15  1  0.19316800  0.19485100  0.93700600  1
  Nb  Nb16  1  0.30683200  0.69485102  0.56299400  1
  Rb  Rb17  1  0.61976900  0.05259900  0.75000000  1
  As  As18  1  0.38023100  0.94740102  0.25000000  1
  Au  Au19  1  0.88023100  0.55259901  0.75000000  1
