# generated using pymatgen
data_CaPuThPaTcNiPtAuBr
_symmetry_space_group_name_H-M   'P 1'
_cell_length_a   3.77799797
_cell_length_b   7.28616190
_cell_length_c   7.28616142
_cell_angle_alpha   120.00000000
_cell_angle_beta   90.00000000
_cell_angle_gamma   90.00000000
_symmetry_Int_Tables_number   1
_chemical_formula_structural   CaPuThPaTcNiPtAuBr
_chemical_formula_sum   'Ca1 Pu1 Th1 Pa1 Tc1 Ni1 Pt1 Au1 Br1'
_cell_volume   173.69605618
_cell_formula_units_Z   1
loop_
 _symmetry_equiv_pos_site_id
 _symmetry_equiv_pos_as_xyz
  1  'x, y, z'
loop_
 _atom_site_type_symbol
 _atom_site_label
 _atom_site_symmetry_multiplicity
 _atom_site_fract_x
 _atom_site_fract_y
 _atom_site_fract_z
 _atom_site_occupancy
  Th  Th0  1  -0.00000000  0.59395300  1.00000001  1
  Ni  Ni1  1  -0.00000000  0.40604700  0.40604700  1
  Pa  Pa2  1  0.00000000  0.00000000  0.59395302  1
  Pu  Pu3  1  0.50000000  0.25470200  -0.00000001  1
  Au  Au4  1  0.50000000  0.74529800  0.74529800  1
  Br  Br5  1  0.50000000  1.00000000  0.25470198  1
  Ca  Ca6  1  0.00000000  0.00000000  0.00000000  1
  Tc  Tc7  1  0.50000000  0.33333333  0.66666668  1
  Pt  Pt8  1  0.50000000  0.66666667  0.33333332  1
