# generated using pymatgen
data_CsLiCaPmPr2PuScGaReTcHgMoPtINClO
_symmetry_space_group_name_H-M   'P 1'
_cell_length_a   5.91639519
_cell_length_b   6.55254412
_cell_length_c   6.55254412
_cell_angle_alpha   90.00000000
_cell_angle_beta   90.00000000
_cell_angle_gamma   90.00000000
_symmetry_Int_Tables_number   1
_chemical_formula_structural   CsLiCaPmPr2PuScGaReTcHgMoPtINClO
_chemical_formula_sum
'Cs1 Li1 Ca1 Pm1 Pr2 Pu1 Sc1 Ga1 Re1 Tc1 Hg1 Mo1 Pt1 I1 N1 Cl1 O1'
_cell_volume   254.02536404
_cell_formula_units_Z   1
loop_
 _symmetry_equiv_pos_site_id
 _symmetry_equiv_pos_as_xyz
  1  'x, y, z'
loop_
 _atom_site_type_symbol
 _atom_site_label
 _atom_site_symmetry_multiplicity
 _atom_site_fract_x
 _atom_site_fract_y
 _atom_site_fract_z
 _atom_site_occupancy
  Re  Re0  1  0.99999997  0.49999999  0.49999999  1
  O  O1  1  0.00000000  0.00000000  0.00000000  1
  Ca  Ca2  1  0.49999998  0.82580099  0.67419899  1
  Pm  Pm3  1  0.49999998  0.67419899  0.17419900  1
  Mo  Mo4  1  0.49999998  0.32580099  0.82580099  1
  Tc  Tc5  1  0.49999998  0.17419900  0.32580099  1
  Li  Li6  1  0.99999997  0.00000000  0.49999999  1
  Cs  Cs7  1  0.00000000  0.49999999  0.00000000  1
  Cl  Cl8  1  0.49999998  0.49999999  0.49999999  1
  Pr  Pr9  1  0.49999998  0.00000000  0.00000000  1
  I  I10  1  0.26140699  0.14053600  0.64053599  1
  Pu  Pu11  1  0.26140699  0.85946398  0.35946399  1
  Sc  Sc12  1  0.26140699  0.35946399  0.14053600  1
  N  N13  1  0.26140699  0.64053599  0.85946398  1
  Ga  Ga14  1  0.73859298  0.14053600  0.64053599  1
  Hg  Hg15  1  0.73859298  0.64053599  0.85946398  1
  Pt  Pt16  1  0.73859298  0.85946398  0.35946399  1
  Pr  Pr17  1  0.73859298  0.35946399  0.14053600  1
