# generated using pymatgen
data_SrAcLaSmHfThZrNbXeN
_symmetry_space_group_name_H-M   'P 1'
_cell_length_a   7.33913612
_cell_length_b   7.33913612
_cell_length_c   7.33913612
_cell_angle_alpha   60.00000000
_cell_angle_beta   60.00000000
_cell_angle_gamma   60.00000000
_symmetry_Int_Tables_number   1
_chemical_formula_structural   SrAcLaSmHfThZrNbXeN
_chemical_formula_sum   'Sr1 La1 Ac1 Sm1 Th1 Hf1 Zr1 Nb1 Xe1 N1'
_cell_volume   279.52446885
_cell_formula_units_Z   1
loop_
 _symmetry_equiv_pos_site_id
 _symmetry_equiv_pos_as_xyz
  1  'x, y, z'
loop_
 _atom_site_type_symbol
 _atom_site_label
 _atom_site_symmetry_multiplicity
 _atom_site_fract_x
 _atom_site_fract_y
 _atom_site_fract_z
 _atom_site_occupancy
  Xe  Xe0  1  0.25000000  0.25000000  0.25000000  1
  La  La1  1  0.75000001  0.75000001  0.75000001  1
  Sr  Sr2  1  0.00000000  0.00000000  0.00000000  1
  Sm  Sm3  1  0.50000001  0.50000001  0.50000001  1
  N  N4  1  0.22844800  0.77155201  0.22844800  1
  Zr  Zr5  1  0.22844800  0.22844800  0.77155201  1
  Ac  Ac6  1  0.77155201  0.22844800  0.77155201  1
  Th  Th7  1  0.22844800  0.77155201  0.77155201  1
  Nb  Nb8  1  0.77155201  0.22844800  0.22844800  1
  Hf  Hf9  1  0.77155201  0.77155201  0.22844800  1
