# generated using pymatgen
data_PrGdTmSb
_symmetry_space_group_name_H-M   'P 1'
_cell_length_a   3.54578590
_cell_length_b   3.54578614
_cell_length_c   11.49196815
_cell_angle_alpha   90.00000000
_cell_angle_beta   90.00000000
_cell_angle_gamma   120.00000000
_symmetry_Int_Tables_number   1
_chemical_formula_structural   PrGdTmSb
_chemical_formula_sum   'Pr1 Gd1 Tm1 Sb1'
_cell_volume   125.12672943
_cell_formula_units_Z   1
loop_
 _symmetry_equiv_pos_site_id
 _symmetry_equiv_pos_as_xyz
  1  'x, y, z'
loop_
 _atom_site_type_symbol
 _atom_site_label
 _atom_site_symmetry_multiplicity
 _atom_site_fract_x
 _atom_site_fract_y
 _atom_site_fract_z
 _atom_site_occupancy
  Sb  Sb0  1  0.00000000  0.00000000  0.00000000  1
  Gd  Gd1  1  0.66666670  0.33333335  0.74999999  1
  Pr  Pr2  1  0.00000000  0.00000000  0.49999999  1
  Tm  Tm3  1  0.33333337  0.66666669  0.25000000  1
