# generated using pymatgen
data_WHeLi2LaEr2PuFeCoPdPbSe2ClNe
_symmetry_space_group_name_H-M   'P 1'
_cell_length_a   4.22436810
_cell_length_b   6.46479797
_cell_length_c   7.21609163
_cell_angle_alpha   110.22354126
_cell_angle_beta   90.00000000
_cell_angle_gamma   90.00000000
_symmetry_Int_Tables_number   1
_chemical_formula_structural   WHeLi2LaEr2PuFeCoPdPbSe2ClNe
_chemical_formula_sum
'W1 He1 Li2 La1 Er2 Pu1 Fe1 Co1 Pd1 Pb1 Se2 Cl1 Ne1'
_cell_volume   184.92009359
_cell_formula_units_Z   1
loop_
 _symmetry_equiv_pos_site_id
 _symmetry_equiv_pos_as_xyz
  1  'x, y, z'
loop_
 _atom_site_type_symbol
 _atom_site_label
 _atom_site_symmetry_multiplicity
 _atom_site_fract_x
 _atom_site_fract_y
 _atom_site_fract_z
 _atom_site_occupancy
  W  W0  1  0.74999998  0.14614700  0.28083799  1
  He  He1  1  0.24999999  0.85385299  0.71916194  1
  Fe  Fe2  1  0.24999999  0.34667100  0.05637898  1
  Li  Li3  1  0.74999998  0.65332899  0.94361995  1
  Cl  Cl4  1  0.24999999  0.77252299  0.16471896  1
  Pb  Pb5  1  0.74999998  0.22747700  0.83528097  1
  Li  Li6  1  0.43910799  0.31607600  0.66046197  1
  Pd  Pd7  1  0.06089200  0.31607600  0.66046197  1
  Se  Se8  1  0.56089199  0.68392399  0.33953796  1
  Er  Er9  1  0.93910798  0.68392399  0.33953796  1
  Ne  Ne10  1  0.24999999  0.38637900  0.61890097  1
  La  La11  1  0.74999998  0.61362099  0.38109896  1
  Er  Er12  1  0.24999999  0.20154400  0.06770099  1
  Se  Se13  1  0.74999998  0.79845599  0.93229894  1
  Pu  Pu14  1  0.24999999  0.82824099  0.30856396  1
  Co  Co15  1  0.74999998  0.17175900  0.69143597  1
