# generated using pymatgen
data_NaCePm2YTiTlGaSiHRh
_symmetry_space_group_name_H-M   'P 1'
_cell_length_a   3.88686299
_cell_length_b   6.30989170
_cell_length_c   6.30989170
_cell_angle_alpha   117.93540192
_cell_angle_beta   90.00000000
_cell_angle_gamma   90.00000000
_symmetry_Int_Tables_number   1
_chemical_formula_structural   NaCePm2YTiTlGaSiHRh
_chemical_formula_sum   'Na1 Ce1 Pm2 Y1 Ti1 Tl1 Ga1 Si1 H1 Rh1'
_cell_volume   136.72186223
_cell_formula_units_Z   1
loop_
 _symmetry_equiv_pos_site_id
 _symmetry_equiv_pos_as_xyz
  1  'x, y, z'
loop_
 _atom_site_type_symbol
 _atom_site_label
 _atom_site_symmetry_multiplicity
 _atom_site_fract_x
 _atom_site_fract_y
 _atom_site_fract_z
 _atom_site_occupancy
  Ti  Ti0  1  0.00000000  0.00000000  0.00000000  1
  H  H1  1  1.00000000  0.30134500  0.69865501  1
  Ga  Ga2  1  1.00000000  0.69865501  0.30134501  1
  Si  Si3  1  -0.00000000  0.04605300  0.33805900  1
  Tl  Tl4  1  1.00000000  0.33805901  0.04605300  1
  Y  Y5  1  0.50000000  0.00000000  -0.00000000  1
  Rh  Rh6  1  0.50000000  0.31104700  0.68895301  1
  Pm  Pm7  1  0.50000000  0.68895301  0.31104701  1
  Na  Na8  1  -0.00000000  0.95394701  0.66194102  1
  Ce  Ce9  1  -0.00000000  0.66194101  0.95394702  1
  Pm  Pm10  1  -0.00000000  0.50000001  0.50000001  1
