# generated using pymatgen
data_BaSrYbGd2Ho2LuTiMnAl2BRhPbCBrKr
_symmetry_space_group_name_H-M   'P 1'
_cell_length_a   4.82596111
_cell_length_b   4.82596111
_cell_length_c   9.55441380
_cell_angle_alpha   90.00000000
_cell_angle_beta   90.00000000
_cell_angle_gamma   90.00000000
_symmetry_Int_Tables_number   1
_chemical_formula_structural   BaSrYbGd2Ho2LuTiMnAl2BRhPbCBrKr
_chemical_formula_sum
'Ba1 Sr1 Yb1 Gd2 Ho2 Lu1 Ti1 Mn1 Al2 B1 Rh1 Pb1 C1 Br1 Kr1'
_cell_volume   222.52134820
_cell_formula_units_Z   1
loop_
 _symmetry_equiv_pos_site_id
 _symmetry_equiv_pos_as_xyz
  1  'x, y, z'
loop_
 _atom_site_type_symbol
 _atom_site_label
 _atom_site_symmetry_multiplicity
 _atom_site_fract_x
 _atom_site_fract_y
 _atom_site_fract_z
 _atom_site_occupancy
  Al  Al0  1  0.49999999  0.49999999  0.83374102  1
  Yb  Yb1  1  0.00000000  0.00000000  0.33374101  1
  Ti  Ti2  1  0.49999999  0.49999999  0.50070001  1
  C  C3  1  0.00000000  0.00000000  0.00070000  1
  Ho  Ho4  1  0.49999999  0.49999999  0.16597800  1
  Gd  Gd5  1  0.00000000  0.00000000  0.66597801  1
  Al  Al6  1  0.18955800  0.81044198  0.50767001  1
  Rh  Rh7  1  0.81044198  0.18955800  0.50767001  1
  Kr  Kr8  1  0.68955798  0.68955798  0.00767000  1
  Pb  Pb9  1  0.31044199  0.31044199  0.00767000  1
  Ba  Ba10  1  0.19365000  0.80634998  0.82178302  1
  B  B11  1  0.80634998  0.19365000  0.82178302  1
  Ho  Ho12  1  0.69364998  0.69364998  0.32178301  1
  Gd  Gd13  1  0.30634999  0.30634999  0.32178301  1
  Br  Br14  1  0.78924498  0.21075500  0.16838800  1
  Sr  Sr15  1  0.21075500  0.78924498  0.16838800  1
  Lu  Lu16  1  0.28924499  0.28924499  0.66838801  1
  Mn  Mn17  1  0.71075498  0.71075498  0.66838801  1
