# generated using pymatgen
data_Tb2YbVZnGa2SiNi2GeBMoS2F
_symmetry_space_group_name_H-M   'P 1'
_cell_length_a   3.25646305
_cell_length_b   7.91428137
_cell_length_c   8.01997471
_cell_angle_alpha   107.96776581
_cell_angle_beta   90.09860992
_cell_angle_gamma   90.70115662
_symmetry_Int_Tables_number   1
_chemical_formula_structural   Tb2YbVZnGa2SiNi2GeBMoS2F
_chemical_formula_sum   'Yb1 Tb2 V1 Zn1 Ga2 Si1 Ni2 Ge1 B1 Mo1 S2 F1'
_cell_volume   196.59682832
_cell_formula_units_Z   1
loop_
 _symmetry_equiv_pos_site_id
 _symmetry_equiv_pos_as_xyz
  1  'x, y, z'
loop_
 _atom_site_type_symbol
 _atom_site_label
 _atom_site_symmetry_multiplicity
 _atom_site_fract_x
 _atom_site_fract_y
 _atom_site_fract_z
 _atom_site_occupancy
  Ga  Ga0  1  0.74831796  0.20268001  0.56921000  1
  Ge  Ge1  1  0.25168188  0.79732003  0.43079002  1
  Zn  Zn2  1  0.26123999  0.06481100  0.18654500  1
  V  V3  1  0.73875985  0.93518903  0.81345502  1
  Ni  Ni4  1  0.24254791  0.56642002  0.69498701  1
  Ni  Ni5  1  0.24911795  0.31920001  0.94087301  1
  S  S6  1  0.75088189  0.68080002  0.05912701  1
  B  B7  1  0.75745192  0.43358001  0.30501301  1
  Si  Si8  1  0.30386091  0.55265502  0.17928201  1
  Yb  Yb9  1  0.22325488  0.79732503  0.94606102  1
  Mo  Mo10  1  0.77674496  0.20267501  0.05393900  1
  F  F11  1  0.69613892  0.44734502  0.82071801  1
  Tb  Tb12  1  0.76230389  0.66925202  0.57290901  1
  Ga  Ga13  1  0.24272199  0.06553700  0.68795300  1
  Tb  Tb14  1  0.23769595  0.33074801  0.42709101  1
  S  S15  1  0.75727785  0.93446303  0.31204702  1
