# generated using pymatgen
data_BaCeMgVTcMoIrHe
_symmetry_space_group_name_H-M   'P 1'
_cell_length_a   5.04735804
_cell_length_b   5.04735804
_cell_length_c   5.28460598
_cell_angle_alpha   61.47430420
_cell_angle_beta   61.47430420
_cell_angle_gamma   60.00000000
_symmetry_Int_Tables_number   1
_chemical_formula_structural   BaCeMgVTcMoIrHe
_chemical_formula_sum   'Ba1 Ce1 Mg1 V1 Tc1 Mo1 Ir1 He1'
_cell_volume   97.26408243
_cell_formula_units_Z   1
loop_
 _symmetry_equiv_pos_site_id
 _symmetry_equiv_pos_as_xyz
  1  'x, y, z'
loop_
 _atom_site_type_symbol
 _atom_site_label
 _atom_site_symmetry_multiplicity
 _atom_site_fract_x
 _atom_site_fract_y
 _atom_site_fract_z
 _atom_site_occupancy
  Ce  Ce0  1  0.49999996  0.49999999  0.50000004  1
  Ba  Ba1  1  0.00000000  0.00000000  0.00000000  1
  Ir  Ir2  1  0.38589098  0.11410900  0.75000003  1
  V  V3  1  0.74999996  0.38589099  0.75000005  1
  Mg  Mg4  1  0.11410896  0.74999998  0.75000005  1
  Mo  Mo5  1  0.61410894  0.88589098  0.25000005  1
  Tc  Tc6  1  0.24999997  0.61410899  0.25000003  1
  He  He7  1  0.88589096  0.24999999  0.25000003  1
