# generated using pymatgen
data_RbLaSmLuUTa2SiNePrBeCuReGeOsKrNF
_symmetry_space_group_name_H-M   'P 1'
_cell_length_a   5.74997997
_cell_length_b   5.76672411
_cell_length_c   8.70238209
_cell_angle_alpha   81.57189941
_cell_angle_beta   71.40412140
_cell_angle_gamma   68.17583466
_symmetry_Int_Tables_number   1
_chemical_formula_structural   RbLaSmLuUTa2SiNePrBeCuReGeOsKrNF
_chemical_formula_sum
'Rb1 La1 Sm1 Lu1 U1 Ta2 Si1 Ne1 Pr1 Be1 Cu1 Re1 Ge1 Os1 Kr1 N1 F1'
_cell_volume   253.76286743
_cell_formula_units_Z   1
loop_
 _symmetry_equiv_pos_site_id
 _symmetry_equiv_pos_as_xyz
  1  'x, y, z'
loop_
 _atom_site_type_symbol
 _atom_site_label
 _atom_site_symmetry_multiplicity
 _atom_site_fract_x
 _atom_site_fract_y
 _atom_site_fract_z
 _atom_site_occupancy
  Rb  Rb0  1  0.98008303  0.23509600  0.06555795  1
  Si  Si1  1  0.44663702  0.74193602  0.10227396  1
  Ne  Ne2  1  0.89125604  0.77213902  0.32054295  1
  Ge  Ge3  1  0.25931502  0.74339502  0.51211998  1
  N  N4  1  0.74068502  0.25660501  0.48787997  1
  Cu  Cu5  1  0.55336302  0.25806401  0.89772598  1
  Sm  Sm6  1  0.01991701  0.76490402  0.93444199  1
  Pr  Pr7  1  0.10874401  0.22786100  0.67945699  1
  Os  Os8  1  0.34333301  0.22176200  0.25624198  1
  Be  Be9  1  0.65666703  0.77823802  0.74375796  1
  F  F10  1  0.33714403  0.96817802  0.86040997  1
  Ta  Ta11  1  0.79562403  0.52663701  0.87421096  1
  Ta  Ta12  1  0.20437601  0.47336301  0.12578898  1
  Lu  Lu13  1  0.85847804  0.96858402  0.69494195  1
  Re  Re14  1  0.14152200  0.03141600  0.30505800  1
  U  U15  1  0.64752303  0.65488801  0.57163596  1
  La  La16  1  0.66285602  0.03182200  0.13958997  1
  Kr  Kr17  1  0.35247702  0.34511201  0.42836398  1
