# generated using pymatgen
data_GdErTaTlCoHgGeBiTePdRuSBrHe
_symmetry_space_group_name_H-M   'P 1'
_cell_length_a   6.11774635
_cell_length_b   6.11774635
_cell_length_c   6.11774635
_cell_angle_alpha   60.00000000
_cell_angle_beta   60.00000000
_cell_angle_gamma   60.00000000
_symmetry_Int_Tables_number   1
_chemical_formula_structural   GdErTaTlCoHgGeBiTePdRuSBrHe
_chemical_formula_sum
'Gd1 Er1 Ta1 Tl1 Co1 Hg1 Ge1 Bi1 Te1 Ru1 Pd1 S1 Br1 He1'
_cell_volume   161.90468000
_cell_formula_units_Z   1
loop_
 _symmetry_equiv_pos_site_id
 _symmetry_equiv_pos_as_xyz
  1  'x, y, z'
loop_
 _atom_site_type_symbol
 _atom_site_label
 _atom_site_symmetry_multiplicity
 _atom_site_fract_x
 _atom_site_fract_y
 _atom_site_fract_z
 _atom_site_occupancy
  Co  Co0  1  0.50000001  0.50000001  0.50000001  1
  Tl  Tl1  1  0.25000000  0.25000000  0.25000000  1
  Ru  Ru2  1  0.87500001  0.87500001  0.37500001  1
  Te  Te3  1  0.37500001  0.87500001  0.87500001  1
  Bi  Bi4  1  0.87500001  0.87500001  0.87500001  1
  Hg  Hg5  1  0.87500001  0.37500001  0.87500001  1
  Pd  Pd6  1  0.09362000  0.63546001  0.63546001  1
  Br  Br7  1  0.11454100  0.11454000  0.65637901  1
  Ta  Ta8  1  0.11454100  0.65637901  0.11454000  1
  S  S9  1  0.11454100  0.11454000  0.11454000  1
  Er  Er10  1  0.63545901  0.09362100  0.63546001  1
  Ge  Ge11  1  0.63545901  0.63546001  0.63546001  1
  Gd  Gd12  1  0.65638001  0.11454000  0.11454000  1
  He  He13  1  0.63545901  0.63546001  0.09362100  1
