# generated using pymatgen
data_NaHeAcTmVGaSiNiPtXe
_symmetry_space_group_name_H-M   'P 1'
_cell_length_a   6.02836227
_cell_length_b   6.02836227
_cell_length_c   6.02836227
_cell_angle_alpha   60.00000000
_cell_angle_beta   60.00000000
_cell_angle_gamma   60.00000000
_symmetry_Int_Tables_number   1
_chemical_formula_structural   NaHeAcTmVGaSiNiPtXe
_chemical_formula_sum   'Na1 He1 Ac1 Tm1 V1 Ga1 Si1 Ni1 Pt1 Xe1'
_cell_volume   154.91127634
_cell_formula_units_Z   1
loop_
 _symmetry_equiv_pos_site_id
 _symmetry_equiv_pos_as_xyz
  1  'x, y, z'
loop_
 _atom_site_type_symbol
 _atom_site_label
 _atom_site_symmetry_multiplicity
 _atom_site_fract_x
 _atom_site_fract_y
 _atom_site_fract_z
 _atom_site_occupancy
  Na  Na0  1  0.75000003  0.75000003  0.75000003  1
  He  He1  1  0.25000001  0.25000001  0.25000001  1
  Pt  Pt2  1  0.50000002  0.50000002  0.50000002  1
  Tm  Tm3  1  0.00000000  0.00000000  0.00000000  1
  Ga  Ga4  1  0.24488701  0.24488701  0.75511303  1
  Si  Si5  1  0.75511303  0.24488701  0.75511303  1
  Ac  Ac6  1  0.75511303  0.75511303  0.24488701  1
  Ni  Ni7  1  0.24488701  0.75511303  0.75511303  1
  V  V8  1  0.75511303  0.24488701  0.24488701  1
  Xe  Xe9  1  0.24488701  0.75511303  0.24488701  1
