# generated using pymatgen
data_Cs2Pr2SmHfScTaTlZnAgPt2AuCKrNOF2
_symmetry_space_group_name_H-M   'P 1'
_cell_length_a   5.48505592
_cell_length_b   5.52260494
_cell_length_c   7.72137213
_cell_angle_alpha   90.00000000
_cell_angle_beta   90.00000000
_cell_angle_gamma   90.00000000
_symmetry_Int_Tables_number   1
_chemical_formula_structural   Cs2Pr2SmHfScTaTlZnAgPt2AuCKrNOF2
_chemical_formula_sum
'Cs2 Pr2 Sm1 Hf1 Sc1 Ta1 Tl1 Zn1 Ag1 Pt2 Au1 C1 Kr1 N1 O1 F2'
_cell_volume   233.89423668
_cell_formula_units_Z   1
loop_
 _symmetry_equiv_pos_site_id
 _symmetry_equiv_pos_as_xyz
  1  'x, y, z'
loop_
 _atom_site_type_symbol
 _atom_site_label
 _atom_site_symmetry_multiplicity
 _atom_site_fract_x
 _atom_site_fract_y
 _atom_site_fract_z
 _atom_site_occupancy
  Ta  Ta0  1  0.01023700  0.95750201  0.74999999  1
  Pt  Pt1  1  0.48976301  0.45750200  0.74999999  1
  Cs  Cs2  1  0.51023701  0.54249801  0.25000000  1
  Pr  Pr3  1  0.98976301  0.04249800  0.25000000  1
  Sm  Sm4  1  0.50000001  0.00000000  0.49999999  1
  Au  Au5  1  0.00000000  0.50000001  0.00000000  1
  Zn  Zn6  1  0.00000000  0.50000001  0.49999999  1
  Ag  Ag7  1  0.50000001  0.00000000  -0.00000000  1
  O  O8  1  0.71816701  0.28256400  0.45943399  1
  Sc  Sc9  1  0.78183301  0.78256401  0.04056600  1
  Kr  Kr10  1  0.21816700  0.21743600  0.54056599  1
  F  F11  1  0.28183300  0.71743601  0.95943398  1
  N  N12  1  0.28183300  0.71743601  0.54056599  1
  C  C13  1  0.21816700  0.21743600  0.95943398  1
  Cs  Cs14  1  0.78183301  0.78256401  0.45943399  1
  Tl  Tl15  1  0.71816701  0.28256400  0.04056600  1
  F  F16  1  0.07582900  0.48851201  0.25000000  1
  Pt  Pt17  1  0.42417101  0.98851201  0.25000000  1
  Hf  Hf18  1  0.57582901  0.01148800  0.74999999  1
  Pr  Pr19  1  0.92417101  0.51148801  0.74999999  1
