# generated using pymatgen
data_CeTmBeCuBiSIBrClF
_symmetry_space_group_name_H-M   'P 1'
_cell_length_a   7.31912088
_cell_length_b   7.31912088
_cell_length_c   7.31912088
_cell_angle_alpha   60.00000000
_cell_angle_beta   60.00000000
_cell_angle_gamma   60.00000000
_symmetry_Int_Tables_number   1
_chemical_formula_structural   CeTmBeCuBiSIBrClF
_chemical_formula_sum   'Ce1 Tm1 Be1 Cu1 Bi1 S1 I1 Br1 Cl1 F1'
_cell_volume   277.24374872
_cell_formula_units_Z   1
loop_
 _symmetry_equiv_pos_site_id
 _symmetry_equiv_pos_as_xyz
  1  'x, y, z'
loop_
 _atom_site_type_symbol
 _atom_site_label
 _atom_site_symmetry_multiplicity
 _atom_site_fract_x
 _atom_site_fract_y
 _atom_site_fract_z
 _atom_site_occupancy
  Ce  Ce0  1  0.75000000  0.75000000  0.75000000  1
  Be  Be1  1  0.25000000  0.25000000  0.25000000  1
  Cu  Cu2  1  0.00000000  0.00000000  0.00000000  1
  Br  Br3  1  0.50000000  0.50000000  0.50000000  1
  F  F4  1  0.74549400  0.25450600  0.74549400  1
  Bi  Bi5  1  0.74549400  0.74549400  0.25450600  1
  I  I6  1  0.25450600  0.74549400  0.25450600  1
  Cl  Cl7  1  0.74549400  0.25450600  0.25450600  1
  Tm  Tm8  1  0.25450600  0.74549400  0.74549400  1
  S  S9  1  0.25450600  0.25450600  0.74549400  1
