# generated using pymatgen
data_HoMnNb2HgSbSeXeOF
_symmetry_space_group_name_H-M   'P 1'
_cell_length_a   5.96537352
_cell_length_b   5.96537352
_cell_length_c   5.96537352
_cell_angle_alpha   60.00000000
_cell_angle_beta   60.00000000
_cell_angle_gamma   60.00000000
_symmetry_Int_Tables_number   1
_chemical_formula_structural   HoMnNb2HgSbSeXeOF
_chemical_formula_sum   'Ho1 Mn1 Nb2 Hg1 Sb1 Se1 Xe1 O1 F1'
_cell_volume   150.10595694
_cell_formula_units_Z   1
loop_
 _symmetry_equiv_pos_site_id
 _symmetry_equiv_pos_as_xyz
  1  'x, y, z'
loop_
 _atom_site_type_symbol
 _atom_site_label
 _atom_site_symmetry_multiplicity
 _atom_site_fract_x
 _atom_site_fract_y
 _atom_site_fract_z
 _atom_site_occupancy
  Nb  Nb0  1  0.25000000  0.25000000  0.25000000  1
  Se  Se1  1  0.74999999  0.74999999  0.74999999  1
  Xe  Xe2  1  0.00000000  0.00000000  0.00000000  1
  Sb  Sb3  1  0.49999999  0.49999999  0.49999999  1
  Hg  Hg4  1  0.74870399  0.74870399  0.25129600  1
  Ho  Ho5  1  0.25129600  0.25129600  0.74870399  1
  Nb  Nb6  1  0.74870399  0.25129600  0.25129600  1
  Mn  Mn7  1  0.25129600  0.74870399  0.74870399  1
  F  F8  1  0.74870399  0.25129600  0.74870399  1
  O  O9  1  0.25129600  0.74870399  0.25129600  1
