# generated using pymatgen
data_SrLiPmHoMgNpTiZnInSiAgSnAsPdRuSeXeClO2
_symmetry_space_group_name_H-M   'P 1'
_cell_length_a   5.18212700
_cell_length_b   5.47844505
_cell_length_c   7.50870609
_cell_angle_alpha   94.15023804
_cell_angle_beta   89.58925629
_cell_angle_gamma   89.93174744
_symmetry_Int_Tables_number   1
_chemical_formula_structural   SrLiPmHoMgNpTiZnInSiAgSnAsPdRuSeXeClO2
_chemical_formula_sum
;
Sr1 Li1 Pm1 Ho1 Mg1 Np1 Ti1 Zn1 In1 Si1 Ag1 Sn1 As1 Ru1 Pd1 Se1 Xe1
Cl1 O2
;
_cell_volume   212.60737594
_cell_formula_units_Z   1
loop_
 _symmetry_equiv_pos_site_id
 _symmetry_equiv_pos_as_xyz
  1  'x, y, z'
loop_
 _atom_site_type_symbol
 _atom_site_label
 _atom_site_symmetry_multiplicity
 _atom_site_fract_x
 _atom_site_fract_y
 _atom_site_fract_z
 _atom_site_occupancy
  Se  Se0  1  0.99758999  0.55885998  0.69671497  1
  Ag  Ag1  1  0.50401100  0.07878700  0.22963499  1
  Pm  Pm2  1  0.00459399  0.51506498  0.25320498  1
  Mg  Mg3  1  0.49215400  0.07242400  0.70004000  1
  Sn  Sn4  1  0.50077999  0.50121798  0.50212897  1
  Si  Si5  1  0.99710198  0.99829697  0.99425995  1
  Li  Li6  1  0.00405898  0.99805497  0.49404496  1
  Zn  Zn7  1  0.50086599  0.50294798  0.00066397  1
  As  As8  1  0.29330798  0.80568797  0.56415396  1
  Ru  Ru9  1  0.12409298  0.99245197  0.24821396  1
  Np  Np10  1  0.30560500  0.17560299  0.94219100  1
  Ti  Ti11  1  0.19354599  0.29037799  0.56237199  1
  Pd  Pd12  1  0.81795099  0.29977899  0.07079597  1
  Ho  Ho13  1  0.38678599  0.48189398  0.24356997  1
  In  In14  1  0.61605599  0.48949798  0.75913598  1
  O  O15  1  0.17581999  0.69074698  0.94059598  1
  Xe  Xe16  1  0.81843699  0.69353898  0.45278696  1
  O  O17  1  0.69500498  0.81919797  0.06887995  1
  Cl  Cl18  1  0.87346298  0.99526797  0.75504695  1
  Sr  Sr19  1  0.69877300  0.18270599  0.45036299  1
