# generated using pymatgen
data_GdMgBeGaOsPtPbI
_symmetry_space_group_name_H-M   'P 1'
_cell_length_a   3.04349899
_cell_length_b   3.04416466
_cell_length_c   12.15909958
_cell_angle_alpha   89.95508575
_cell_angle_beta   89.99980927
_cell_angle_gamma   60.00942230
_symmetry_Int_Tables_number   1
_chemical_formula_structural   GdMgBeGaOsPtPbI
_chemical_formula_sum   'Gd1 Mg1 Be1 Ga1 Os1 Pt1 Pb1 I1'
_cell_volume   97.56957159
_cell_formula_units_Z   1
loop_
 _symmetry_equiv_pos_site_id
 _symmetry_equiv_pos_as_xyz
  1  'x, y, z'
loop_
 _atom_site_type_symbol
 _atom_site_label
 _atom_site_symmetry_multiplicity
 _atom_site_fract_x
 _atom_site_fract_y
 _atom_site_fract_z
 _atom_site_occupancy
  Gd  Gd0  1  0.00000498  0.99999002  0.99997298  1
  Be  Be1  1  0.00000998  0.99997902  0.50006099  1
  Os  Os2  1  0.33333333  0.33327767  0.75010498  1
  Ga  Ga3  1  0.66660399  0.66672935  0.24989200  1
  Pt  Pt4  1  0.66666666  0.66666668  0.41569200  1
  Pb  Pb5  1  0.33333333  0.33333334  0.58417099  1
  Mg  Mg6  1  0.66659599  0.66680502  0.08392601  1
  I  I7  1  0.33333333  0.33326867  0.91617998  1
