# generated using pymatgen
data_Li2TbTiBeGeIrPtRhBrHeF
_symmetry_space_group_name_H-M   'P 1'
_cell_length_a   6.03853083
_cell_length_b   6.05967999
_cell_length_c   6.12817860
_cell_angle_alpha   90.00000000
_cell_angle_beta   89.92820740
_cell_angle_gamma   90.00000000
_symmetry_Int_Tables_number   1
_chemical_formula_structural   Li2TbTiBeGeIrPtRhBrHeF
_chemical_formula_sum   'Li2 Tb1 Ti1 Be1 Ge1 Ir1 Pt1 Rh1 Br1 He1 F1'
_cell_volume   224.23946567
_cell_formula_units_Z   1
loop_
 _symmetry_equiv_pos_site_id
 _symmetry_equiv_pos_as_xyz
  1  'x, y, z'
loop_
 _atom_site_type_symbol
 _atom_site_label
 _atom_site_symmetry_multiplicity
 _atom_site_fract_x
 _atom_site_fract_y
 _atom_site_fract_z
 _atom_site_occupancy
  Ge  Ge0  1  0.21825801  0.13789900  0.03181001  1
  Tb  Tb1  1  0.17778601  0.00000000  0.80136404  1
  Br  Br2  1  0.82509502  0.14805600  0.93838107  1
  Pt  Pt3  1  0.86934102  0.00000000  0.18828505  1
  He  He4  1  0.82509502  0.85194400  0.93838107  1
  Be  Be5  1  0.21825801  0.86210100  0.03181001  1
  Ti  Ti6  1  0.47526601  0.50000000  0.52200604  1
  Li  Li7  1  0.89731103  0.00000000  0.01148004  1
  Rh  Rh8  1  0.43002801  0.50000000  0.02725202  1
  Li  Li9  1  0.43485201  0.00000000  0.48729204  1
  Ir  Ir10  1  0.96653803  0.50000000  0.55926406  1
  F  F11  1  0.14060600  0.00000000  0.96753504  1
