# generated using pymatgen
data_CsRbBaAcLaYbGdErHfThTc2BSbPOs
_symmetry_space_group_name_H-M   'P 1'
_cell_length_a   6.82089615
_cell_length_b   8.99282169
_cell_length_c   8.99282265
_cell_angle_alpha   60.00000381
_cell_angle_beta   90.00000000
_cell_angle_gamma   90.00000000
_symmetry_Int_Tables_number   1
_chemical_formula_structural   CsRbBaAcLaYbGdErHfThTc2BSbPOs
_chemical_formula_sum
'Cs1 Rb1 Ba1 Yb1 Ac1 La1 Gd1 Er1 Hf1 Th1 Tc2 B1 Sb1 P1 Os1'
_cell_volume   477.70974047
_cell_formula_units_Z   1
loop_
 _symmetry_equiv_pos_site_id
 _symmetry_equiv_pos_as_xyz
  1  'x, y, z'
loop_
 _atom_site_type_symbol
 _atom_site_label
 _atom_site_symmetry_multiplicity
 _atom_site_fract_x
 _atom_site_fract_y
 _atom_site_fract_z
 _atom_site_occupancy
  Gd  Gd0  1  0.49999999  0.66666668  0.66666668  1
  Yb  Yb1  1  0.49999999  0.33333334  0.33333334  1
  Rb  Rb2  1  0.00000000  0.33333334  0.33333334  1
  B  B3  1  0.00000000  0.66666668  0.66666668  1
  Cs  Cs4  1  0.74999998  0.25172000  0.00000001  1
  Ac  Ac5  1  0.74999998  0.00000000  0.74828000  1
  La  La6  1  0.74999998  0.74828001  0.25172002  1
  Sb  Sb7  1  0.24999999  0.74828001  0.00000002  1
  Tc  Tc8  1  0.24999999  0.00000000  0.25172000  1
  Ba  Ba9  1  0.24999999  0.25172000  0.74828000  1
  Tc  Tc10  1  0.74999998  0.60927401  1.00000001  1
  Hf  Hf11  1  0.74999998  0.00000000  0.39072600  1
  Th  Th12  1  0.74999998  0.39072601  0.60927401  1
  Er  Er13  1  0.24999999  0.39072601  1.00000001  1
  P  P14  1  0.24999999  0.00000000  0.60927400  1
  Os  Os15  1  0.24999999  0.60927401  0.39072602  1
