# generated using pymatgen
data_KRbLaCeGdDyHoMgPaZnCoSiAg2GeBSb2OsRh
_symmetry_space_group_name_H-M   'P 1'
_cell_length_a   5.59378338
_cell_length_b   5.85326481
_cell_length_c   8.07553005
_cell_angle_alpha   90.00000000
_cell_angle_beta   90.68571472
_cell_angle_gamma   90.00000000
_symmetry_Int_Tables_number   1
_chemical_formula_structural   KRbLaCeGdDyHoMgPaZnCoSiAg2GeBSb2OsRh
_chemical_formula_sum
'K1 Rb1 La1 Ce1 Gd1 Dy1 Ho1 Mg1 Pa1 Zn1 Co1 Si1 Ag2 Ge1 B1 Sb2 Os1 Rh1'
_cell_volume   264.38922455
_cell_formula_units_Z   1
loop_
 _symmetry_equiv_pos_site_id
 _symmetry_equiv_pos_as_xyz
  1  'x, y, z'
loop_
 _atom_site_type_symbol
 _atom_site_label
 _atom_site_symmetry_multiplicity
 _atom_site_fract_x
 _atom_site_fract_y
 _atom_site_fract_z
 _atom_site_occupancy
  Ag  Ag0  1  0.49999999  0.50000002  0.00000002  1
  Si  Si1  1  0.00000000  0.00000000  0.49999998  1
  K  K2  1  0.48295299  0.94386203  0.75660598  1
  Pa  Pa3  1  0.01704700  0.44386201  0.74339397  1
  Gd  Gd4  1  0.51704698  0.05613800  0.24339401  1
  Mg  Mg5  1  0.98295297  0.55613802  0.25660602  1
  B  B6  1  0.49999999  0.50000002  0.49999999  1
  Os  Os7  1  0.00000000  0.00000000  0.00000000  1
  Ge  Ge8  1  0.33597599  0.23203401  0.57401299  1
  Sb  Sb9  1  0.16402400  0.73203402  0.92598696  1
  Dy  Dy10  1  0.66402398  0.76796603  0.42598700  1
  Co  Co11  1  0.83597598  0.26796601  0.07401302  1
  La  La12  1  0.61444198  0.55878102  0.71906599  1
  Ag  Ag13  1  0.88555797  0.05878100  0.78093399  1
  Sb  Sb14  1  0.38555799  0.44121901  0.28093400  1
  Ho  Ho15  1  0.11444200  0.94121903  0.21906599  1
  Rh  Rh16  1  0.22308999  0.67547002  0.54673298  1
  Ce  Ce17  1  0.27690999  0.17547001  0.95326697  1
  Zn  Zn18  1  0.77690998  0.32453001  0.45326701  1
  Rb  Rb19  1  0.72308998  0.82453003  0.04673302  1
