# generated using pymatgen
data_KSrZrScZnNiMoKrCl
_symmetry_space_group_name_H-M   'P 1'
_cell_length_a   7.43916941
_cell_length_b   7.43916941
_cell_length_c   7.43916941
_cell_angle_alpha   60.00000000
_cell_angle_beta   60.00000000
_cell_angle_gamma   60.00000000
_symmetry_Int_Tables_number   1
_chemical_formula_structural   KSrZrScZnNiMoKrCl
_chemical_formula_sum   'K1 Sr1 Zr1 Sc1 Zn1 Ni1 Mo1 Kr1 Cl1'
_cell_volume   291.11082046
_cell_formula_units_Z   1
loop_
 _symmetry_equiv_pos_site_id
 _symmetry_equiv_pos_as_xyz
  1  'x, y, z'
loop_
 _atom_site_type_symbol
 _atom_site_label
 _atom_site_symmetry_multiplicity
 _atom_site_fract_x
 _atom_site_fract_y
 _atom_site_fract_z
 _atom_site_occupancy
  Sr  Sr0  1  0.74999998  0.74999998  0.74999998  1
  Mo  Mo1  1  0.24999999  0.24999999  0.24999999  1
  K  K2  1  0.00000000  0.00000000  0.00000000  1
  Zn  Zn3  1  0.77664898  0.77664898  0.22335099  1
  Kr  Kr4  1  0.77664898  0.22335099  0.22335099  1
  Sc  Sc5  1  0.22335099  0.77664898  0.77664898  1
  Ni  Ni6  1  0.22335099  0.22335099  0.77664898  1
  Cl  Cl7  1  0.77664898  0.22335099  0.77664898  1
  Zr  Zr8  1  0.22335099  0.77664898  0.22335099  1
