# generated using pymatgen
data_LiPuZrMnCdReNiHg2BiBP
_symmetry_space_group_name_H-M   'P 1'
_cell_length_a   4.78162813
_cell_length_b   4.78232813
_cell_length_c   7.26721478
_cell_angle_alpha   90.00000000
_cell_angle_beta   90.00000000
_cell_angle_gamma   95.23326874
_symmetry_Int_Tables_number   1
_chemical_formula_structural   LiPuZrMnCdReNiHg2BiBP
_chemical_formula_sum   'Li1 Pu1 Zr1 Mn1 Cd1 Re1 Ni1 Hg2 Bi1 B1 P1'
_cell_volume   165.48897646
_cell_formula_units_Z   1
loop_
 _symmetry_equiv_pos_site_id
 _symmetry_equiv_pos_as_xyz
  1  'x, y, z'
loop_
 _atom_site_type_symbol
 _atom_site_label
 _atom_site_symmetry_multiplicity
 _atom_site_fract_x
 _atom_site_fract_y
 _atom_site_fract_z
 _atom_site_occupancy
  B  B0  1  0.86699094  0.86701404  0.50000602  1
  Pu  Pu1  1  0.13300899  0.13298601  0.00000600  1
  Ni  Ni2  1  0.34054598  0.34067001  0.49999902  1
  Cd  Cd3  1  0.65945395  0.65933003  0.99999903  1
  Li  Li4  1  0.18687799  0.18681401  0.66709502  1
  P  P5  1  0.34093195  0.69199303  0.99999903  1
  Re  Re6  1  0.81312194  0.81318603  0.16709501  1
  Mn  Mn7  1  0.81311894  0.81318403  0.83290303  1
  Hg  Hg8  1  0.18688099  0.18681601  0.33290301  1
  Zr  Zr9  1  0.65906797  0.30800701  0.49999902  1
  Hg  Hg10  1  0.30736796  0.65906503  0.49999902  1
  Bi  Bi11  1  0.69263197  0.34093501  0.99999903  1
