# generated using pymatgen
data_BaAcYbDyTmThTl2InFeCuSiSnGeMoAsCKr
_symmetry_space_group_name_H-M   'P 1'
_cell_length_a   7.41134596
_cell_length_b   8.45527744
_cell_length_c   9.52516079
_cell_angle_alpha   90.00000000
_cell_angle_beta   112.89480591
_cell_angle_gamma   90.00000000
_symmetry_Int_Tables_number   1
_chemical_formula_structural   BaAcYbDyTmThTl2InFeCuSiSnGeMoAsCKr
_chemical_formula_sum
'Ba1 Yb1 Ac1 Dy1 Tm1 Th1 Tl2 In1 Fe1 Cu1 Si1 Sn1 Ge1 Mo1 As1 C1 Kr1'
_cell_volume   549.87115992
_cell_formula_units_Z   1
loop_
 _symmetry_equiv_pos_site_id
 _symmetry_equiv_pos_as_xyz
  1  'x, y, z'
loop_
 _atom_site_type_symbol
 _atom_site_label
 _atom_site_symmetry_multiplicity
 _atom_site_fract_x
 _atom_site_fract_y
 _atom_site_fract_z
 _atom_site_occupancy
  Dy  Dy0  1  0.46979200  0.24999999  0.93958399  1
  Yb  Yb1  1  0.53020800  0.74999996  0.06041599  1
  In  In2  1  0.75708100  0.24999999  0.51416198  1
  Sn  Sn3  1  0.24291900  0.74999996  0.48583800  1
  Ge  Ge4  1  0.10811800  0.24999999  0.21623600  1
  Tm  Tm5  1  0.89188199  0.74999996  0.78376398  1
  As  As6  1  0.24609400  0.24999999  0.49218900  1
  Tl  Tl7  1  0.75390600  0.74999996  0.50781098  1
  Ba  Ba8  1  0.88614799  0.04995800  0.22493598  1
  Kr  Kr9  1  0.66121200  0.95004195  0.77506399  1
  Mo  Mo10  1  0.88614799  0.45004198  0.22493598  1
  Cu  Cu11  1  0.66121200  0.54995797  0.77506399  1
  Si  Si12  1  0.11385200  0.95004195  0.77506400  1
  Fe  Fe13  1  0.33878800  0.04995800  0.22493599  1
  Th  Th14  1  0.11385200  0.54995797  0.77506400  1
  Tl  Tl15  1  0.33878800  0.45004198  0.22493599  1
  C  C16  1  0.00584000  0.24999999  0.01168000  1
  Ac  Ac17  1  0.99415999  0.74999996  0.98831998  1
