# generated using pymatgen
data_HfMgAlTlCdCoH2RhSe
_symmetry_space_group_name_H-M   'P 1'
_cell_length_a   3.83330011
_cell_length_b   7.82922792
_cell_length_c   7.82922792
_cell_angle_alpha   90.00000000
_cell_angle_beta   90.00000000
_cell_angle_gamma   90.00000000
_symmetry_Int_Tables_number   1
_chemical_formula_structural   HfMgAlTlCdCoH2RhSe
_chemical_formula_sum   'Hf1 Mg1 Al1 Tl1 Cd1 Co1 H2 Rh1 Se1'
_cell_volume   234.96906832
_cell_formula_units_Z   1
loop_
 _symmetry_equiv_pos_site_id
 _symmetry_equiv_pos_as_xyz
  1  'x, y, z'
loop_
 _atom_site_type_symbol
 _atom_site_label
 _atom_site_symmetry_multiplicity
 _atom_site_fract_x
 _atom_site_fract_y
 _atom_site_fract_z
 _atom_site_occupancy
  Tl  Tl0  1  0.49999999  0.32762100  0.82762101  1
  Mg  Mg1  1  0.49999999  0.82762101  0.67237901  1
  Se  Se2  1  0.49999999  0.17237900  0.32762100  1
  Al  Al3  1  0.49999999  0.67237901  0.17237900  1
  Co  Co4  1  0.00000000  0.00000000  0.00000000  1
  Cd  Cd5  1  0.00000000  0.50000000  0.50000000  1
  H  H6  1  0.99999997  0.36968800  0.13031200  1
  Hf  Hf7  1  0.99999997  0.86968801  0.36968800  1
  H  H8  1  0.99999997  0.13031200  0.63031201  1
  Rh  Rh9  1  0.00000000  0.63031201  0.86968801  1
