# generated using pymatgen
data_CsEuHoPuUCdNiTeRuWKrN
_symmetry_space_group_name_H-M   'P 1'
_cell_length_a   5.01233912
_cell_length_b   5.01233912
_cell_length_c   5.01233912
_cell_angle_alpha   90.00000000
_cell_angle_beta   90.00000000
_cell_angle_gamma   90.00000000
_symmetry_Int_Tables_number   1
_chemical_formula_structural   CsEuHoPuUCdNiTeRuWKrN
_chemical_formula_sum
'Cs1 Eu1 Ho1 Pu1 U1 Cd1 Ni1 Te1 Ru1 W1 Kr1 N1'
_cell_volume   125.92771932
_cell_formula_units_Z   1
loop_
 _symmetry_equiv_pos_site_id
 _symmetry_equiv_pos_as_xyz
  1  'x, y, z'
loop_
 _atom_site_type_symbol
 _atom_site_label
 _atom_site_symmetry_multiplicity
 _atom_site_fract_x
 _atom_site_fract_y
 _atom_site_fract_z
 _atom_site_occupancy
  Ru  Ru0  1  0.00000000  0.49999999  0.49999999  1
  Eu  Eu1  1  0.49999999  0.49999999  0.00000000  1
  W  W2  1  0.49999999  0.00000000  0.49999999  1
  Kr  Kr3  1  0.00000000  0.00000000  0.00000000  1
  Ni  Ni4  1  0.33992699  0.16007300  0.83992698  1
  U  U5  1  0.16007300  0.83992698  0.33992699  1
  Ho  Ho6  1  0.83992698  0.33992699  0.16007300  1
  Cs  Cs7  1  0.66007298  0.66007298  0.66007298  1
  Cd  Cd8  1  0.33992699  0.33992699  0.33992699  1
  Te  Te9  1  0.16007300  0.66007298  0.83992698  1
  N  N10  1  0.83992698  0.16007300  0.66007298  1
  Pu  Pu11  1  0.66007298  0.83992698  0.16007300  1
