# generated using pymatgen
data_KSrLiCaNdDy2ZrNpTaAlGaSnSbP2AuBrKrO
_symmetry_space_group_name_H-M   'P 1'
_cell_length_a   5.59499741
_cell_length_b   5.68928719
_cell_length_c   7.96452761
_cell_angle_alpha   89.99985504
_cell_angle_beta   89.76834106
_cell_angle_gamma   89.99985504
_symmetry_Int_Tables_number   1
_chemical_formula_structural   KSrLiCaNdDy2ZrNpTaAlGaSnSbP2AuBrKrO
_chemical_formula_sum
'K1 Sr1 Li1 Ca1 Nd1 Dy2 Zr1 Np1 Ta1 Al1 Ga1 Sn1 Sb1 P2 Au1 Br1 Kr1 O1'
_cell_volume   253.52116298
_cell_formula_units_Z   1
loop_
 _symmetry_equiv_pos_site_id
 _symmetry_equiv_pos_as_xyz
  1  'x, y, z'
loop_
 _atom_site_type_symbol
 _atom_site_label
 _atom_site_symmetry_multiplicity
 _atom_site_fract_x
 _atom_site_fract_y
 _atom_site_fract_z
 _atom_site_occupancy
  K  K0  1  0.48747099  0.45377199  0.74946799  1
  Li  Li1  1  0.98746903  0.04621700  0.24946998  1
  O  O2  1  0.01083096  0.95974797  0.75044599  1
  Ca  Ca3  1  0.51082399  0.54025098  0.25044598  1
  Br  Br4  1  0.50061301  0.00029000  0.49941000  1
  Au  Au5  1  0.00059098  0.49972498  0.99938101  1
  Sb  Sb6  1  0.50024801  0.00072900  0.00087899  1
  Dy  Dy7  1  0.00024898  0.49926998  0.50088000  1
  Sn  Sn8  1  0.08988998  0.46957698  0.24659599  1
  Nd  Nd9  1  0.20534500  0.21302199  0.95121001  1
  Zr  Zr10  1  0.21230700  0.20647399  0.54850700  1
  Ta  Ta11  1  0.29135898  0.70437998  0.94910999  1
  Np  Np12  1  0.29829798  0.70975598  0.55079298  1
  Sr  Sr13  1  0.40364597  0.97313297  0.25359897  1
  Ga  Ga14  1  0.58989401  0.03042700  0.74659600  1
  Dy  Dy15  1  0.70534601  0.28697899  0.45120799  1
  P  P16  1  0.71231201  0.29352499  0.04850798  1
  Al  Al17  1  0.79135799  0.79561597  0.44911097  1
  Kr  Kr18  1  0.79830099  0.79024097  0.05079196  1
  P  P19  1  0.90364800  0.52686398  0.75359698  1
