# generated using pymatgen
data_KLiErCdSnSbAsIrPt
_symmetry_space_group_name_H-M   'P 1'
_cell_length_a   3.83598089
_cell_length_b   6.52612400
_cell_length_c   6.52612400
_cell_angle_alpha   120.00000000
_cell_angle_beta   90.00000000
_cell_angle_gamma   90.00000000
_symmetry_Int_Tables_number   1
_chemical_formula_structural   KLiErCdSnSbAsIrPt
_chemical_formula_sum   'K1 Li1 Er1 Cd1 Sn1 Sb1 As1 Ir1 Pt1'
_cell_volume   141.48738166
_cell_formula_units_Z   1
loop_
 _symmetry_equiv_pos_site_id
 _symmetry_equiv_pos_as_xyz
  1  'x, y, z'
loop_
 _atom_site_type_symbol
 _atom_site_label
 _atom_site_symmetry_multiplicity
 _atom_site_fract_x
 _atom_site_fract_y
 _atom_site_fract_z
 _atom_site_occupancy
  As  As0  1  0.50000001  0.58336700  -0.00000001  1
  Sb  Sb1  1  0.50000001  0.41663300  0.41663298  1
  Pt  Pt2  1  0.50000001  0.99999999  0.58336697  1
  Li  Li3  1  -0.00000000  0.99999999  0.22976498  1
  Cd  Cd4  1  -0.00000000  0.77023499  0.77023497  1
  K  K5  1  -0.00000000  0.22976500  -0.00000000  1
  Ir  Ir6  1  0.50000001  0.00000000  -0.00000000  1
  Sn  Sn7  1  -0.00000000  0.33333333  0.66666665  1
  Er  Er8  1  -0.00000000  0.66666666  0.33333332  1
