# generated using pymatgen
data_RbLaZrNpScUBeVInFe2NiHg2AsIrCXeO2
_symmetry_space_group_name_H-M   'P 1'
_cell_length_a   5.23233891
_cell_length_b   5.55214548
_cell_length_c   7.63106728
_cell_angle_alpha   94.51078796
_cell_angle_beta   89.99043274
_cell_angle_gamma   89.50526428
_symmetry_Int_Tables_number   1
_chemical_formula_structural   RbLaZrNpScUBeVInFe2NiHg2AsIrCXeO2
_chemical_formula_sum
'Rb1 La1 Zr1 Np1 Sc1 U1 Be1 V1 In1 Fe2 Ni1 Hg2 As1 Ir1 C1 Xe1 O2'
_cell_volume   220.99291104
_cell_formula_units_Z   1
loop_
 _symmetry_equiv_pos_site_id
 _symmetry_equiv_pos_as_xyz
  1  'x, y, z'
loop_
 _atom_site_type_symbol
 _atom_site_label
 _atom_site_symmetry_multiplicity
 _atom_site_fract_x
 _atom_site_fract_y
 _atom_site_fract_z
 _atom_site_occupancy
  Ni  Ni0  1  0.98974306  0.51356199  0.23307903  1
  Fe  Fe1  1  0.48974602  0.01342300  0.73316504  1
  Zr  Zr2  1  0.49461807  0.93729298  0.26804300  1
  Hg  Hg3  1  0.99459706  0.43675299  0.76817705  1
  Hg  Hg4  1  0.49189404  0.49617499  0.99020203  1
  Be  Be5  1  0.99198609  0.99607397  0.49010402  1
  Xe  Xe6  1  0.49160904  0.49116499  0.49267802  1
  As  As7  1  0.99155109  0.99111797  0.99261904  1
  V  V8  1  0.81488605  0.31070999  0.04935503  1
  U  U9  1  0.31482805  0.81070198  0.54949500  1
  Np  Np10  1  0.79444906  0.69011198  0.42006502  1
  Rb  Rb11  1  0.29451102  0.19014500  0.92007303  1
  O  O12  1  0.35987104  0.50648399  0.24202201  1
  Fe  Fe13  1  0.85991003  0.00660000  0.74195805  1
  Ir  Ir14  1  0.67201703  0.18252400  0.42872803  1
  La  La15  1  0.17179804  0.68251098  0.92889701  1
  O  O16  1  0.12592006  0.99368097  0.24050498  1
  Sc  Sc17  1  0.62595605  0.49378099  0.74061703  1
  C  C18  1  0.68151807  0.80659898  0.05625101  1
  In  In19  1  0.18191802  0.30642699  0.55628801  1
