# generated using pymatgen
data_Na2CaErNb2CoSnRuAuXeO
_symmetry_space_group_name_H-M   'P 1'
_cell_length_a   5.25778484
_cell_length_b   6.14154673
_cell_length_c   6.43487024
_cell_angle_alpha   102.42066193
_cell_angle_beta   93.00685883
_cell_angle_gamma   98.96270752
_symmetry_Int_Tables_number   1
_chemical_formula_structural   Na2CaErNb2CoSnRuAuXeO
_chemical_formula_sum   'Na2 Ca1 Er1 Nb2 Co1 Sn1 Ru1 Au1 Xe1 O1'
_cell_volume   199.64944305
_cell_formula_units_Z   1
loop_
 _symmetry_equiv_pos_site_id
 _symmetry_equiv_pos_as_xyz
  1  'x, y, z'
loop_
 _atom_site_type_symbol
 _atom_site_label
 _atom_site_symmetry_multiplicity
 _atom_site_fract_x
 _atom_site_fract_y
 _atom_site_fract_z
 _atom_site_occupancy
  Na  Na0  1  0.86521504  0.25739600  0.78535202  1
  Ca  Ca1  1  0.13478504  0.74260399  0.21464801  1
  Nb  Nb2  1  0.65857802  0.00451100  0.73969701  1
  Nb  Nb3  1  0.34142206  0.99548898  0.26030303  1
  Ru  Ru4  1  0.17805601  0.16483900  0.86277799  1
  Na  Na5  1  0.14524804  0.62304599  0.90514100  1
  Au  Au6  1  0.63173704  0.45352899  0.74588202  1
  O  O7  1  0.98143504  0.26269500  0.51392003  1
  Co  Co8  1  0.01856504  0.73730499  0.48608000  1
  Sn  Sn9  1  0.36826304  0.54647099  0.25411802  1
  Xe  Xe10  1  0.85475305  0.37695399  0.09485904  1
  Er  Er11  1  0.82194407  0.83516099  0.13722205  1
