# generated using pymatgen
data_CaPmNpZnInFeNiMoIrOs
_symmetry_space_group_name_H-M   'P 1'
_cell_length_a   8.51058006
_cell_length_b   8.51058006
_cell_length_c   8.51058006
_cell_angle_alpha   60.00000000
_cell_angle_beta   60.00000000
_cell_angle_gamma   60.00000000
_symmetry_Int_Tables_number   1
_chemical_formula_structural   CaPmNpZnInFeNiMoIrOs
_chemical_formula_sum   'Ca1 Pm1 Np1 Zn1 In1 Fe1 Ni1 Mo1 Os1 Ir1'
_cell_volume   435.87552872
_cell_formula_units_Z   1
loop_
 _symmetry_equiv_pos_site_id
 _symmetry_equiv_pos_as_xyz
  1  'x, y, z'
loop_
 _atom_site_type_symbol
 _atom_site_label
 _atom_site_symmetry_multiplicity
 _atom_site_fract_x
 _atom_site_fract_y
 _atom_site_fract_z
 _atom_site_occupancy
  Pm  Pm0  1  0.25000001  0.25000001  0.25000001  1
  Os  Os1  1  0.75000002  0.75000002  0.75000002  1
  Ir  Ir2  1  0.50000001  0.50000001  0.50000001  1
  Zn  Zn3  1  0.00000000  0.00000000  0.00000000  1
  Np  Np4  1  0.23850500  0.76149502  0.23850500  1
  Ni  Ni5  1  0.23850500  0.23850500  0.76149502  1
  Fe  Fe6  1  0.76149502  0.23850500  0.76149502  1
  Mo  Mo7  1  0.23850500  0.76149502  0.76149502  1
  Ca  Ca8  1  0.76149502  0.23850500  0.23850500  1
  In  In9  1  0.76149502  0.76149502  0.23850500  1
