# generated using pymatgen
data_CsCaPrNpUSnBXeIBr
_symmetry_space_group_name_H-M   'P 1'
_cell_length_a   5.25781441
_cell_length_b   5.25781441
_cell_length_c   6.91629505
_cell_angle_alpha   67.65991974
_cell_angle_beta   67.65991974
_cell_angle_gamma   59.99999619
_symmetry_Int_Tables_number   1
_chemical_formula_structural   CsCaPrNpUSnBXeIBr
_chemical_formula_sum   'Cs1 Ca1 Pr1 Np1 U1 Sn1 B1 Xe1 I1 Br1'
_cell_volume   148.78144907
_cell_formula_units_Z   1
loop_
 _symmetry_equiv_pos_site_id
 _symmetry_equiv_pos_as_xyz
  1  'x, y, z'
loop_
 _atom_site_type_symbol
 _atom_site_label
 _atom_site_symmetry_multiplicity
 _atom_site_fract_x
 _atom_site_fract_y
 _atom_site_fract_z
 _atom_site_occupancy
  Xe  Xe0  1  0.00000000  0.00000000  0.00000000  1
  Br  Br1  1  0.49999994  0.49999998  0.50000004  1
  U  U2  1  0.74999992  0.74999997  0.75000006  1
  Ca  Ca3  1  0.24999997  0.24999999  0.25000002  1
  I  I4  1  0.49736997  0.00263000  0.25000002  1
  Np  Np5  1  0.99736990  0.74999997  0.75000007  1
  Cs  Cs6  1  0.50262992  0.99736996  0.75000006  1
  Pr  Pr7  1  0.00262999  0.24999999  0.25000001  1
  B  B8  1  0.74999993  0.50262998  0.75000005  1
  Sn  Sn9  1  0.24999996  0.49736998  0.25000003  1
