# generated using pymatgen
data_DyLuThNpUPaVInFeCuReNiSb2HNeAsSe
_symmetry_space_group_name_H-M   'P 1'
_cell_length_a   5.31228924
_cell_length_b   7.13230085
_cell_length_c   7.47295856
_cell_angle_alpha   90.00000000
_cell_angle_beta   91.52150726
_cell_angle_gamma   90.00000000
_symmetry_Int_Tables_number   1
_chemical_formula_structural   DyLuThNpUPaVInFeCuReNiSb2HNeAsSe
_chemical_formula_sum
'Dy1 Lu1 Th1 Np1 U1 Pa1 V1 In1 Fe1 Re1 Cu1 Ni1 Sb2 H1 Ne1 As1 Se1'
_cell_volume   283.04194152
_cell_formula_units_Z   1
loop_
 _symmetry_equiv_pos_site_id
 _symmetry_equiv_pos_as_xyz
  1  'x, y, z'
loop_
 _atom_site_type_symbol
 _atom_site_label
 _atom_site_symmetry_multiplicity
 _atom_site_fract_x
 _atom_site_fract_y
 _atom_site_fract_z
 _atom_site_occupancy
  Np  Np0  1  0.00000000  0.00000000  0.50000001  1
  Sb  Sb1  1  0.49999998  0.50000001  0.00000002  1
  Pa  Pa2  1  0.47906598  0.15788600  0.28450703  1
  U  U3  1  0.52093398  0.84211402  0.71549304  1
  Re  Re4  1  0.97906596  0.34211401  0.78450706  1
  Ni  Ni5  1  0.02093400  0.65788601  0.21549301  1
  Dy  Dy6  1  0.44376298  0.58398301  0.75923004  1
  Lu  Lu7  1  0.55623698  0.41601701  0.24077003  1
  V  V8  1  0.31591599  0.71378901  0.08582301  1
  Sb  Sb9  1  0.18408399  0.21378900  0.41417702  1
  H  H10  1  0.94376296  0.91601702  0.25923004  1
  Ne  Ne11  1  0.19885999  0.35096901  0.99478303  1
  As  As12  1  0.30113999  0.85096902  0.50521702  1
  Cu  Cu13  1  0.80113997  0.64903101  0.00521703  1
  Fe  Fe14  1  0.69885997  0.14903100  0.49478304  1
  Th  Th15  1  0.68408397  0.28621101  0.91417705  1
  In  In16  1  0.81591596  0.78621102  0.58582305  1
  Se  Se17  1  0.05623700  0.08398300  0.74077002  1
