# generated using pymatgen
data_SrTbMnFeReSn2BiPbN
_symmetry_space_group_name_H-M   'P 1'
_cell_length_a   8.78094006
_cell_length_b   8.78094006
_cell_length_c   8.78094006
_cell_angle_alpha   60.00000000
_cell_angle_beta   60.00000000
_cell_angle_gamma   60.00000000
_symmetry_Int_Tables_number   1
_chemical_formula_structural   SrTbMnFeReSn2BiPbN
_chemical_formula_sum   'Sr1 Tb1 Mn1 Fe1 Re1 Sn2 Bi1 Pb1 N1'
_cell_volume   478.74917586
_cell_formula_units_Z   1
loop_
 _symmetry_equiv_pos_site_id
 _symmetry_equiv_pos_as_xyz
  1  'x, y, z'
loop_
 _atom_site_type_symbol
 _atom_site_label
 _atom_site_symmetry_multiplicity
 _atom_site_fract_x
 _atom_site_fract_y
 _atom_site_fract_z
 _atom_site_occupancy
  N  N0  1  0.24999999  0.24999999  0.24999999  1
  Sn  Sn1  1  0.74999997  0.74999997  0.74999997  1
  Re  Re2  1  0.49999998  0.49999998  0.49999998  1
  Sr  Sr3  1  0.00000000  0.00000000  0.00000000  1
  Pb  Pb4  1  0.24052599  0.75947397  0.24052599  1
  Fe  Fe5  1  0.24052599  0.24052599  0.75947397  1
  Bi  Bi6  1  0.75947397  0.24052599  0.75947397  1
  Sn  Sn7  1  0.24052599  0.75947397  0.75947397  1
  Mn  Mn8  1  0.75947397  0.24052599  0.24052599  1
  Tb  Tb9  1  0.75947397  0.75947397  0.24052599  1
