# generated using pymatgen
data_RbNaTmLuHfThIrOsHeI
_symmetry_space_group_name_H-M   'P 1'
_cell_length_a   6.02434206
_cell_length_b   6.02434206
_cell_length_c   6.02434206
_cell_angle_alpha   60.00000000
_cell_angle_beta   60.00000000
_cell_angle_gamma   60.00000000
_symmetry_Int_Tables_number   1
_chemical_formula_structural   RbNaTmLuHfThIrOsHeI
_chemical_formula_sum   'Rb1 Na1 Tm1 Lu1 Th1 Hf1 Os1 Ir1 He1 I1'
_cell_volume   154.60155975
_cell_formula_units_Z   1
loop_
 _symmetry_equiv_pos_site_id
 _symmetry_equiv_pos_as_xyz
  1  'x, y, z'
loop_
 _atom_site_type_symbol
 _atom_site_label
 _atom_site_symmetry_multiplicity
 _atom_site_fract_x
 _atom_site_fract_y
 _atom_site_fract_z
 _atom_site_occupancy
  Os  Os0  1  0.24999999  0.24999999  0.24999999  1
  Th  Th1  1  0.74999998  0.74999998  0.74999998  1
  Lu  Lu2  1  0.49999999  0.49999999  0.49999999  1
  Tm  Tm3  1  0.00000000  0.00000000  0.00000000  1
  Rb  Rb4  1  0.23613299  0.76386698  0.23613299  1
  Na  Na5  1  0.23613299  0.23613299  0.76386698  1
  Ir  Ir6  1  0.76386698  0.23613299  0.76386698  1
  He  He7  1  0.23613299  0.76386698  0.76386698  1
  Hf  Hf8  1  0.76386698  0.23613299  0.23613299  1
  I  I9  1  0.76386698  0.76386698  0.23613299  1
