# generated using pymatgen
data_BaLiPmSmNpSbWSe
_symmetry_space_group_name_H-M   'P 1'
_cell_length_a   5.86601114
_cell_length_b   5.86601114
_cell_length_c   5.98941660
_cell_angle_alpha   60.67926025
_cell_angle_beta   60.67926025
_cell_angle_gamma   59.99998856
_symmetry_Int_Tables_number   1
_chemical_formula_structural   BaLiPmSmNpSbWSe
_chemical_formula_sum   'Ba1 Li1 Pm1 Sm1 Np1 Sb1 W1 Se1'
_cell_volume   147.21046438
_cell_formula_units_Z   1
loop_
 _symmetry_equiv_pos_site_id
 _symmetry_equiv_pos_as_xyz
  1  'x, y, z'
loop_
 _atom_site_type_symbol
 _atom_site_label
 _atom_site_symmetry_multiplicity
 _atom_site_fract_x
 _atom_site_fract_y
 _atom_site_fract_z
 _atom_site_occupancy
  Se  Se0  1  0.00000000  0.00000000  0.00000000  1
  Sm  Sm1  1  0.49999998  0.49999999  0.50000003  1
  W  W2  1  0.19524299  0.73266498  0.73398803  1
  Sb  Sb3  1  0.73266498  0.33810399  0.73398803  1
  Np  Np4  1  0.66189598  0.80475698  0.26601202  1
  Ba  Ba5  1  0.26733499  0.66189598  0.26601202  1
  Pm  Pm6  1  0.80475698  0.26733499  0.26601202  1
  Li  Li7  1  0.33810399  0.19524300  0.73398803  1
