# generated using pymatgen
data_SrEuGdHfTi2NbAlFeCoSiHIrRhPbAu
_symmetry_space_group_name_H-M   'P 1'
_cell_length_a   5.42154598
_cell_length_b   5.48602009
_cell_length_c   7.81218958
_cell_angle_alpha   109.57180023
_cell_angle_beta   104.59900665
_cell_angle_gamma   96.34664154
_symmetry_Int_Tables_number   1
_chemical_formula_structural   SrEuGdHfTi2NbAlFeCoSiHIrRhPbAu
_chemical_formula_sum
'Sr1 Gd1 Eu1 Hf1 Ti2 Nb1 Al1 Fe1 Co1 Si1 H1 Ir1 Rh1 Pb1 Au1'
_cell_volume   206.96168159
_cell_formula_units_Z   1
loop_
 _symmetry_equiv_pos_site_id
 _symmetry_equiv_pos_as_xyz
  1  'x, y, z'
loop_
 _atom_site_type_symbol
 _atom_site_label
 _atom_site_symmetry_multiplicity
 _atom_site_fract_x
 _atom_site_fract_y
 _atom_site_fract_z
 _atom_site_occupancy
  Ti  Ti0  1  0.50000004  0.49999999  0.50000005  1
  Co  Co1  1  0.00000000  0.00000000  0.00000000  1
  Sr  Sr2  1  0.56308906  0.87041198  0.22648706  1
  Al  Al3  1  0.43691102  0.12958800  0.77351303  1
  Nb  Nb4  1  0.96966504  0.29944699  0.33788605  1
  Gd  Gd5  1  0.03033504  0.70055299  0.66211404  1
  H  H6  1  0.88681906  0.66900099  0.71766207  1
  Ir  Ir7  1  0.67625103  0.17075800  0.36205004  1
  Au  Au8  1  0.34884503  0.30490099  0.66011104  1
  Hf  Hf9  1  0.68029206  0.80872598  0.05791506  1
  Ti  Ti10  1  0.26185505  0.81096498  0.15012504  1
  Si  Si11  1  0.73814503  0.18903500  0.84987505  1
  Rh  Rh12  1  0.31970802  0.19127400  0.94208503  1
  Pb  Pb13  1  0.65115506  0.69509899  0.33988906  1
  Eu  Eu14  1  0.32374906  0.82924198  0.63795005  1
  Fe  Fe15  1  0.11318102  0.33099899  0.28233802  1
