# generated using pymatgen
data_CsBaLiAcLaSmEu2TmThVSiAg2SnWXeI
_symmetry_space_group_name_H-M   'P 1'
_cell_length_a   4.60883617
_cell_length_b   5.52733850
_cell_length_c   7.63699102
_cell_angle_alpha   93.20270538
_cell_angle_beta   90.04065704
_cell_angle_gamma   90.01578522
_symmetry_Int_Tables_number   1
_chemical_formula_structural   CsBaLiAcLaSmEu2TmThVSiAg2SnWXeI
_chemical_formula_sum
'Cs1 Ba1 Li1 Ac1 La1 Sm1 Eu2 Tm1 Th1 V1 Si1 Ag2 Sn1 W1 Xe1 I1'
_cell_volume   194.24535379
_cell_formula_units_Z   1
loop_
 _symmetry_equiv_pos_site_id
 _symmetry_equiv_pos_as_xyz
  1  'x, y, z'
loop_
 _atom_site_type_symbol
 _atom_site_label
 _atom_site_symmetry_multiplicity
 _atom_site_fract_x
 _atom_site_fract_y
 _atom_site_fract_z
 _atom_site_occupancy
  Tm  Tm0  1  0.46206805  0.84679700  0.32843000  1
  Eu  Eu1  1  0.96224607  0.98688300  0.00398301  1
  Sn  Sn2  1  0.01015301  0.33311700  0.32980200  1
  I  I3  1  0.50980604  0.50115100  0.00294100  1
  Sm  Sm4  1  0.50150603  0.16609700  0.64661102  1
  Ag  Ag5  1  0.00188402  0.66550700  0.68618600  1
  Ag  Ag6  1  0.20772602  0.36706200  0.57729101  1
  Th  Th7  1  0.70749705  0.46544800  0.75709802  1
  Li  Li8  1  0.19752103  0.70959500  0.90008800  1
  Cs  Cs9  1  0.69698303  0.12413300  0.43316302  1
  Xe  Xe10  1  0.20671801  0.03066800  0.22398001  1
  W  W11  1  0.70783106  0.80395300  0.10975000  1
  V  V12  1  0.31831603  0.53769000  0.23884000  1
  Ac  Ac13  1  0.81943804  0.29560200  0.09521702  1
  Si  Si14  1  0.29330804  0.86395700  0.56256600  1
  Eu  Eu15  1  0.79388507  0.96898500  0.77041601  1
  La  La16  1  0.30232502  0.19196200  0.89715502  1
  Ba  Ba17  1  0.80078806  0.64139600  0.43648102  1
