# generated using pymatgen
data_BaLiCaCePuMgZrInSiAgPtN
_symmetry_space_group_name_H-M   'P 1'
_cell_length_a   4.28722000
_cell_length_b   6.69300699
_cell_length_c   7.09945107
_cell_angle_alpha   90.00000000
_cell_angle_beta   90.00000000
_cell_angle_gamma   90.00000000
_symmetry_Int_Tables_number   1
_chemical_formula_structural   BaLiCaCePuMgZrInSiAgPtN
_chemical_formula_sum
'Ba1 Li1 Ca1 Ce1 Pu1 Mg1 Zr1 In1 Si1 Ag1 Pt1 N1'
_cell_volume   203.71444211
_cell_formula_units_Z   1
loop_
 _symmetry_equiv_pos_site_id
 _symmetry_equiv_pos_as_xyz
  1  'x, y, z'
loop_
 _atom_site_type_symbol
 _atom_site_label
 _atom_site_symmetry_multiplicity
 _atom_site_fract_x
 _atom_site_fract_y
 _atom_site_fract_z
 _atom_site_occupancy
  Li  Li0  1  0.25000000  0.01721400  0.79647799  1
  Pu  Pu1  1  0.25000000  0.51721400  0.70352199  1
  Si  Si2  1  0.75000000  0.98278600  0.20352200  1
  Ce  Ce3  1  0.75000000  0.48278600  0.29647800  1
  In  In4  1  0.25000000  0.28372900  0.07201300  1
  Ba  Ba5  1  0.25000000  0.78372900  0.42798700  1
  Mg  Mg6  1  0.75000000  0.71627100  0.92798699  1
  N  N7  1  0.75000000  0.21627100  0.57201299  1
  Ag  Ag8  1  0.25000000  0.69011700  0.09201400  1
  Zr  Zr9  1  0.25000000  0.19011700  0.40798600  1
  Ca  Ca10  1  0.75000000  0.30988300  0.90798599  1
  Pt  Pt11  1  0.75000000  0.80988300  0.59201399  1
