# generated using pymatgen
data_RbNaSrYbGdDyYTaSi2TcSnSBr
_symmetry_space_group_name_H-M   'P 1'
_cell_length_a   5.06262016
_cell_length_b   5.11623287
_cell_length_c   6.11882210
_cell_angle_alpha   90.00000000
_cell_angle_beta   90.00000000
_cell_angle_gamma   101.60046387
_symmetry_Int_Tables_number   1
_chemical_formula_structural   RbNaSrYbGdDyYTaSi2TcSnSBr
_chemical_formula_sum
'Rb1 Na1 Sr1 Yb1 Gd1 Dy1 Y1 Ta1 Si2 Tc1 Sn1 S1 Br1'
_cell_volume   155.24962378
_cell_formula_units_Z   1
loop_
 _symmetry_equiv_pos_site_id
 _symmetry_equiv_pos_as_xyz
  1  'x, y, z'
loop_
 _atom_site_type_symbol
 _atom_site_label
 _atom_site_symmetry_multiplicity
 _atom_site_fract_x
 _atom_site_fract_y
 _atom_site_fract_z
 _atom_site_occupancy
  Si  Si0  1  0.60821599  0.38749402  0.99989298  1
  Br  Br1  1  0.39178400  0.61250603  0.49989299  1
  Sr  Sr2  1  0.99238897  0.01137900  0.75170299  1
  Yb  Yb3  1  0.00761102  0.98862105  0.25170300  1
  Na  Na4  1  0.97245198  0.45807802  0.25610700  1
  Dy  Dy5  1  0.02754801  0.54192203  0.75610699  1
  Si  Si6  1  0.82013598  0.28419201  0.24392300  1
  Ta  Ta7  1  0.81795998  0.29891001  0.75994199  1
  Tc  Tc8  1  0.77111999  0.82169504  0.00267100  1
  Gd  Gd9  1  0.76213899  0.83640904  0.50140899  1
  Rb  Rb10  1  0.22888000  0.17830501  0.50267099  1
  S  S11  1  0.23786100  0.16359101  0.00140900  1
  Y  Y12  1  0.18204001  0.70109003  0.25994200  1
  Sn  Sn13  1  0.17986401  0.71580803  0.74392299  1
