# generated using pymatgen
data_CsSrCeNdSmHoMnTlCuTcHRuWAu2BrCl
_symmetry_space_group_name_H-M   'P 1'
_cell_length_a   4.95758677
_cell_length_b   5.87996912
_cell_length_c   7.41142416
_cell_angle_alpha   69.90604401
_cell_angle_beta   71.33985138
_cell_angle_gamma   65.49407196
_symmetry_Int_Tables_number   1
_chemical_formula_structural   CsSrCeNdSmHoMnTlCuTcHRuWAu2BrCl
_chemical_formula_sum
'Cs1 Sr1 Ce1 Nd1 Sm1 Ho1 Mn1 Tl1 Cu1 Tc1 Ru1 H1 W1 Au2 Br1 Cl1'
_cell_volume   180.59421543
_cell_formula_units_Z   1
loop_
 _symmetry_equiv_pos_site_id
 _symmetry_equiv_pos_as_xyz
  1  'x, y, z'
loop_
 _atom_site_type_symbol
 _atom_site_label
 _atom_site_symmetry_multiplicity
 _atom_site_fract_x
 _atom_site_fract_y
 _atom_site_fract_z
 _atom_site_occupancy
  Au  Au0  1  0.25607702  0.55450401  0.27764798  1
  Ru  Ru1  1  0.74392305  0.44549601  0.72235195  1
  Br  Br2  1  0.00000000  0.00000000  0.00000000  1
  Cl  Cl3  1  0.39716703  0.00431300  0.19912598  1
  Nd  Nd4  1  0.19928801  0.99555402  0.60173798  1
  W  W5  1  0.80071205  0.00444600  0.39826196  1
  Cu  Cu6  1  0.60283304  0.99568702  0.80087396  1
  Tc  Tc7  1  0.19590101  0.80869802  0.43815098  1
  H  H8  1  0.83584306  0.80490101  0.23776896  1
  Ce  Ce9  1  0.39436003  0.81299102  0.04508898  1
  Cs  Cs10  1  0.39322503  0.18585400  0.36594997  1
  Sr  Sr11  1  0.03758400  0.80220801  0.83429598  1
  Mn  Mn12  1  0.96241607  0.19779200  0.16570395  1
  Tl  Tl13  1  0.60677504  0.81414602  0.63404996  1
  Au  Au14  1  0.60564004  0.18700900  0.95491095  1
  Ho  Ho15  1  0.16415701  0.19509900  0.76223098  1
  Sm  Sm16  1  0.80409905  0.19130200  0.56184895  1
