# generated using pymatgen
data_LiDyYErZrInCu2BHIrCl
_symmetry_space_group_name_H-M   'P 1'
_cell_length_a   6.18736506
_cell_length_b   6.25492954
_cell_length_c   6.26743174
_cell_angle_alpha   111.65911102
_cell_angle_beta   90.00000000
_cell_angle_gamma   90.00000000
_symmetry_Int_Tables_number   1
_chemical_formula_structural   LiDyYErZrInCu2BHIrCl
_chemical_formula_sum   'Li1 Y1 Dy1 Er1 Zr1 In1 Cu2 B1 H1 Ir1 Cl1'
_cell_volume   225.43361160
_cell_formula_units_Z   1
loop_
 _symmetry_equiv_pos_site_id
 _symmetry_equiv_pos_as_xyz
  1  'x, y, z'
loop_
 _atom_site_type_symbol
 _atom_site_label
 _atom_site_symmetry_multiplicity
 _atom_site_fract_x
 _atom_site_fract_y
 _atom_site_fract_z
 _atom_site_occupancy
  Cu  Cu0  1  0.12904600  0.85092703  0.12967900  1
  Er  Er1  1  0.62904599  0.14907301  0.37032099  1
  Cu  Cu2  1  0.87095399  0.14907301  0.87032097  1
  Li  Li3  1  0.37095400  0.85092703  0.62967899  1
  B  B4  1  0.51290700  0.70360903  0.19745900  1
  In  In5  1  0.01290700  0.29639101  0.30254099  1
  H  H6  1  0.48709300  0.29639101  0.80254098  1
  Zr  Zr7  1  0.98709299  0.70360903  0.69745898  1
  Y  Y8  1  0.86650399  0.64736803  0.32126099  1
  Cl  Cl9  1  0.36650400  0.35263201  0.17873900  1
  Dy  Dy10  1  0.13349600  0.35263201  0.67873898  1
  Ir  Ir11  1  0.63349599  0.64736803  0.82126098  1
