# generated using pymatgen
data_Ac2ThPa2MnZnCrSiPHAuNeCKrCl
_symmetry_space_group_name_H-M   'P 1'
_cell_length_a   5.32639885
_cell_length_b   5.92445898
_cell_length_c   6.36267710
_cell_angle_alpha   90.00000000
_cell_angle_beta   90.00000000
_cell_angle_gamma   90.00000000
_symmetry_Int_Tables_number   1
_chemical_formula_structural   Ac2ThPa2MnZnCrSiPHAuNeCKrCl
_chemical_formula_sum
'Ac2 Th1 Pa2 Mn1 Zn1 Cr1 Si1 P1 H1 Au1 Ne1 C1 Kr1 Cl1'
_cell_volume   200.78083889
_cell_formula_units_Z   1
loop_
 _symmetry_equiv_pos_site_id
 _symmetry_equiv_pos_as_xyz
  1  'x, y, z'
loop_
 _atom_site_type_symbol
 _atom_site_label
 _atom_site_symmetry_multiplicity
 _atom_site_fract_x
 _atom_site_fract_y
 _atom_site_fract_z
 _atom_site_occupancy
  Zn  Zn0  1  0.75000002  0.48881000  0.16312700  1
  Pa  Pa1  1  0.75000002  0.98881000  0.33687299  1
  Au  Au2  1  0.25000001  0.51119000  0.83687299  1
  H  H3  1  0.25000001  0.01119000  0.66312699  1
  Th  Th4  1  0.91560003  0.13016800  0.96145099  1
  Ac  Ac5  1  0.58440002  0.63016800  0.53854899  1
  Cr  Cr6  1  0.41560001  0.86983200  0.03854900  1
  Pa  Pa7  1  0.08440000  0.36983200  0.46145099  1
  Ac  Ac8  1  0.08440000  0.86983200  0.03854900  1
  P  P9  1  0.41560001  0.36983200  0.46145099  1
  Ne  Ne10  1  0.58440002  0.13016800  0.96145099  1
  Cl  Cl11  1  0.91560003  0.63016800  0.53854899  1
  C  C12  1  0.75000002  0.31874000  0.68164799  1
  Si  Si13  1  0.75000002  0.81874000  0.81835199  1
  Mn  Mn14  1  0.25000001  0.68126000  0.31835200  1
  Kr  Kr15  1  0.25000001  0.18126000  0.18164800  1
