# generated using pymatgen
data_HfMgTaSiNiHRuIF
_symmetry_space_group_name_H-M   'P 1'
_cell_length_a   3.55874205
_cell_length_b   3.55874205
_cell_length_c   32.58644485
_cell_angle_alpha   90.00000000
_cell_angle_beta   90.00000000
_cell_angle_gamma   120.00000000
_symmetry_Int_Tables_number   1
_chemical_formula_structural   HfMgTaSiNiHRuIF
_chemical_formula_sum   'Hf1 Mg1 Ta1 Si1 Ni1 H1 Ru1 I1 F1'
_cell_volume   357.40500730
_cell_formula_units_Z   1
loop_
 _symmetry_equiv_pos_site_id
 _symmetry_equiv_pos_as_xyz
  1  'x, y, z'
loop_
 _atom_site_type_symbol
 _atom_site_label
 _atom_site_symmetry_multiplicity
 _atom_site_fract_x
 _atom_site_fract_y
 _atom_site_fract_z
 _atom_site_occupancy
  Si  Si0  1  0.66666666  0.33333333  0.94442098  1
  Ta  Ta1  1  0.33333333  0.66666666  0.28707799  1
  I  I2  1  0.33333333  0.66666666  0.82444398  1
  H  H3  1  0.33333333  0.66666666  0.17555600  1
  Hf  Hf4  1  0.33333333  0.66666666  0.71292198  1
  Mg  Mg5  1  0.66666666  0.33333333  0.05557900  1
  Ru  Ru6  1  0.33333333  0.66666666  -0.00000000  1
  F  F7  1  0.66666666  0.33333333  0.23134099  1
  Ni  Ni8  1  0.66666666  0.33333333  0.76865898  1
