# generated using pymatgen
data_HeTbNdNpPaTa2NbZnGaFeCuSiAsHOsPtC2O
_symmetry_space_group_name_H-M   'P 1'
_cell_length_a   7.00569391
_cell_length_b   7.00569391
_cell_length_c   12.59734821
_cell_angle_alpha   90.00000000
_cell_angle_beta   90.00000000
_cell_angle_gamma   120.00000000
_symmetry_Int_Tables_number   1
_chemical_formula_structural   HeTbNdNpPaTa2NbZnGaFeCuSiAsHOsPtC2O
_chemical_formula_sum
'He1 Tb1 Nd1 Np1 Ta2 Pa1 Nb1 Zn1 Ga1 Fe1 Cu1 Si1 As1 Os1 H1 Pt1 C2 O1'
_cell_volume   535.44156696
_cell_formula_units_Z   1
loop_
 _symmetry_equiv_pos_site_id
 _symmetry_equiv_pos_as_xyz
  1  'x, y, z'
loop_
 _atom_site_type_symbol
 _atom_site_label
 _atom_site_symmetry_multiplicity
 _atom_site_fract_x
 _atom_site_fract_y
 _atom_site_fract_z
 _atom_site_occupancy
  He  He0  1  0.66666668  0.33333334  0.95892598  1
  Ta  Ta1  1  0.66666668  0.33333334  0.54107399  1
  C  C2  1  0.00000000  0.00000000  0.25000000  1
  Fe  Fe3  1  0.00000000  0.00000000  0.74999999  1
  Nb  Nb4  1  0.33333334  0.66666668  0.04107400  1
  Ga  Ga5  1  0.33333334  0.66666668  0.45892599  1
  Tb  Tb6  1  0.66666668  0.33333334  0.25000000  1
  Ta  Ta7  1  0.33333334  0.66666668  0.74999999  1
  Cu  Cu8  1  0.63473701  0.68261701  0.87080299  1
  Os  Os9  1  0.04788000  0.36526401  0.87080299  1
  Pt  Pt10  1  0.31738401  0.95212102  0.87080299  1
  H  H11  1  0.36526300  0.04787900  0.37080299  1
  C  C12  1  0.68261601  0.63473601  0.37080299  1
  Pa  Pa13  1  0.36526301  0.31738301  0.12919700  1
  Nd  Nd14  1  0.68261601  0.04787900  0.12919700  1
  Si  Si15  1  0.95212001  0.63473601  0.12919700  1
  Zn  Zn16  1  0.63473701  0.95212102  0.62919699  1
  As  As17  1  0.04788000  0.68261701  0.62919699  1
  Np  Np18  1  0.95212001  0.31738301  0.37080299  1
  O  O19  1  0.31738400  0.36526401  0.62919699  1
