# generated using pymatgen
data_KLiYbGdMgTiCrCoBiAsRh2Br
_symmetry_space_group_name_H-M   'P 1'
_cell_length_a   5.07764816
_cell_length_b   6.68039846
_cell_length_c   6.68039846
_cell_angle_alpha   81.84552002
_cell_angle_beta   67.66378784
_cell_angle_gamma   67.66378784
_symmetry_Int_Tables_number   1
_chemical_formula_structural   KLiYbGdMgTiCrCoBiAsRh2Br
_chemical_formula_sum
'K1 Li1 Yb1 Gd1 Mg1 Ti1 Cr1 Co1 Bi1 As1 Rh2 Br1'
_cell_volume   193.87435840
_cell_formula_units_Z   1
loop_
 _symmetry_equiv_pos_site_id
 _symmetry_equiv_pos_as_xyz
  1  'x, y, z'
loop_
 _atom_site_type_symbol
 _atom_site_label
 _atom_site_symmetry_multiplicity
 _atom_site_fract_x
 _atom_site_fract_y
 _atom_site_fract_z
 _atom_site_occupancy
  Cr  Cr0  1  0.99999999  0.00290100  0.99709898  1
  Bi  Bi1  1  0.99999993  0.66288502  0.33711501  1
  K  K2  1  -0.00000003  0.33143001  0.66857003  1
  Co  Co3  1  0.34454894  0.64677702  0.66412503  1
  Rh  Rh4  1  0.65545096  0.33587501  0.35322300  1
  Br  Br5  1  0.28506998  0.22059801  0.20926101  1
  As  As6  1  0.71492992  0.79073803  0.77940203  1
  Li  Li7  1  0.49999993  0.77487303  0.22512703  1
  Gd  Gd8  1  0.99639794  0.49913502  0.00194099  1
  Rh  Rh9  1  0.00360191  0.99805904  0.50086506  1
  Yb  Yb10  1  0.49747391  0.99805904  0.50086504  1
  Mg  Mg11  1  0.50252595  0.49913502  0.00194101  1
  Ti  Ti12  1  0.49999997  0.23953501  0.76046501  1
