# generated using pymatgen
data_KTmTlCd2HgBSbRuSXeF
_symmetry_space_group_name_H-M   'P 1'
_cell_length_a   5.60804796
_cell_length_b   5.60804796
_cell_length_c   5.60804796
_cell_angle_alpha   90.00000000
_cell_angle_beta   90.00000000
_cell_angle_gamma   90.00000000
_symmetry_Int_Tables_number   1
_chemical_formula_structural   KTmTlCd2HgBSbRuSXeF
_chemical_formula_sum   'K1 Tm1 Tl1 Cd2 Hg1 B1 Sb1 Ru1 S1 Xe1 F1'
_cell_volume   176.37424093
_cell_formula_units_Z   1
loop_
 _symmetry_equiv_pos_site_id
 _symmetry_equiv_pos_as_xyz
  1  'x, y, z'
loop_
 _atom_site_type_symbol
 _atom_site_label
 _atom_site_symmetry_multiplicity
 _atom_site_fract_x
 _atom_site_fract_y
 _atom_site_fract_z
 _atom_site_occupancy
  Cd  Cd0  1  0.48882500  0.51117500  0.01117500  1
  Hg  Hg1  1  0.51117500  0.01117500  0.48882500  1
  Xe  Xe2  1  0.01117500  0.48882500  0.51117500  1
  Cd  Cd3  1  0.98882501  0.98882501  0.98882501  1
  B  B4  1  0.87961801  0.12038200  0.62038200  1
  Sb  Sb5  1  0.12038200  0.62038200  0.87961801  1
  Ru  Ru6  1  0.62038200  0.87961801  0.12038200  1
  Tm  Tm7  1  0.37961800  0.37961800  0.37961800  1
  S  S8  1  0.11985400  0.88014601  0.38014600  1
  K  K9  1  0.88014601  0.38014600  0.11985400  1
  F  F10  1  0.38014600  0.11985400  0.88014601  1
  Tl  Tl11  1  0.61985400  0.61985400  0.61985400  1
