# generated using pymatgen
data_Cs2TbNdHoScVCoSiCXeClO
_symmetry_space_group_name_H-M   'P 1'
_cell_length_a   6.09422636
_cell_length_b   6.09422636
_cell_length_c   8.02700996
_cell_angle_alpha   67.69062805
_cell_angle_beta   67.69062805
_cell_angle_gamma   59.99999619
_symmetry_Int_Tables_number   1
_chemical_formula_structural   Cs2TbNdHoScVCoSiCXeClO
_chemical_formula_sum
'Cs2 Tb1 Nd1 Ho1 Sc1 V1 Co1 Si1 C1 Xe1 Cl1 O1'
_cell_volume   232.05491105
_cell_formula_units_Z   1
loop_
 _symmetry_equiv_pos_site_id
 _symmetry_equiv_pos_as_xyz
  1  'x, y, z'
loop_
 _atom_site_type_symbol
 _atom_site_label
 _atom_site_symmetry_multiplicity
 _atom_site_fract_x
 _atom_site_fract_y
 _atom_site_fract_z
 _atom_site_occupancy
  Cs  Cs0  1  0.20155302  0.20155300  0.39534099  1
  C  C1  1  0.79844709  0.79844701  0.60465894  1
  Cs  Cs2  1  0.00000000  0.00000000  0.00000000  1
  Tb  Tb3  1  0.59353006  0.59353001  0.21940995  1
  Xe  Xe4  1  0.40647004  0.40647001  0.78058999  1
  Cl  Cl5  1  0.67423507  0.67423501  0.97729497  1
  Ho  Ho6  1  0.32576504  0.32576501  0.02270497  1
  Sc  Sc7  1  0.26769703  0.26769700  0.69645800  1
  Co  Co8  1  0.26769706  0.76814801  0.69645797  1
  Nd  Nd9  1  0.76814805  0.26769700  0.69645798  1
  O  O10  1  0.73230308  0.73230301  0.30354194  1
  Si  Si11  1  0.73230305  0.23185200  0.30354197  1
  V  V12  1  0.23185206  0.73230301  0.30354196  1
