# generated using pymatgen
data_CsCaPr2GdTmPuNpUTaBeNbZnFeCoPdWKrNO
_symmetry_space_group_name_H-M   'P 1'
_cell_length_a   5.50653648
_cell_length_b   5.65190125
_cell_length_c   7.92046022
_cell_angle_alpha   90.00543213
_cell_angle_beta   89.86111450
_cell_angle_gamma   89.99005890
_symmetry_Int_Tables_number   1
_chemical_formula_structural   CsCaPr2GdTmPuNpUTaBeNbZnFeCoPdWKrNO
_chemical_formula_sum
;
Cs1 Ca1 Pr2 Gd1 Tm1 Pu1 Np1 U1 Ta1 Be1 Nb1 Zn1 Fe1 Co1 Pd1 W1 Kr1 N1
O1
;
_cell_volume   246.50300548
_cell_formula_units_Z   1
loop_
 _symmetry_equiv_pos_site_id
 _symmetry_equiv_pos_as_xyz
  1  'x, y, z'
loop_
 _atom_site_type_symbol
 _atom_site_label
 _atom_site_symmetry_multiplicity
 _atom_site_fract_x
 _atom_site_fract_y
 _atom_site_fract_z
 _atom_site_occupancy
  Tm  Tm0  1  0.98756898  0.05624600  0.25330504  1
  U  U1  1  0.51236299  0.55620098  0.24675304  1
  Be  Be2  1  0.01244800  0.94375496  0.74669606  1
  N  N3  1  0.48764699  0.44380398  0.75325005  1
  Cs  Cs4  1  0.49996699  0.99995796  0.99997608  1
  Nb  Nb5  1  0.99991798  0.49999898  0.50000106  1
  Ca  Ca6  1  0.49999899  0.00000000  0.50000103  1
  W  W7  1  0.00000800  0.50000198  0.00000302  1
  Np  Np8  1  0.68309898  0.28468999  0.44312404  1
  Zn  Zn9  1  0.81684798  0.78475897  0.05681706  1
  Pd  Pd10  1  0.31691300  0.71531597  0.55687805  1
  Pr  Pr11  1  0.18316800  0.21524899  0.94318304  1
  Pu  Pu12  1  0.21091900  0.19256099  0.54947103  1
  Pr  Pr13  1  0.28901900  0.69256197  0.95057406  1
  Gd  Gd14  1  0.78909498  0.80743897  0.45053307  1
  Ta  Ta15  1  0.71099698  0.30744599  0.04942903  1
  Fe  Fe16  1  0.09960400  0.46558298  0.23507103  1
  Co  Co17  1  0.40031599  0.96549196  0.26497706  1
  Kr  Kr18  1  0.59970299  0.03451500  0.73502503  1
  O  O19  1  0.90040498  0.53442098  0.76493306  1
