# generated using pymatgen
data_HoErGeTeAsPdRhC2SeINe
_symmetry_space_group_name_H-M   'P 1'
_cell_length_a   3.80692720
_cell_length_b   5.56779432
_cell_length_c   8.29042721
_cell_angle_alpha   95.13349152
_cell_angle_beta   103.16949463
_cell_angle_gamma   109.85756683
_symmetry_Int_Tables_number   1
_chemical_formula_structural   HoErGeTeAsPdRhC2SeINe
_chemical_formula_sum   'Ho1 Er1 Ge1 Te1 As1 Pd1 Rh1 C2 Se1 I1 Ne1'
_cell_volume   158.23609922
_cell_formula_units_Z   1
loop_
 _symmetry_equiv_pos_site_id
 _symmetry_equiv_pos_as_xyz
  1  'x, y, z'
loop_
 _atom_site_type_symbol
 _atom_site_label
 _atom_site_symmetry_multiplicity
 _atom_site_fract_x
 _atom_site_fract_y
 _atom_site_fract_z
 _atom_site_occupancy
  Er  Er0  1  0.94199398  0.57590702  0.80763795  1
  I  I1  1  0.05797598  0.42408201  0.19235498  1
  Pd  Pd2  1  0.44218400  0.07581800  0.30765999  1
  Ge  Ge3  1  0.55782697  0.92417803  0.69233794  1
  Te  Te4  1  0.95215800  0.11706200  0.28641199  1
  C  C5  1  0.45188798  0.61707502  0.78630195  1
  Ho  Ho6  1  0.04785497  0.88293902  0.71358994  1
  C  C7  1  0.54811999  0.38292801  0.21370198  1
  Rh  Rh8  1  0.66024500  0.23467101  0.58713397  1
  Ne  Ne9  1  0.16040897  0.73465402  0.08716597  1
  Se  Se10  1  0.33973497  0.76532702  0.41286696  1
  As  As11  1  0.83961100  0.26536001  0.91283596  1
