# generated using pymatgen
data_RbAcTmScUPaTaGaCoGeBiBMoH
_symmetry_space_group_name_H-M   'P 1'
_cell_length_a   5.25089407
_cell_length_b   7.82880020
_cell_length_c   7.82880020
_cell_angle_alpha   120.00000000
_cell_angle_beta   90.00000000
_cell_angle_gamma   90.00000000
_symmetry_Int_Tables_number   1
_chemical_formula_structural   RbAcTmScUPaTaGaCoGeBiBMoH
_chemical_formula_sum
'Rb1 Ac1 Tm1 Sc1 U1 Pa1 Ta1 Ga1 Co1 Ge1 Bi1 B1 Mo1 H1'
_cell_volume   278.71112730
_cell_formula_units_Z   1
loop_
 _symmetry_equiv_pos_site_id
 _symmetry_equiv_pos_as_xyz
  1  'x, y, z'
loop_
 _atom_site_type_symbol
 _atom_site_label
 _atom_site_symmetry_multiplicity
 _atom_site_fract_x
 _atom_site_fract_y
 _atom_site_fract_z
 _atom_site_occupancy
  Bi  Bi0  1  0.74999999  0.27462400  0.35826301  1
  U  U1  1  0.25000000  0.35826400  0.08364001  1
  Mo  Mo2  1  0.25000000  0.91636099  0.27462502  1
  Pa  Pa3  1  0.74999999  0.08363900  0.72537501  1
  Ge  Ge4  1  0.74999999  0.64173599  0.91636002  1
  Ta  Ta5  1  0.25000000  0.72537599  0.64173702  1
  Sc  Sc6  1  0.74999999  0.66666666  0.33333335  1
  B  B7  1  0.25000000  0.33333333  0.66666668  1
  Tm  Tm8  1  0.25000000  0.31491400  0.43689701  1
  Ac  Ac9  1  0.74999999  0.43689799  0.12198401  1
  Rb  Rb10  1  0.74999999  0.87801699  0.31491502  1
  H  H11  1  0.25000000  0.12198300  0.68508501  1
  Ga  Ga12  1  0.25000000  0.56310199  0.87801602  1
  Co  Co13  1  0.74999999  0.68508599  0.56310302  1
