# generated using pymatgen
data_AcErLuThMnBeCdInFeCuTcAgSbRuRhPbNCl2Ne
_symmetry_space_group_name_H-M   'P 1'
_cell_length_a   6.00051737
_cell_length_b   6.00051737
_cell_length_c   8.75233269
_cell_angle_alpha   90.00000000
_cell_angle_beta   90.00000000
_cell_angle_gamma   90.00000000
_symmetry_Int_Tables_number   1
_chemical_formula_structural   AcErLuThMnBeCdInFeCuTcAgSbRuRhPbNCl2Ne
_chemical_formula_sum
;
Ac1 Er1 Lu1 Th1 Mn1 Be1 Cd1 In1 Fe1 Tc1 Cu1 Ag1 Sb1 Ru1 Rh1 Pb1 N1 Cl2
Ne1
;
_cell_volume   315.13831724
_cell_formula_units_Z   1
loop_
 _symmetry_equiv_pos_site_id
 _symmetry_equiv_pos_as_xyz
  1  'x, y, z'
loop_
 _atom_site_type_symbol
 _atom_site_label
 _atom_site_symmetry_multiplicity
 _atom_site_fract_x
 _atom_site_fract_y
 _atom_site_fract_z
 _atom_site_occupancy
  Tc  Tc0  1  0.00000000  0.49999999  0.24999999  1
  Cl  Cl1  1  0.49999999  0.00000000  0.74999998  1
  Rh  Rh2  1  0.49999999  0.00000000  0.24999999  1
  Be  Be3  1  0.00000000  0.49999999  0.74999998  1
  Pb  Pb4  1  0.00000000  0.00000000  0.00000000  1
  Ac  Ac5  1  0.49999999  0.49999999  0.49999999  1
  Fe  Fe6  1  0.00000000  0.00000000  0.49999999  1
  Ru  Ru7  1  0.49999999  0.49999999  -0.00000000  1
  Sb  Sb8  1  0.00000000  0.00000000  0.27241135  1
  Cl  Cl9  1  0.49999999  0.49999999  0.22758863  1
  Th  Th10  1  0.00000000  0.00000000  0.72758862  1
  Ag  Ag11  1  0.49999999  0.49999999  0.77241134  1
  In  In12  1  0.33767355  0.21419453  0.01179790  1
  Er  Er13  1  0.66232642  0.78580545  0.01179790  1
  N  N14  1  0.78580545  0.33767355  0.98820207  1
  Cd  Cd15  1  0.21419453  0.66232642  0.98820207  1
  Lu  Lu16  1  0.83767354  0.28580546  0.51179789  1
  Ne  Ne17  1  0.16232644  0.71419451  0.51179789  1
  Mn  Mn18  1  0.28580546  0.16232644  0.48820209  1
  Cu  Cu19  1  0.71419451  0.83767354  0.48820209  1
