# generated using pymatgen
data_Na2LaTbErScTaTiCrAgBiSbOsF
_symmetry_space_group_name_H-M   'P 1'
_cell_length_a   7.38953400
_cell_length_b   7.40206003
_cell_length_c   7.40206003
_cell_angle_alpha   60.26930618
_cell_angle_beta   60.05596161
_cell_angle_gamma   60.05596161
_symmetry_Int_Tables_number   1
_chemical_formula_structural   Na2LaTbErScTaTiCrAgBiSbOsF
_chemical_formula_sum
'Na2 La1 Tb1 Er1 Sc1 Ta1 Ti1 Cr1 Ag1 Bi1 Sb1 Os1 F1'
_cell_volume   287.11224585
_cell_formula_units_Z   1
loop_
 _symmetry_equiv_pos_site_id
 _symmetry_equiv_pos_as_xyz
  1  'x, y, z'
loop_
 _atom_site_type_symbol
 _atom_site_label
 _atom_site_symmetry_multiplicity
 _atom_site_fract_x
 _atom_site_fract_y
 _atom_site_fract_z
 _atom_site_occupancy
  Sb  Sb0  1  0.13408698  0.61591301  0.11591303  1
  Ta  Ta1  1  0.86591300  0.38408700  0.88408700  1
  Ti  Ti2  1  1.00000002  0.00000000  0.49999997  1
  Os  Os3  1  0.50000001  0.00000000  0.49999999  1
  Cr  Cr4  1  0.49999999  0.50000000  0.50000001  1
  La  La5  1  0.50000001  0.00000000  1.00000000  1
  Tb  Tb6  1  0.73279900  0.24651800  0.74651800  1
  Ag  Ag7  1  0.27416499  0.24651800  0.74651801  1
  Na  Na8  1  0.73793700  0.24948900  0.27463699  1
  Sc  Sc9  1  0.73793698  0.77463701  0.74948902  1
  Bi  Bi10  1  0.26206300  0.22536300  0.25051101  1
  Na  Na11  1  0.72583498  0.75348201  0.25348202  1
  F  F12  1  0.26206297  0.75051101  0.72536304  1
  Er  Er13  1  0.26720097  0.75348201  0.25348203  1
