# generated using pymatgen
data_KCaTb2ScUNbGaNiBiTeMoPPtCSeXeNClF
_symmetry_space_group_name_H-M   'P 1'
_cell_length_a   5.57183409
_cell_length_b   6.78793621
_cell_length_c   6.78793621
_cell_angle_alpha   85.85145569
_cell_angle_beta   82.68957520
_cell_angle_gamma   82.68957520
_symmetry_Int_Tables_number   1
_chemical_formula_structural   KCaTb2ScUNbGaNiBiTeMoPPtCSeXeNClF
_chemical_formula_sum
'K1 Ca1 Tb2 Sc1 U1 Nb1 Ga1 Ni1 Bi1 Te1 Mo1 P1 Pt1 Se1 C1 Xe1 N1 Cl1 F1'
_cell_volume   252.15977203
_cell_formula_units_Z   1
loop_
 _symmetry_equiv_pos_site_id
 _symmetry_equiv_pos_as_xyz
  1  'x, y, z'
loop_
 _atom_site_type_symbol
 _atom_site_label
 _atom_site_symmetry_multiplicity
 _atom_site_fract_x
 _atom_site_fract_y
 _atom_site_fract_z
 _atom_site_occupancy
  Ni  Ni0  1  0.29422601  0.39494799  0.21755301  1
  Cl  Cl1  1  0.79422601  0.21755299  0.39494801  1
  Se  Se2  1  0.20577403  0.78244697  0.60505200  1
  F  F3  1  0.70577402  0.60505198  0.78244700  1
  Tb  Tb4  1  0.25000003  0.90427697  0.09572301  1
  Te  Te5  1  0.25000001  0.29728699  0.70271299  1
  K  K6  1  0.75000002  0.70271298  0.29728702  1
  Xe  Xe7  1  0.75000000  0.09572300  0.90427699  1
  N  N8  1  0.37406901  0.19769299  0.01799001  1
  Ca  Ca9  1  0.87406900  0.01799000  0.19769302  1
  Tb  Tb10  1  0.10181101  0.28686699  0.43816599  1
  Nb  Nb11  1  0.10387402  0.63325398  0.13930201  1
  U  U12  1  0.60181102  0.43816599  0.28686701  1
  Mo  Mo13  1  0.60387401  0.13930200  0.63325400  1
  Ga  Ga14  1  0.39612603  0.86069797  0.36674601  1
  Bi  Bi15  1  0.39818902  0.56183398  0.71313300  1
  Sc  Sc16  1  0.89612601  0.36674599  0.86069800  1
  Pt  Pt17  1  0.89818902  0.71313298  0.56183401  1
  C  C18  1  0.12593103  0.98200997  0.80230699  1
  P  P19  1  0.62593103  0.80230697  0.98201000  1
