# generated using pymatgen
data_Ba2YbGdLuHgIr
_symmetry_space_group_name_H-M   'P 1'
_cell_length_a   5.64816189
_cell_length_b   5.64816189
_cell_length_c   6.55861378
_cell_angle_alpha   115.50508118
_cell_angle_beta   115.50508118
_cell_angle_gamma   90.00000000
_symmetry_Int_Tables_number   1
_chemical_formula_structural   Ba2YbGdLuHgIr
_chemical_formula_sum   'Ba2 Yb1 Gd1 Lu1 Hg1 Ir1'
_cell_volume   165.96429318
_cell_formula_units_Z   1
loop_
 _symmetry_equiv_pos_site_id
 _symmetry_equiv_pos_as_xyz
  1  'x, y, z'
loop_
 _atom_site_type_symbol
 _atom_site_label
 _atom_site_symmetry_multiplicity
 _atom_site_fract_x
 _atom_site_fract_y
 _atom_site_fract_z
 _atom_site_occupancy
  Yb  Yb0  1  0.25000001  0.75000002  0.50000002  1
  Ba  Ba1  1  0.50000002  0.50000001  1.00000003  1
  Lu  Lu2  1  0.00000000  0.00000000  0.00000000  1
  Ba  Ba3  1  0.13692700  0.13274900  0.72690802  1
  Gd  Gd4  1  0.86725102  0.41001901  0.27309202  1
  Hg  Hg5  1  0.40584102  0.86307302  0.27309202  1
  Ir  Ir6  1  0.58998102  0.59415901  0.72690803  1
