# generated using pymatgen
data_BaSrLiYbCeHfThUCdInMoFHeO
_symmetry_space_group_name_H-M   'P 1'
_cell_length_a   5.63688421
_cell_length_b   5.63688421
_cell_length_c   8.20371819
_cell_angle_alpha   90.00000000
_cell_angle_beta   90.00000000
_cell_angle_gamma   90.00000000
_symmetry_Int_Tables_number   1
_chemical_formula_structural   BaSrLiYbCeHfThUCdInMoFHeO
_chemical_formula_sum
'Ba1 Sr1 Li1 Yb1 Ce1 Th1 Hf1 U1 Cd1 In1 Mo1 F1 He1 O1'
_cell_volume   260.66874507
_cell_formula_units_Z   1
loop_
 _symmetry_equiv_pos_site_id
 _symmetry_equiv_pos_as_xyz
  1  'x, y, z'
loop_
 _atom_site_type_symbol
 _atom_site_label
 _atom_site_symmetry_multiplicity
 _atom_site_fract_x
 _atom_site_fract_y
 _atom_site_fract_z
 _atom_site_occupancy
  F  F0  1  0.49999998  0.00000000  0.24999999  1
  Yb  Yb1  1  0.00000000  0.49999998  0.24999999  1
  Ce  Ce2  1  0.49999998  0.00000000  0.74999998  1
  Li  Li3  1  0.00000000  0.49999998  0.74999998  1
  Mo  Mo4  1  0.20885099  0.20885099  0.00000000  1
  Th  Th5  1  0.79114897  0.79114897  0.00000000  1
  Cd  Cd6  1  0.00000000  0.00000000  0.20308400  1
  In  In7  1  0.49999998  0.49999998  0.29691599  1
  Ba  Ba8  1  0.70885097  0.29114899  0.49999999  1
  He  He9  1  0.29114899  0.70885097  0.49999999  1
  U  U10  1  0.49999998  0.49999998  0.70308398  1
  Hf  Hf11  1  0.00000000  0.00000000  0.79691598  1
  Sr  Sr12  1  0.00000000  0.00000000  0.00000000  1
  O  O13  1  0.49999998  0.49999998  0.49999999  1
