# generated using pymatgen
data_Ti2NeCeNdDyYZrUTaTcAgSnHgGeAsIrWF2
_symmetry_space_group_name_H-M   'P 1'
_cell_length_a   3.84618092
_cell_length_b   8.60624409
_cell_length_c   14.06768227
_cell_angle_alpha   90.00000000
_cell_angle_beta   90.00000000
_cell_angle_gamma   90.00000000
_symmetry_Int_Tables_number   1
_chemical_formula_structural   Ti2NeCeNdDyYZrUTaTcAgSnHgGeAsIrWF2
_chemical_formula_sum
'Ti2 Ne1 Ce1 Nd1 Dy1 Y1 Zr1 U1 Ta1 Tc1 Ag1 Sn1 Hg1 Ge1 As1 Ir1 W1 F2'
_cell_volume   465.65676703
_cell_formula_units_Z   1
loop_
 _symmetry_equiv_pos_site_id
 _symmetry_equiv_pos_as_xyz
  1  'x, y, z'
loop_
 _atom_site_type_symbol
 _atom_site_label
 _atom_site_symmetry_multiplicity
 _atom_site_fract_x
 _atom_site_fract_y
 _atom_site_fract_z
 _atom_site_occupancy
  Ti  Ti0  1  0.25000001  0.06686400  0.17904500  1
  Ne  Ne1  1  0.75000002  0.93313599  0.82095498  1
  Hg  Hg2  1  0.25000001  0.56686399  0.32095499  1
  Sn  Sn3  1  0.75000002  0.43313600  0.67904499  1
  F  F4  1  0.75000002  0.67179699  0.05726600  1
  Ti  Ti5  1  0.75000002  0.17179700  0.44273399  1
  Ta  Ta6  1  0.25000001  0.82820299  0.55726599  1
  F  F7  1  0.25000001  0.32820300  0.94273398  1
  Tc  Tc8  1  0.75000002  0.66270099  0.48639999  1
  Ge  Ge9  1  0.25000001  0.20610900  0.78419299  1
  Zr  Zr10  1  0.25000001  0.48353800  0.10634300  1
  Ag  Ag11  1  0.25000001  0.98353799  0.39365699  1
  As  As12  1  0.25000001  0.33729900  0.51359999  1
  Ir  Ir13  1  0.75000002  0.01646200  0.60634299  1
  Dy  Dy14  1  0.75000002  0.16270100  0.01360000  1
  U  U15  1  0.25000001  0.70610899  0.71580699  1
  Y  Y16  1  0.75000002  0.29389100  0.28419299  1
  W  W17  1  0.75000002  0.79389099  0.21580700  1
  Ce  Ce18  1  0.25000001  0.83729899  0.98639998  1
  Nd  Nd19  1  0.75000002  0.51646199  0.89365698  1
