# generated using pymatgen
data_GdNpScUPaTaTlTcSbRuIN
_symmetry_space_group_name_H-M   'P 1'
_cell_length_a   4.72316122
_cell_length_b   7.06877518
_cell_length_c   8.65921974
_cell_angle_alpha   90.00000000
_cell_angle_beta   90.00000000
_cell_angle_gamma   90.00000000
_symmetry_Int_Tables_number   1
_chemical_formula_structural   GdNpScUPaTaTlTcSbRuIN
_chemical_formula_sum
'Gd1 Sc1 Np1 U1 Ta1 Pa1 Tl1 Tc1 Sb1 Ru1 I1 N1'
_cell_volume   289.10506465
_cell_formula_units_Z   1
loop_
 _symmetry_equiv_pos_site_id
 _symmetry_equiv_pos_as_xyz
  1  'x, y, z'
loop_
 _atom_site_type_symbol
 _atom_site_label
 _atom_site_symmetry_multiplicity
 _atom_site_fract_x
 _atom_site_fract_y
 _atom_site_fract_z
 _atom_site_occupancy
  Sb  Sb0  1  0.24999999  0.85533698  0.92269503  1
  Ta  Ta1  1  0.24999999  0.35533699  0.57730502  1
  Tl  Tl2  1  0.74999996  0.14466300  0.07730500  1
  Tc  Tc3  1  0.74999996  0.64466298  0.42269501  1
  N  N4  1  0.24999999  0.98762398  0.33079201  1
  Ru  Ru5  1  0.24999999  0.48762399  0.16920801  1
  Gd  Gd6  1  0.74999996  0.01237600  0.66920802  1
  I  I7  1  0.74999996  0.51237599  0.83079202  1
  Sc  Sc8  1  0.24999999  0.25871799  0.90464303  1
  Pa  Pa9  1  0.24999999  0.75871798  0.59535702  1
  Np  Np10  1  0.74999996  0.74128198  0.09535700  1
  U  U11  1  0.74999996  0.24128199  0.40464301  1
