# generated using pymatgen
data_CsRbNdHoHfZrU2TaBeSnSbRuXe
_symmetry_space_group_name_H-M   'P 1'
_cell_length_a   6.84896708
_cell_length_b   6.84896708
_cell_length_c   6.84896708
_cell_angle_alpha   60.00000000
_cell_angle_beta   60.00000000
_cell_angle_gamma   60.00000000
_symmetry_Int_Tables_number   1
_chemical_formula_structural   CsRbNdHoHfZrU2TaBeSnSbRuXe
_chemical_formula_sum
'Cs1 Rb1 Nd1 Ho1 Hf1 Zr1 U2 Ta1 Be1 Sn1 Sb1 Ru1 Xe1'
_cell_volume   227.17484350
_cell_formula_units_Z   1
loop_
 _symmetry_equiv_pos_site_id
 _symmetry_equiv_pos_as_xyz
  1  'x, y, z'
loop_
 _atom_site_type_symbol
 _atom_site_label
 _atom_site_symmetry_multiplicity
 _atom_site_fract_x
 _atom_site_fract_y
 _atom_site_fract_z
 _atom_site_occupancy
  Ho  Ho0  1  0.74999999  0.74999999  0.74999999  1
  Hf  Hf1  1  0.00000000  0.00000000  0.00000000  1
  Zr  Zr2  1  0.87499999  0.37500000  0.37500000  1
  Cs  Cs3  1  0.37500000  0.37500000  0.37500000  1
  Ru  Ru4  1  0.37500000  0.37500000  0.87499999  1
  U  U5  1  0.37500000  0.87499999  0.37500000  1
  Rb  Rb6  1  0.61234099  0.16297500  0.61234199  1
  Sn  Sn7  1  0.13765900  0.13765800  0.13765800  1
  Be  Be8  1  0.61234099  0.61234199  0.61234199  1
  Ta  Ta9  1  0.61234099  0.61234199  0.16297500  1
  U  U10  1  0.16297400  0.61234199  0.61234199  1
  Sb  Sb11  1  0.58702599  0.13765800  0.13765800  1
  Xe  Xe12  1  0.13765900  0.58702499  0.13765800  1
  Nd  Nd13  1  0.13765900  0.13765800  0.58702499  1
