# generated using pymatgen
data_Sr2EuErScTaTiZnCdCuSnB2OsPdNClO
_symmetry_space_group_name_H-M   'P 1'
_cell_length_a   6.99344587
_cell_length_b   6.99344587
_cell_length_c   7.42052937
_cell_angle_alpha   106.33473206
_cell_angle_beta   106.33473206
_cell_angle_gamma   113.77536011
_symmetry_Int_Tables_number   1
_chemical_formula_structural   Sr2EuErScTaTiZnCdCuSnB2OsPdNClO
_chemical_formula_sum
'Sr2 Eu1 Er1 Sc1 Ta1 Ti1 Zn1 Cd1 Cu1 Sn1 B2 Pd1 Os1 N1 Cl1 O1'
_cell_volume   284.72600437
_cell_formula_units_Z   1
loop_
 _symmetry_equiv_pos_site_id
 _symmetry_equiv_pos_as_xyz
  1  'x, y, z'
loop_
 _atom_site_type_symbol
 _atom_site_label
 _atom_site_symmetry_multiplicity
 _atom_site_fract_x
 _atom_site_fract_y
 _atom_site_fract_z
 _atom_site_occupancy
  Ta  Ta0  1  0.75095695  0.75095696  -0.00000003  1
  Sr  Sr1  1  0.00095698  0.50095697  0.49999999  1
  Zn  Zn2  1  0.40061999  0.00746500  0.03991399  1
  Sn  Sn3  1  0.96755095  0.36070598  0.96008599  1
  Ti  Ti4  1  0.25746499  0.15061999  0.53991400  1
  Sc  Sc5  1  0.61070596  0.71755096  0.46008598  1
  O  O6  1  0.19430296  0.93641795  0.08369797  1
  Pd  Pd7  1  0.85272097  0.11060499  0.91630300  1
  Er  Er8  1  0.18641796  0.94430295  0.58369698  1
  N  N9  1  0.36060497  0.60272097  0.41630198  1
  B  B10  1  0.34015498  0.35974298  0.73816000  1
  Os  Os11  1  0.62158296  0.60199497  0.26183998  1
  Eu  Eu12  1  0.72785895  0.64552897  0.61267798  1
  Cu  Cu13  1  0.03285100  0.11518099  0.38732200  1
  Cd  Cd14  1  0.89552895  0.47785898  0.11267798  1
  Sr  Sr15  1  0.36518096  0.78285096  0.88732199  1
  Cl  Cl16  1  0.85199496  0.37158298  0.76183999  1
  B  B17  1  0.60974298  0.09015500  0.23815999  1
