# generated using pymatgen
data_KTbYbPmTiBeCuReRhWSBr
_symmetry_space_group_name_H-M   'P 1'
_cell_length_a   4.31369400
_cell_length_b   4.31369400
_cell_length_c   13.50640297
_cell_angle_alpha   90.00000000
_cell_angle_beta   90.00000000
_cell_angle_gamma   90.00000000
_symmetry_Int_Tables_number   1
_chemical_formula_structural   KTbYbPmTiBeCuReRhWSBr
_chemical_formula_sum
'K1 Tb1 Yb1 Pm1 Ti1 Be1 Re1 Cu1 Rh1 W1 S1 Br1'
_cell_volume   251.32655120
_cell_formula_units_Z   1
loop_
 _symmetry_equiv_pos_site_id
 _symmetry_equiv_pos_as_xyz
  1  'x, y, z'
loop_
 _atom_site_type_symbol
 _atom_site_label
 _atom_site_symmetry_multiplicity
 _atom_site_fract_x
 _atom_site_fract_y
 _atom_site_fract_z
 _atom_site_occupancy
  S  S0  1  0.00000000  0.00000000  0.50000000  1
  W  W1  1  0.50000000  0.00000000  0.74906300  1
  Re  Re2  1  0.00000000  0.50000000  0.25093700  1
  Rh  Rh3  1  0.50000000  0.50000000  0.00000000  1
  K  K4  1  0.00000000  0.00000000  0.91481400  1
  Ti  Ti5  1  0.50000000  0.50000000  0.41510000  1
  Tb  Tb6  1  0.00000000  0.50000000  0.83532000  1
  Cu  Cu7  1  0.50000000  0.00000000  0.33508900  1
  Br  Br8  1  0.00000000  0.00000000  0.08518600  1
  Pm  Pm9  1  0.50000000  0.50000000  0.58490000  1
  Yb  Yb10  1  0.50000000  0.00000000  0.16468000  1
  Be  Be11  1  0.00000000  0.50000000  0.66491100  1
