# generated using pymatgen
data_AcTbYbNdGdTmPaVInCoSiAgTeRhPbCSXeIKr
_symmetry_space_group_name_H-M   'P 1'
_cell_length_a   5.58795691
_cell_length_b   5.64612103
_cell_length_c   7.88006163
_cell_angle_alpha   90.00000000
_cell_angle_beta   89.77117920
_cell_angle_gamma   90.00000000
_symmetry_Int_Tables_number   1
_chemical_formula_structural   AcTbYbNdGdTmPaVInCoSiAgTeRhPbCSXeIKr
_chemical_formula_sum
;
Ac1 Tb1 Yb1 Nd1 Gd1 Tm1 Pa1 V1 In1 Co1 Si1 Ag1 Te1 Rh1 Pb1 C1 S1 Xe1
I1 Kr1
;
_cell_volume   248.61617572
_cell_formula_units_Z   1
loop_
 _symmetry_equiv_pos_site_id
 _symmetry_equiv_pos_as_xyz
  1  'x, y, z'
loop_
 _atom_site_type_symbol
 _atom_site_label
 _atom_site_symmetry_multiplicity
 _atom_site_fract_x
 _atom_site_fract_y
 _atom_site_fract_z
 _atom_site_occupancy
  Kr  Kr0  1  0.50371301  0.71966800  0.24977599  1
  In  In1  1  0.00371300  0.28033200  0.74977602  1
  Pb  Pb2  1  0.98544902  0.20167200  0.25067398  1
  C  C3  1  0.48544901  0.79832800  0.75067401  1
  Gd  Gd4  1  0.49926001  0.25488400  0.00034698  1
  Te  Te5  1  0.99926002  0.74511600  0.50034698  1
  S  S6  1  0.50022601  0.25200800  0.49948400  1
  Nd  Nd7  1  0.00022600  0.74799200  0.99948403  1
  I  I8  1  0.22528000  0.02588900  0.53877301  1
  Ac  Ac9  1  0.29202600  0.54265500  0.95591402  1
  Co  Co10  1  0.79507201  0.45960400  0.04442698  1
  Tb  Tb11  1  0.72291001  0.97531800  0.46057599  1
  Ag  Ag12  1  0.79202601  0.45734500  0.45591399  1
  Rh  Rh13  1  0.72528001  0.97411100  0.03877298  1
  Tm  Tm14  1  0.22291000  0.02468200  0.96057602  1
  Xe  Xe15  1  0.29507201  0.54039600  0.54442701  1
  Si  Si16  1  0.41084001  0.26201100  0.24987999  1
  V  V17  1  0.06522600  0.77352800  0.25014700  1
  Pa  Pa18  1  0.56522601  0.22647200  0.75014700  1
  Yb  Yb19  1  0.91084002  0.73798900  0.74987999  1
