# generated using pymatgen
data_BaGdNpTiFeCoAgSHe
_symmetry_space_group_name_H-M   'P 1'
_cell_length_a   3.94257498
_cell_length_b   6.41477013
_cell_length_c   6.41477013
_cell_angle_alpha   120.00000000
_cell_angle_beta   90.00000000
_cell_angle_gamma   90.00000000
_symmetry_Int_Tables_number   1
_chemical_formula_structural   BaGdNpTiFeCoAgSHe
_chemical_formula_sum   'Ba1 Gd1 Np1 Ti1 Fe1 Co1 Ag1 S1 He1'
_cell_volume   140.49885631
_cell_formula_units_Z   1
loop_
 _symmetry_equiv_pos_site_id
 _symmetry_equiv_pos_as_xyz
  1  'x, y, z'
loop_
 _atom_site_type_symbol
 _atom_site_label
 _atom_site_symmetry_multiplicity
 _atom_site_fract_x
 _atom_site_fract_y
 _atom_site_fract_z
 _atom_site_occupancy
  Ti  Ti0  1  0.50000000  0.57040799  0.00000001  1
  Ag  Ag1  1  0.50000000  0.42959200  0.42959201  1
  Co  Co2  1  0.50000000  0.00000000  0.57040801  1
  Fe  Fe3  1  -0.00000000  0.00000000  0.24284200  1
  Ba  Ba4  1  1.00000001  0.75715799  0.75715802  1
  Gd  Gd5  1  1.00000001  0.24284200  0.00000000  1
  S  S6  1  1.00000001  0.33333333  0.66666668  1
  Np  Np7  1  1.00000001  0.66666666  0.33333335  1
  He  He8  1  0.50000000  0.00000000  -0.00000000  1
