# generated using pymatgen
data_CsRb2SrPmAlInCuSiSnBi2MoPt
_symmetry_space_group_name_H-M   'P 1'
_cell_length_a   8.00282478
_cell_length_b   8.00282478
_cell_length_c   8.59253502
_cell_angle_alpha   105.02177429
_cell_angle_beta   105.02177429
_cell_angle_gamma   109.89480591
_symmetry_Int_Tables_number   1
_chemical_formula_structural   CsRb2SrPmAlInCuSiSnBi2MoPt
_chemical_formula_sum
'Cs1 Rb2 Sr1 Pm1 Al1 In1 Cu1 Si1 Sn1 Bi2 Mo1 Pt1'
_cell_volume   461.77744703
_cell_formula_units_Z   1
loop_
 _symmetry_equiv_pos_site_id
 _symmetry_equiv_pos_as_xyz
  1  'x, y, z'
loop_
 _atom_site_type_symbol
 _atom_site_label
 _atom_site_symmetry_multiplicity
 _atom_site_fract_x
 _atom_site_fract_y
 _atom_site_fract_z
 _atom_site_occupancy
  Mo  Mo0  1  -0.00000000  0.50000002  -0.00000002  1
  Bi  Bi1  1  0.50000002  0.00000000  -0.00000002  1
  Cs  Cs2  1  0.21076901  0.21076901  0.68265699  1
  Cu  Cu3  1  0.78923102  0.78923103  0.31734294  1
  Pm  Pm4  1  0.33697501  0.66302502  0.49999997  1
  Al  Al5  1  0.66302502  0.33697501  0.49999997  1
  Bi  Bi6  1  0.11642100  0.11642100  0.15170499  1
  In  In7  1  0.88357903  0.88357903  0.84829494  1
  Sn  Sn8  1  0.36953801  0.36953801  0.13318397  1
  Pt  Pt9  1  0.63046202  0.63046202  0.86681596  1
  Rb  Rb10  1  0.24858000  0.94964403  0.30240496  1
  Si  Si11  1  0.05035599  0.75142003  0.69759498  1
  Sr  Sr12  1  0.75142003  0.05035600  0.69759498  1
  Rb  Rb13  1  0.94964404  0.24858001  0.30240496  1
