# generated using pymatgen
data_ScTlCuSiAgPdClF
_symmetry_space_group_name_H-M   'P 1'
_cell_length_a   3.74049401
_cell_length_b   4.99555206
_cell_length_c   4.99555206
_cell_angle_alpha   97.46150208
_cell_angle_beta   90.00000000
_cell_angle_gamma   90.00000000
_symmetry_Int_Tables_number   1
_chemical_formula_structural   ScTlCuSiAgPdClF
_chemical_formula_sum   'Sc1 Tl1 Cu1 Si1 Ag1 Pd1 Cl1 F1'
_cell_volume   92.55562691
_cell_formula_units_Z   1
loop_
 _symmetry_equiv_pos_site_id
 _symmetry_equiv_pos_as_xyz
  1  'x, y, z'
loop_
 _atom_site_type_symbol
 _atom_site_label
 _atom_site_symmetry_multiplicity
 _atom_site_fract_x
 _atom_site_fract_y
 _atom_site_fract_z
 _atom_site_occupancy
  Sc  Sc0  1  0.50000000  0.27553200  0.72446800  1
  Cl  Cl1  1  0.50000000  0.72446799  0.27553203  1
  Ag  Ag2  1  0.00000000  0.00000000  0.00000000  1
  Pd  Pd3  1  0.50000000  0.77410099  0.77410102  1
  Cu  Cu4  1  0.50000000  0.22589900  0.22589901  1
  F  F5  1  1.00000000  0.00000000  0.49999999  1
  Tl  Tl6  1  -0.00000000  0.50000000  0.00000002  1
  Si  Si7  1  -0.00000000  0.50000000  0.50000001  1
