# generated using pymatgen
data_LiDyLuMg2ZrAlNiAgHg2BiAsHBr
_symmetry_space_group_name_H-M   'P 1'
_cell_length_a   5.86466217
_cell_length_b   5.86466217
_cell_length_c   5.95218086
_cell_angle_alpha   60.48520279
_cell_angle_beta   60.48520279
_cell_angle_gamma   60.00000000
_symmetry_Int_Tables_number   1
_chemical_formula_structural   LiDyLuMg2ZrAlNiAgHg2BiAsHBr
_chemical_formula_sum
'Li1 Dy1 Lu1 Mg2 Zr1 Al1 Ni1 Ag1 Hg2 Bi1 As1 H1 Br1'
_cell_volume   145.81209042
_cell_formula_units_Z   1
loop_
 _symmetry_equiv_pos_site_id
 _symmetry_equiv_pos_as_xyz
  1  'x, y, z'
loop_
 _atom_site_type_symbol
 _atom_site_label
 _atom_site_symmetry_multiplicity
 _atom_site_fract_x
 _atom_site_fract_y
 _atom_site_fract_z
 _atom_site_occupancy
  As  As0  1  0.00000003  0.50000000  0.49999995  1
  Hg  Hg1  1  0.50000000  0.00000000  0.49999996  1
  H  H2  1  0.00000000  0.00000000  0.49999998  1
  Mg  Mg3  1  0.50000003  0.50000000  -0.00000005  1
  Ni  Ni4  1  0.00000003  0.50000000  -0.00000003  1
  Li  Li5  1  0.50000000  0.00000000  -0.00000002  1
  Al  Al6  1  0.00000000  0.00000000  0.00000000  1
  Mg  Mg7  1  0.23241902  0.23241900  0.79303895  1
  Hg  Hg8  1  0.74958705  0.74958699  0.75123890  1
  Br  Br9  1  0.23241904  0.74212299  0.79303892  1
  Bi  Bi10  1  0.74212302  0.23241900  0.79303893  1
  Zr  Zr11  1  0.25787705  0.76758099  0.20696094  1
  Ag  Ag12  1  0.76758102  0.25787700  0.20696095  1
  Dy  Dy13  1  0.25041302  0.25041300  0.24876097  1
  Lu  Lu14  1  0.76758105  0.76758099  0.20696092  1
