# generated using pymatgen
data_RbLiTbHoErHfScBeZnHIrRhXeO
_symmetry_space_group_name_H-M   'P 1'
_cell_length_a   5.38384390
_cell_length_b   5.38384342
_cell_length_c   7.06342888
_cell_angle_alpha   90.00000000
_cell_angle_beta   90.00000000
_cell_angle_gamma   120.00000000
_symmetry_Int_Tables_number   1
_chemical_formula_structural   RbLiTbHoErHfScBeZnHIrRhXeO
_chemical_formula_sum
'Rb1 Li1 Tb1 Ho1 Er1 Hf1 Sc1 Be1 Zn1 Ir1 H1 Rh1 Xe1 O1'
_cell_volume   177.30912575
_cell_formula_units_Z   1
loop_
 _symmetry_equiv_pos_site_id
 _symmetry_equiv_pos_as_xyz
  1  'x, y, z'
loop_
 _atom_site_type_symbol
 _atom_site_label
 _atom_site_symmetry_multiplicity
 _atom_site_fract_x
 _atom_site_fract_y
 _atom_site_fract_z
 _atom_site_occupancy
  Hf  Hf0  1  0.00000000  0.00000000  0.50000001  1
  Be  Be1  1  0.66666666  0.33333332  0.81907801  1
  Zn  Zn2  1  0.33333329  0.66666664  0.18092200  1
  Tb  Tb3  1  0.00000000  0.00000000  0.00000000  1
  Rb  Rb4  1  0.66666666  0.33333332  0.25679300  1
  Ir  Ir5  1  0.33333329  0.66666664  0.74320701  1
  Rh  Rh6  1  0.66666666  0.33333332  0.47463701  1
  Er  Er7  1  0.33333329  0.66666664  0.52536301  1
  Ho  Ho8  1  0.17706894  0.82292997  0.82131501  1
  O  O9  1  0.17706898  0.35413799  0.82131501  1
  Li  Li10  1  0.64586095  0.82292997  0.82131501  1
  H  H11  1  0.82293100  0.17706999  0.17868500  1
  Xe  Xe12  1  0.82293097  0.64586198  0.17868500  1
  Sc  Sc13  1  0.35413899  0.17706999  0.17868500  1
