# generated using pymatgen
data_AcLaErThPaAlCdCuPbWCS
_symmetry_space_group_name_H-M   'P 1'
_cell_length_a   4.29780817
_cell_length_b   6.46765518
_cell_length_c   7.66184711
_cell_angle_alpha   90.00000000
_cell_angle_beta   90.00000000
_cell_angle_gamma   90.00000000
_symmetry_Int_Tables_number   1
_chemical_formula_structural   AcLaErThPaAlCdCuPbWCS
_chemical_formula_sum
'Ac1 La1 Er1 Th1 Pa1 Al1 Cd1 Cu1 Pb1 W1 C1 S1'
_cell_volume   212.97438200
_cell_formula_units_Z   1
loop_
 _symmetry_equiv_pos_site_id
 _symmetry_equiv_pos_as_xyz
  1  'x, y, z'
loop_
 _atom_site_type_symbol
 _atom_site_label
 _atom_site_symmetry_multiplicity
 _atom_site_fract_x
 _atom_site_fract_y
 _atom_site_fract_z
 _atom_site_occupancy
  Pb  Pb0  1  0.24999999  0.01761000  0.29896200  1
  Th  Th1  1  0.24999999  0.51760999  0.20103800  1
  C  C2  1  0.74999997  0.98238997  0.70103799  1
  W  W3  1  0.74999997  0.48238999  0.79896199  1
  Ac  Ac4  1  0.24999999  0.27471999  0.60905999  1
  Pa  Pa5  1  0.24999999  0.77471998  0.89093999  1
  La  La6  1  0.74999997  0.72527998  0.39093999  1
  Cd  Cd7  1  0.74999997  0.22527999  0.10906000  1
  Cu  Cu8  1  0.24999999  0.17472300  0.93365599  1
  S  S9  1  0.24999999  0.67472298  0.56634399  1
  Al  Al10  1  0.74999997  0.82527698  0.06634400  1
  Er  Er11  1  0.74999997  0.32527699  0.43365599  1
