# generated using pymatgen
data_Rb2EuNiGeIrOsPdRuWOF
_symmetry_space_group_name_H-M   'P 1'
_cell_length_a   6.03599787
_cell_length_b   6.03599834
_cell_length_c   7.11659098
_cell_angle_alpha   90.00000000
_cell_angle_beta   90.00000000
_cell_angle_gamma   120.00000000
_symmetry_Int_Tables_number   1
_chemical_formula_structural   Rb2EuNiGeIrOsPdRuWOF
_chemical_formula_sum   'Rb2 Eu1 Ni1 Ge1 Os1 Ir1 Ru1 Pd1 W1 O1 F1'
_cell_volume   224.54367538
_cell_formula_units_Z   1
loop_
 _symmetry_equiv_pos_site_id
 _symmetry_equiv_pos_as_xyz
  1  'x, y, z'
loop_
 _atom_site_type_symbol
 _atom_site_label
 _atom_site_symmetry_multiplicity
 _atom_site_fract_x
 _atom_site_fract_y
 _atom_site_fract_z
 _atom_site_occupancy
  Os  Os0  1  0.66666669  0.33333334  0.32265400  1
  Ir  Ir1  1  0.33333337  0.66666668  0.67734600  1
  Ni  Ni2  1  0.00000000  0.00000000  0.50000000  1
  Rb  Rb3  1  0.00000000  0.00000000  0.00000000  1
  O  O4  1  0.66666669  0.33333334  0.81870900  1
  F  F5  1  0.33333337  0.66666668  0.18129100  1
  Ru  Ru6  1  0.60426004  0.80213001  0.26774500  1
  Pd  Pd7  1  0.19787002  0.39574001  0.26774500  1
  Rb  Rb8  1  0.19787003  0.80213001  0.26774500  1
  Eu  Eu9  1  0.80213002  0.19787000  0.73225500  1
  Ge  Ge10  1  0.39574002  0.19787000  0.73225500  1
  W  W11  1  0.80213004  0.60426001  0.73225500  1
