# generated using pymatgen
data_Cs2AcThMgZrUPaFeNiAgHg2GeCSBr2KrF
_symmetry_space_group_name_H-M   'P 1'
_cell_length_a   6.20844793
_cell_length_b   6.20844793
_cell_length_c   6.20844793
_cell_angle_alpha   90.00000000
_cell_angle_beta   90.00000000
_cell_angle_gamma   90.00000000
_symmetry_Int_Tables_number   1
_chemical_formula_structural   Cs2AcThMgZrUPaFeNiAgHg2GeCSBr2KrF
_chemical_formula_sum
'Cs2 Ac1 Th1 Mg1 Zr1 U1 Pa1 Fe1 Ni1 Ag1 Hg2 Ge1 C1 S1 Br2 Kr1 F1'
_cell_volume   239.30354370
_cell_formula_units_Z   1
loop_
 _symmetry_equiv_pos_site_id
 _symmetry_equiv_pos_as_xyz
  1  'x, y, z'
loop_
 _atom_site_type_symbol
 _atom_site_label
 _atom_site_symmetry_multiplicity
 _atom_site_fract_x
 _atom_site_fract_y
 _atom_site_fract_z
 _atom_site_occupancy
  Hg  Hg0  1  0.08972300  0.08972300  0.08972300  1
  Zr  Zr1  1  0.41027700  0.91027701  0.58972301  1
  Ac  Ac2  1  0.58972301  0.41027700  0.91027701  1
  Kr  Kr3  1  0.91027701  0.58972301  0.41027700  1
  Ge  Ge4  1  0.14131800  0.64131801  0.85868201  1
  Ag  Ag5  1  0.35868200  0.35868200  0.35868200  1
  Br  Br6  1  0.64131801  0.85868201  0.14131800  1
  Th  Th7  1  0.85868201  0.14131800  0.64131801  1
  Fe  Fe8  1  0.51770501  0.23212100  0.63109601  1
  Br  Br9  1  0.48229501  0.73212101  0.86890401  1
  U  U10  1  0.26787900  0.36890400  0.01770500  1
  C  C11  1  0.63109601  0.51770501  0.23212100  1
  S  S12  1  0.86890401  0.48229501  0.73212101  1
  Pa  Pa13  1  0.23212100  0.63109601  0.51770501  1
  Hg  Hg14  1  0.01770500  0.26787900  0.36890400  1
  Mg  Mg15  1  0.98229501  0.76787901  0.13109600  1
  Ni  Ni16  1  0.76787901  0.13109600  0.98229501  1
  F  F17  1  0.13109600  0.98229501  0.76787901  1
  Cs  Cs18  1  0.36890400  0.01770500  0.26787900  1
  Cs  Cs19  1  0.73212101  0.86890401  0.48229501  1
