# generated using pymatgen
data_LaPrTiZnInFeCoSbW2Br
_symmetry_space_group_name_H-M   'P 1'
_cell_length_a   5.55162001
_cell_length_b   5.76491642
_cell_length_c   6.32954168
_cell_angle_alpha   77.80958557
_cell_angle_beta   63.98870468
_cell_angle_gamma   61.21655273
_symmetry_Int_Tables_number   1
_chemical_formula_structural   LaPrTiZnInFeCoSbW2Br
_chemical_formula_sum   'La1 Pr1 Ti1 Zn1 In1 Fe1 Co1 Sb1 W2 Br1'
_cell_volume   159.56164501
_cell_formula_units_Z   1
loop_
 _symmetry_equiv_pos_site_id
 _symmetry_equiv_pos_as_xyz
  1  'x, y, z'
loop_
 _atom_site_type_symbol
 _atom_site_label
 _atom_site_symmetry_multiplicity
 _atom_site_fract_x
 _atom_site_fract_y
 _atom_site_fract_z
 _atom_site_occupancy
  Zn  Zn0  1  0.85634899  0.00000000  0.28730202  1
  W  W1  1  0.14365100  0.00000000  0.71269798  1
  La  La2  1  0.79126498  0.67667801  0.74079198  1
  Co  Co3  1  0.20873499  0.32332201  0.25920799  1
  Fe  Fe4  1  0.53205699  0.67667801  0.25920799  1
  Br  Br5  1  0.46794299  0.32332201  0.74079198  1
  Sb  Sb6  1  0.24999999  0.50000001  0.49999998  1
  In  In7  1  -0.00000000  0.50000001  -0.00000001  1
  Ti  Ti8  1  0.49999999  0.00000000  0.00000001  1
  Pr  Pr9  1  0.49999999  0.50000001  0.00000000  1
  W  W10  1  0.74999998  0.50000001  0.49999999  1
