# generated using pymatgen
data_RbCaHoHfPaTlCdCoSnTePRuO
_symmetry_space_group_name_H-M   'P 1'
_cell_length_a   4.62299013
_cell_length_b   6.31122398
_cell_length_c   6.31122398
_cell_angle_alpha   82.29109955
_cell_angle_beta   68.51538086
_cell_angle_gamma   68.51538086
_symmetry_Int_Tables_number   1
_chemical_formula_structural   RbCaHoHfPaTlCdCoSnTePRuO
_chemical_formula_sum
'Rb1 Ca1 Ho1 Hf1 Pa1 Tl1 Cd1 Co1 Sn1 Te1 P1 Ru1 O1'
_cell_volume   159.44017753
_cell_formula_units_Z   1
loop_
 _symmetry_equiv_pos_site_id
 _symmetry_equiv_pos_as_xyz
  1  'x, y, z'
loop_
 _atom_site_type_symbol
 _atom_site_label
 _atom_site_symmetry_multiplicity
 _atom_site_fract_x
 _atom_site_fract_y
 _atom_site_fract_z
 _atom_site_occupancy
  Ru  Ru0  1  0.00000000  0.00000000  0.00000000  1
  Sn  Sn1  1  0.27327200  0.22672800  0.22672800  1
  Ca  Ca2  1  0.50000001  0.99999999  0.50000001  1
  P  P3  1  0.99999998  0.50000000  0.00000001  1
  Tl  Tl4  1  0.49999999  0.50000000  0.00000001  1
  Co  Co5  1  0.00000000  0.00000000  0.50000000  1
  Hf  Hf6  1  0.63798899  0.36201100  0.36201101  1
  Cd  Cd7  1  0.00000001  0.63798900  0.36201100  1
  Rb  Rb8  1  0.00000001  0.36201100  0.63798900  1
  Pa  Pa9  1  0.36201100  0.63798900  0.63798901  1
  Ho  Ho10  1  0.72672799  0.77327199  0.77327201  1
  Te  Te11  1  0.49999999  0.22672800  0.77327201  1
  O  O12  1  0.50000000  0.77327199  0.22672801  1
