# generated using pymatgen
data_SrTmCu2O5
_symmetry_space_group_name_H-M   'P 1'
_cell_length_a   3.85540509
_cell_length_b   3.85540509
_cell_length_c   7.94957209
_cell_angle_alpha   90.00000000
_cell_angle_beta   90.00000000
_cell_angle_gamma   90.00000000
_symmetry_Int_Tables_number   1
_chemical_formula_structural   SrTmCu2O5
_chemical_formula_sum   'Sr1 Tm1 Cu2 O5'
_cell_volume   118.16361941
_cell_formula_units_Z   1
loop_
 _symmetry_equiv_pos_site_id
 _symmetry_equiv_pos_as_xyz
  1  'x, y, z'
loop_
 _atom_site_type_symbol
 _atom_site_label
 _atom_site_symmetry_multiplicity
 _atom_site_fract_x
 _atom_site_fract_y
 _atom_site_fract_z
 _atom_site_occupancy
  Sr  Sr0  1  0.00000000  0.00000000  0.97936899  1
  Tm  Tm1  1  0.00000000  0.00000000  0.51461499  1
  Cu  Cu2  1  0.49999999  0.49999999  0.27921700  1
  Cu  Cu3  1  0.49999999  0.49999999  0.72096599  1
  O  O4  1  0.49999999  0.49999999  0.04282400  1
  O  O5  1  0.49999999  0.00000000  0.69838399  1
  O  O6  1  0.49999999  0.00000000  0.35312100  1
  O  O7  1  -0.00000000  0.49999999  0.69838399  1
  O  O8  1  -0.00000000  0.49999999  0.35312100  1
