# generated using pymatgen
data_K3NaZr2TiF12
_symmetry_space_group_name_H-M   'P 1'
_cell_length_a   5.81169319
_cell_length_b   5.81169319
_cell_length_c   9.89948463
_cell_angle_alpha   72.93028259
_cell_angle_beta   72.93028259
_cell_angle_gamma   60.00001144
_symmetry_Int_Tables_number   1
_chemical_formula_structural   K3NaZr2TiF12
_chemical_formula_sum   'K3 Na1 Zr2 Ti1 F12'
_cell_volume   272.42613089
_cell_formula_units_Z   1
loop_
 _symmetry_equiv_pos_site_id
 _symmetry_equiv_pos_as_xyz
  1  'x, y, z'
loop_
 _atom_site_type_symbol
 _atom_site_label
 _atom_site_symmetry_multiplicity
 _atom_site_fract_x
 _atom_site_fract_y
 _atom_site_fract_z
 _atom_site_occupancy
  Na  Na0  1  0.71036298  0.71036298  0.86891099  1
  K  K1  1  0.28801999  0.28801999  0.13594000  1
  K  K2  1  0.13314000  0.13314000  0.60057999  1
  K  K3  1  0.85393797  0.85393797  0.43818601  1
  Ti  Ti4  1  0.57636198  0.57636198  0.27091401  1
  Zr  Zr5  1  0.42338499  0.42338499  0.72984499  1
  Zr  Zr6  1  0.99931497  0.99931497  0.00205502  1
  F  F7  1  0.71123098  0.20833099  0.87210699  1
  F  F8  1  0.20833099  0.20833099  0.87210698  1
  F  F9  1  0.20833099  0.71123098  0.87210699  1
  F  F10  1  0.28844599  0.79583097  0.11989201  1
  F  F11  1  0.79583098  0.79583097  0.11989201  1
  F  F12  1  0.79583097  0.28844599  0.11989201  1
  F  F13  1  0.87463897  0.37954899  0.36626300  1
  F  F14  1  0.37954899  0.37954899  0.36626300  1
  F  F15  1  0.37954899  0.87463897  0.36626300  1
  F  F16  1  0.12621000  0.62376498  0.62625999  1
  F  F17  1  0.62376498  0.62376498  0.62626000  1
  F  F18  1  0.62376498  0.12621000  0.62625999  1
