# generated using pymatgen
data_TbZr(Ni2P)4
_symmetry_space_group_name_H-M   'P 1'
_cell_length_a   3.59421611
_cell_length_b   7.04369879
_cell_length_c   7.04369879
_cell_angle_alpha   90.00000000
_cell_angle_beta   90.00000000
_cell_angle_gamma   90.00000000
_symmetry_Int_Tables_number   1
_chemical_formula_structural   TbZr(Ni2P)4
_chemical_formula_sum   'Tb1 Zr1 Ni8 P4'
_cell_volume   178.32233318
_cell_formula_units_Z   1
loop_
 _symmetry_equiv_pos_site_id
 _symmetry_equiv_pos_as_xyz
  1  'x, y, z'
loop_
 _atom_site_type_symbol
 _atom_site_label
 _atom_site_symmetry_multiplicity
 _atom_site_fract_x
 _atom_site_fract_y
 _atom_site_fract_z
 _atom_site_occupancy
  Zr  Zr0  1  0.99999997  0.50000002  0.50000002  1
  Tb  Tb1  1  0.49999998  0.00000000  -0.00000000  1
  Ni  Ni2  1  0.49999998  0.58589802  0.16251900  1
  Ni  Ni3  1  0.49999998  0.41410201  0.83748103  1
  Ni  Ni4  1  0.00000000  0.08589800  0.33748101  1
  Ni  Ni5  1  0.99999997  0.91410203  0.66251902  1
  Ni  Ni6  1  0.49999998  0.16251900  0.58589802  1
  Ni  Ni7  1  0.49999998  0.83748103  0.41410201  1
  Ni  Ni8  1  0.00000000  0.33748101  0.08589800  1
  Ni  Ni9  1  0.99999997  0.66251902  0.91410203  1
  P  P10  1  0.49999998  0.71952202  0.71952202  1
  P  P11  1  0.49999998  0.28047801  0.28047801  1
  P  P12  1  0.99999997  0.21952201  0.78047802  1
  P  P13  1  -0.00000000  0.78047802  0.21952201  1
