# generated using pymatgen
data_KTe
_symmetry_space_group_name_H-M   'P 1'
_cell_length_a   4.11968994
_cell_length_b   5.95492411
_cell_length_c   9.34037971
_cell_angle_alpha   90.00000000
_cell_angle_beta   102.74023438
_cell_angle_gamma   90.00000000
_symmetry_Int_Tables_number   1
_chemical_formula_structural   KTe
_chemical_formula_sum   'K3 Te3'
_cell_volume   223.50081223
_cell_formula_units_Z   3
loop_
 _symmetry_equiv_pos_site_id
 _symmetry_equiv_pos_as_xyz
  1  'x, y, z'
loop_
 _atom_site_type_symbol
 _atom_site_label
 _atom_site_symmetry_multiplicity
 _atom_site_fract_x
 _atom_site_fract_y
 _atom_site_fract_z
 _atom_site_occupancy
  K  K0  1  0.97071302  0.00000000  0.94142602  1
  K  K1  1  0.65786301  0.00000000  0.31572601  1
  K  K2  1  0.80417001  0.49999999  0.60834001  1
  Te  Te3  1  0.31877901  0.00000000  0.63755801  1
  Te  Te4  1  0.10863300  0.49999999  0.21726600  1
  Te  Te5  1  0.47317601  0.49999999  0.94635202  1
