# generated using pymatgen
data_PrAl6NiRu
_symmetry_space_group_name_H-M   'P 1'
_cell_length_a   5.10960865
_cell_length_b   5.10960865
_cell_length_c   5.10960865
_cell_angle_alpha   60.00000000
_cell_angle_beta   60.00000000
_cell_angle_gamma   60.00000000
_symmetry_Int_Tables_number   1
_chemical_formula_structural   PrAl6NiRu
_chemical_formula_sum   'Pr1 Al6 Ni1 Ru1'
_cell_volume   94.32958359
_cell_formula_units_Z   1
loop_
 _symmetry_equiv_pos_site_id
 _symmetry_equiv_pos_as_xyz
  1  'x, y, z'
loop_
 _atom_site_type_symbol
 _atom_site_label
 _atom_site_symmetry_multiplicity
 _atom_site_fract_x
 _atom_site_fract_y
 _atom_site_fract_z
 _atom_site_occupancy
  Ni  Ni0  1  0.75000002  0.75000002  0.75000002  1
  Ru  Ru1  1  0.25000001  0.25000001  0.25000001  1
  Al  Al2  1  0.23261600  0.76738402  0.23261600  1
  Al  Al3  1  0.23261600  0.76738402  0.76738402  1
  Al  Al4  1  0.76738402  0.76738402  0.23261600  1
  Al  Al5  1  0.76738402  0.23261600  0.76738402  1
  Al  Al6  1  0.76738402  0.23261600  0.23261600  1
  Al  Al7  1  0.23261600  0.23261600  0.76738402  1
  Pr  Pr8  1  0.00000000  0.00000000  0.00000000  1
