# generated using pymatgen
data_Li3V5O8
_symmetry_space_group_name_H-M   'P 1'
_cell_length_a   5.12710953
_cell_length_b   5.12711906
_cell_length_c   5.76286697
_cell_angle_alpha   90.00036621
_cell_angle_beta   90.00010681
_cell_angle_gamma   68.43970490
_symmetry_Int_Tables_number   1
_chemical_formula_structural   Li3V5O8
_chemical_formula_sum   'Li3 V5 O8'
_cell_volume   140.89065511
_cell_formula_units_Z   1
loop_
 _symmetry_equiv_pos_site_id
 _symmetry_equiv_pos_as_xyz
  1  'x, y, z'
loop_
 _atom_site_type_symbol
 _atom_site_label
 _atom_site_symmetry_multiplicity
 _atom_site_fract_x
 _atom_site_fract_y
 _atom_site_fract_z
 _atom_site_occupancy
  Li  Li0  1  0.49999898  0.00000200  0.75004698  1
  Li  Li1  1  0.99999795  0.49999302  0.24995993  1
  Li  Li2  1  0.49999697  0.49999702  0.99999696  1
  V  V3  1  0.99999895  1.00000004  0.50000390  1
  V  V4  1  0.00001000  0.49999002  0.75675698  1
  V  V5  1  0.50001097  0.99998704  0.24319293  1
  V  V6  1  0.50000297  0.50000202  0.50000795  1
  V  V7  1  0.00000100  0.00000700  0.00001300  1
  O  O8  1  0.77166796  0.26734001  0.74492495  1
  O  O9  1  0.26733698  0.77167103  0.25507995  1
  O  O10  1  0.22832898  0.73265903  0.74491695  1
  O  O11  1  0.73265797  0.22834101  0.25508196  1
  O  O12  1  0.24341499  0.24342901  0.00000198  1
  O  O13  1  0.72405096  0.72405103  0.50000493  1
  O  O14  1  0.75657496  0.75658303  0.00000393  1
  O  O15  1  0.27594799  0.27594701  0.50000498  1
