# generated using pymatgen
data_Te
_symmetry_space_group_name_H-M   'P 1'
_cell_length_a   4.20880365
_cell_length_b   4.20880365
_cell_length_c   40.31737137
_cell_angle_alpha   87.00803375
_cell_angle_beta   87.00803375
_cell_angle_gamma   60.00000381
_symmetry_Int_Tables_number   1
_chemical_formula_structural   Te
_chemical_formula_sum   Te20
_cell_volume   617.37630019
_cell_formula_units_Z   20
loop_
 _symmetry_equiv_pos_site_id
 _symmetry_equiv_pos_as_xyz
  1  'x, y, z'
loop_
 _atom_site_type_symbol
 _atom_site_label
 _atom_site_symmetry_multiplicity
 _atom_site_fract_x
 _atom_site_fract_y
 _atom_site_fract_z
 _atom_site_occupancy
  Te  Te0  1  0.24479002  0.24479001  0.26563000  1
  Te  Te1  1  0.64397505  0.64397502  0.06807500  1
  Te  Te2  1  0.04719500  0.04719500  0.85841599  1
  Te  Te3  1  0.44638003  0.44638001  0.66085899  1
  Te  Te4  1  0.84558606  0.84558603  0.46323999  1
  Te  Te5  1  0.55362004  0.55362002  0.33914099  1
  Te  Te6  1  0.95280507  0.95280503  0.14158399  1
  Te  Te7  1  0.35602503  0.35602501  0.93192499  1
  Te  Te8  1  0.75521006  0.75521002  0.73436999  1
  Te  Te9  1  0.15441401  0.15441400  0.53676000  1
  Te  Te10  1  0.00000000  0.00000000  0.00000000  1
  Te  Te11  1  0.40120103  0.40120101  0.79639899  1
  Te  Te12  1  0.80039506  0.80039503  0.59881299  1
  Te  Te13  1  0.19960501  0.19960501  0.40118700  1
  Te  Te14  1  0.59879904  0.59879902  0.20360100  1
  Te  Te15  1  0.89920607  0.89920603  0.30238399  1
  Te  Te16  1  0.29836902  0.29836901  0.10489300  1
  Te  Te17  1  0.70163105  0.70163102  0.89510699  1
  Te  Te18  1  0.10079401  0.10079400  0.69761599  1
  Te  Te19  1  0.50000004  0.50000002  0.49999999  1
