# generated using pymatgen
data_Rb5Te4
_symmetry_space_group_name_H-M   'P 1'
_cell_length_a   5.67821789
_cell_length_b   7.00005674
_cell_length_c   11.49997520
_cell_angle_alpha   74.19273376
_cell_angle_beta   75.70706177
_cell_angle_gamma   66.07228851
_symmetry_Int_Tables_number   1
_chemical_formula_structural   Rb5Te4
_chemical_formula_sum   'Rb5 Te4'
_cell_volume   397.15081260
_cell_formula_units_Z   1
loop_
 _symmetry_equiv_pos_site_id
 _symmetry_equiv_pos_as_xyz
  1  'x, y, z'
loop_
 _atom_site_type_symbol
 _atom_site_label
 _atom_site_symmetry_multiplicity
 _atom_site_fract_x
 _atom_site_fract_y
 _atom_site_fract_z
 _atom_site_occupancy
  Rb  Rb0  1  0.74588001  0.84069098  0.66754897  1
  Rb  Rb1  1  0.25868800  0.14794100  0.33468299  1
  Rb  Rb2  1  0.40539101  0.30039899  0.88881896  1
  Rb  Rb3  1  0.59450001  0.69673799  0.11426199  1
  Rb  Rb4  1  0.50639501  0.49047199  0.49673798  1
  Te  Te5  1  0.04330200  0.24056299  0.67283297  1
  Te  Te6  1  0.95657302  0.75447898  0.33237498  1
  Te  Te7  1  0.11082700  0.88505498  0.89329096  1
  Te  Te8  1  0.89044302  0.10866300  0.11045100  1
