# generated using pymatgen
data_WSe2
_symmetry_space_group_name_H-M   'P 1'
_cell_length_a   3.23125792
_cell_length_b   3.23125744
_cell_length_c   29.67800140
_cell_angle_alpha   90.00000000
_cell_angle_beta   90.00000000
_cell_angle_gamma   120.00000763
_symmetry_Int_Tables_number   1
_chemical_formula_structural   WSe2
_chemical_formula_sum   'W3 Se6'
_cell_volume   268.35422292
_cell_formula_units_Z   3
loop_
 _symmetry_equiv_pos_site_id
 _symmetry_equiv_pos_as_xyz
  1  'x, y, z'
loop_
 _atom_site_type_symbol
 _atom_site_label
 _atom_site_symmetry_multiplicity
 _atom_site_fract_x
 _atom_site_fract_y
 _atom_site_fract_z
 _atom_site_occupancy
  W  W0  1  0.33333338  0.66666671  0.99999999  1
  W  W1  1  0.66666670  0.33333336  0.23136100  1
  W  W2  1  0.66666670  0.33333336  0.76863899  1
  Se  Se3  1  0.66666670  0.33333336  0.94251799  1
  Se  Se4  1  0.66666670  0.33333336  0.05748200  1
  Se  Se5  1  0.33333338  0.66666671  0.28383900  1
  Se  Se6  1  0.33333338  0.66666671  0.82112599  1
  Se  Se7  1  0.33333338  0.66666671  0.17887400  1
  Se  Se8  1  0.33333338  0.66666671  0.71616099  1
