# generated using pymatgen
data_NaNb2O6
_symmetry_space_group_name_H-M   'P 1'
_cell_length_a   5.11290407
_cell_length_b   5.31635809
_cell_length_c   5.31635809
_cell_angle_alpha   120.00000000
_cell_angle_beta   90.00000000
_cell_angle_gamma   90.00000000
_symmetry_Int_Tables_number   1
_chemical_formula_structural   NaNb2O6
_chemical_formula_sum   'Na1 Nb2 O6'
_cell_volume   125.14881092
_cell_formula_units_Z   1
loop_
 _symmetry_equiv_pos_site_id
 _symmetry_equiv_pos_as_xyz
  1  'x, y, z'
loop_
 _atom_site_type_symbol
 _atom_site_label
 _atom_site_symmetry_multiplicity
 _atom_site_fract_x
 _atom_site_fract_y
 _atom_site_fract_z
 _atom_site_occupancy
  Na  Na0  1  0.00000000  0.00000000  0.00000000  1
  Nb  Nb1  1  0.49999999  0.66666665  0.33333332  1
  Nb  Nb2  1  0.49999999  0.33333333  0.66666664  1
  O  O3  1  0.28279300  0.63177899  0.99999996  1
  O  O4  1  0.28279300  0.36822099  0.36822099  1
  O  O5  1  0.28279300  0.99999998  0.63177897  1
  O  O6  1  0.71720699  0.63177899  0.63177898  1
  O  O7  1  0.71720699  0.99999998  0.36822098  1
  O  O8  1  0.71720699  0.36822099  0.99999997  1
