# generated using pymatgen
data_In5Te7
_symmetry_space_group_name_H-M   'P 1'
_cell_length_a   4.10473204
_cell_length_b   4.12533808
_cell_length_c   17.51262856
_cell_angle_alpha   90.00000000
_cell_angle_beta   90.00000000
_cell_angle_gamma   89.94303131
_symmetry_Int_Tables_number   1
_chemical_formula_structural   In5Te7
_chemical_formula_sum   'In5 Te7'
_cell_volume   296.54832684
_cell_formula_units_Z   1
loop_
 _symmetry_equiv_pos_site_id
 _symmetry_equiv_pos_as_xyz
  1  'x, y, z'
loop_
 _atom_site_type_symbol
 _atom_site_label
 _atom_site_symmetry_multiplicity
 _atom_site_fract_x
 _atom_site_fract_y
 _atom_site_fract_z
 _atom_site_occupancy
  Te  Te0  1  0.74819398  0.77836599  0.15453900  1
  In  In1  1  0.75180598  0.72163399  0.65453902  1
  Te  Te2  1  0.25180599  0.22163400  0.84546102  1
  Te  Te3  1  0.24819399  0.27836600  0.34546101  1
  In  In4  1  0.25143496  0.75580199  0.49930101  1
  Te  Te5  1  0.24856496  0.74419799  0.99930103  1
  Te  Te6  1  0.74856501  0.24419800  0.50069901  1
  In  In7  1  0.75143501  0.25580200  0.00069900  1
  In  In8  1  0.75008698  0.78078999  0.31365601  1
  Te  Te9  1  0.74991298  0.71920999  0.81365602  1
  Te  Te10  1  0.24991299  0.21921000  0.68634402  1
  In  In11  1  0.25008699  0.28079000  0.18634400  1
