# generated using pymatgen
data_GdSi2
_symmetry_space_group_name_H-M   'P 1'
_cell_length_a   4.09770203
_cell_length_b   4.09770107
_cell_length_c   8.12001419
_cell_angle_alpha   90.00000000
_cell_angle_beta   90.00000000
_cell_angle_gamma   120.00000763
_symmetry_Int_Tables_number   1
_chemical_formula_structural   GdSi2
_chemical_formula_sum   'Gd2 Si4'
_cell_volume   118.07774062
_cell_formula_units_Z   2
loop_
 _symmetry_equiv_pos_site_id
 _symmetry_equiv_pos_as_xyz
  1  'x, y, z'
loop_
 _atom_site_type_symbol
 _atom_site_label
 _atom_site_symmetry_multiplicity
 _atom_site_fract_x
 _atom_site_fract_y
 _atom_site_fract_z
 _atom_site_occupancy
  Gd  Gd0  1  0.33333334  0.66666668  0.76097498  1
  Gd  Gd1  1  0.33333334  0.66666668  0.23902499  1
  Si  Si2  1  0.66666667  0.33333334  -0.00000000  1
  Si  Si3  1  0.66666667  0.33333334  0.49999999  1
  Si  Si4  1  0.00000000  0.00000000  0.00000000  1
  Si  Si5  1  0.00000000  0.00000000  0.49999999  1
