# generated using pymatgen
data_La(GePt)2
_symmetry_space_group_name_H-M   'P 1'
_cell_length_a   4.32561398
_cell_length_b   4.32561398
_cell_length_c   5.99074745
_cell_angle_alpha   111.16313171
_cell_angle_beta   111.16313171
_cell_angle_gamma   90.00000000
_symmetry_Int_Tables_number   1
_chemical_formula_structural   La(GePt)2
_chemical_formula_sum   'La1 Ge2 Pt2'
_cell_volume   96.38145952
_cell_formula_units_Z   1
loop_
 _symmetry_equiv_pos_site_id
 _symmetry_equiv_pos_as_xyz
  1  'x, y, z'
loop_
 _atom_site_type_symbol
 _atom_site_label
 _atom_site_symmetry_multiplicity
 _atom_site_fract_x
 _atom_site_fract_y
 _atom_site_fract_z
 _atom_site_occupancy
  La  La0  1  0.00000000  0.00000000  0.00000000  1
  Ge  Ge1  1  0.62012200  0.62012200  0.24024398  1
  Ge  Ge2  1  0.37987800  0.37987800  0.75975596  1
  Pt  Pt3  1  0.24999999  0.75000000  0.49999997  1
  Pt  Pt4  1  0.75000000  0.25000000  0.49999997  1
