# generated using pymatgen
data_Ca4MgFe(WO6)2
_symmetry_space_group_name_H-M   'P 1'
_cell_length_a   5.48859215
_cell_length_b   5.83676386
_cell_length_c   7.83860683
_cell_angle_alpha   90.00000000
_cell_angle_beta   90.52420044
_cell_angle_gamma   90.00000000
_symmetry_Int_Tables_number   1
_chemical_formula_structural   Ca4MgFe(WO6)2
_chemical_formula_sum   'Ca4 Mg1 Fe1 W2 O12'
_cell_volume   251.10409109
_cell_formula_units_Z   1
loop_
 _symmetry_equiv_pos_site_id
 _symmetry_equiv_pos_as_xyz
  1  'x, y, z'
loop_
 _atom_site_type_symbol
 _atom_site_label
 _atom_site_symmetry_multiplicity
 _atom_site_fract_x
 _atom_site_fract_y
 _atom_site_fract_z
 _atom_site_occupancy
  Mg  Mg0  1  0.00000000  0.00000000  0.00000000  1
  Fe  Fe1  1  0.49999999  0.50000001  0.50000000  1
  Ca  Ca2  1  0.48324099  0.92973802  0.25176399  1
  Ca  Ca3  1  0.01675900  0.42973801  0.24823601  1
  Ca  Ca4  1  0.98324097  0.57026201  0.75176399  1
  Ca  Ca5  1  0.51675899  0.07026200  0.74823600  1
  W  W6  1  0.49999999  0.50000001  -0.00000002  1
  W  W7  1  0.00000000  0.00000000  0.50000001  1
  O  O8  1  0.18229400  0.71293902  0.44942501  1
  O  O9  1  0.31770599  0.21293901  0.05057499  1
  O  O10  1  0.81770598  0.28706101  0.55057499  1
  O  O11  1  0.68229398  0.78706102  0.94942500  1
  O  O12  1  0.09331300  0.97335302  0.74565402  1
  O  O13  1  0.40668699  0.47335301  0.75434601  1
  O  O14  1  0.20303799  0.68924302  0.04660799  1
  O  O15  1  0.29696199  0.18924300  0.45339200  1
  O  O16  1  0.79696198  0.31075701  0.95339200  1
  O  O17  1  0.70303798  0.81075702  0.54660799  1
  O  O18  1  0.59331298  0.52664701  0.24565399  1
  O  O19  1  0.90668698  0.02664700  0.25434598  1
