# generated using pymatgen
data_ReBiO6
_symmetry_space_group_name_H-M   'P 1'
_cell_length_a   5.32672024
_cell_length_b   5.32672024
_cell_length_c   5.77930021
_cell_angle_alpha   62.55836868
_cell_angle_beta   62.55836868
_cell_angle_gamma   59.99999619
_symmetry_Int_Tables_number   1
_chemical_formula_structural   ReBiO6
_chemical_formula_sum   'Re1 Bi1 O6'
_cell_volume   120.23573971
_cell_formula_units_Z   1
loop_
 _symmetry_equiv_pos_site_id
 _symmetry_equiv_pos_as_xyz
  1  'x, y, z'
loop_
 _atom_site_type_symbol
 _atom_site_label
 _atom_site_symmetry_multiplicity
 _atom_site_fract_x
 _atom_site_fract_y
 _atom_site_fract_z
 _atom_site_occupancy
  Re  Re0  1  0.50000003  0.50000001  0.50000002  1
  Bi  Bi1  1  0.00000000  0.00000000  0.00000000  1
  O  O2  1  0.14735703  0.72613402  0.72427403  1
  O  O3  1  0.27386603  0.59776501  0.27572601  1
  O  O4  1  0.72613404  0.40223501  0.72427403  1
  O  O5  1  0.40223502  0.14735700  0.72427403  1
  O  O6  1  0.85264304  0.27386601  0.27572602  1
  O  O7  1  0.59776505  0.85264302  0.27572602  1
