# generated using pymatgen
data_Cu5Se8
_symmetry_space_group_name_H-M   'P 1'
_cell_length_a   6.76198101
_cell_length_b   6.76198101
_cell_length_c   6.84619474
_cell_angle_alpha   105.18214417
_cell_angle_beta   104.18669891
_cell_angle_gamma   119.12492371
_symmetry_Int_Tables_number   1
_chemical_formula_structural   Cu5Se8
_chemical_formula_sum   'Cu5 Se8'
_cell_volume   236.74832638
_cell_formula_units_Z   1
loop_
 _symmetry_equiv_pos_site_id
 _symmetry_equiv_pos_as_xyz
  1  'x, y, z'
loop_
 _atom_site_type_symbol
 _atom_site_label
 _atom_site_symmetry_multiplicity
 _atom_site_fract_x
 _atom_site_fract_y
 _atom_site_fract_z
 _atom_site_occupancy
  Se  Se0  1  0.73637700  0.23637699  0.50000001  1
  Cu  Cu1  1  0.26362298  0.76362298  0.49999998  1
  Cu  Cu2  1  0.25459798  0.75530298  0.00990098  1
  Se  Se3  1  0.74540200  0.24469699  0.99009901  1
  Se  Se4  1  0.00000000  0.00000000  0.00000000  1
  Se  Se5  1  0.53990598  0.79165298  0.33155899  1
  Cu  Cu6  1  0.46009400  0.20834699  0.66844100  1
  Se  Se7  1  0.95809999  0.71217998  0.17002401  1
  Se  Se8  1  0.04189999  0.28781999  0.82997599  1
  Se  Se9  1  0.54215598  0.78807598  0.82997599  1
  Cu  Cu10  1  0.45784400  0.21192399  0.17002401  1
  Se  Se11  1  0.03651999  0.29410899  0.33062899  1
  Cu  Cu12  1  0.96347999  0.70589098  0.66937101  1
