# generated using pymatgen
data_LuSc8S7
_symmetry_space_group_name_H-M   'P 1'
_cell_length_a   7.15555143
_cell_length_b   7.15555143
_cell_length_c   7.15555143
_cell_angle_alpha   60.00000000
_cell_angle_beta   60.00000000
_cell_angle_gamma   60.00000000
_symmetry_Int_Tables_number   1
_chemical_formula_structural   LuSc8S7
_chemical_formula_sum   'Lu1 Sc8 S7'
_cell_volume   259.06832989
_cell_formula_units_Z   1
loop_
 _symmetry_equiv_pos_site_id
 _symmetry_equiv_pos_as_xyz
  1  'x, y, z'
loop_
 _atom_site_type_symbol
 _atom_site_label
 _atom_site_symmetry_multiplicity
 _atom_site_fract_x
 _atom_site_fract_y
 _atom_site_fract_z
 _atom_site_occupancy
  Lu  Lu0  1  0.11299500  0.11299500  0.11299500  1
  Sc  Sc1  1  0.63700501  0.08898500  0.63700501  1
  Sc  Sc2  1  0.08898500  0.63700501  0.63700501  1
  Sc  Sc3  1  0.63700501  0.63700501  0.08898500  1
  Sc  Sc4  1  0.66101501  0.11299500  0.11299500  1
  Sc  Sc5  1  0.11299500  0.11299500  0.66101501  1
  Sc  Sc6  1  0.11299500  0.66101501  0.11299500  1
  Sc  Sc7  1  0.63700501  0.63700501  0.63700501  1
  S  S8  1  0.87500001  0.37500000  0.37500000  1
  S  S9  1  0.37500000  0.37500000  0.87500001  1
  S  S10  1  0.37500000  0.87500001  0.37500000  1
  S  S11  1  0.37500000  0.37500000  0.37500000  1
  S  S12  1  0.37500000  0.87500001  0.87500001  1
  S  S13  1  0.87500001  0.87500001  0.37500000  1
  S  S14  1  0.87500001  0.37500000  0.87500001  1
  Sc  Sc15  1  0.87500001  0.87500001  0.87500001  1
