# generated using pymatgen
data_Gd2Al3Cu
_symmetry_space_group_name_H-M   'P 1'
_cell_length_a   4.31788015
_cell_length_b   4.31788015
_cell_length_c   8.23724937
_cell_angle_alpha   90.00000000
_cell_angle_beta   90.00000000
_cell_angle_gamma   120.00000000
_symmetry_Int_Tables_number   1
_chemical_formula_structural   Gd2Al3Cu
_chemical_formula_sum   'Gd2 Al3 Cu1'
_cell_volume   133.00072661
_cell_formula_units_Z   1
loop_
 _symmetry_equiv_pos_site_id
 _symmetry_equiv_pos_as_xyz
  1  'x, y, z'
loop_
 _atom_site_type_symbol
 _atom_site_label
 _atom_site_symmetry_multiplicity
 _atom_site_fract_x
 _atom_site_fract_y
 _atom_site_fract_z
 _atom_site_occupancy
  Gd  Gd0  1  0.00000000  0.00000000  0.00000000  1
  Gd  Gd1  1  0.00000000  0.00000000  0.49999998  1
  Cu  Cu2  1  0.66666665  0.33333334  0.74999997  1
  Al  Al3  1  0.33333334  0.66666668  0.24999999  1
  Al  Al4  1  0.66666665  0.33333334  0.24999999  1
  Al  Al5  1  0.33333334  0.66666668  0.74999997  1
