# generated using pymatgen
data_LiTa2O5
_symmetry_space_group_name_H-M   'P 1'
_cell_length_a   5.23219109
_cell_length_b   6.27222443
_cell_length_c   7.46548223
_cell_angle_alpha   111.09455109
_cell_angle_beta   90.00000000
_cell_angle_gamma   114.65114594
_symmetry_Int_Tables_number   1
_chemical_formula_structural   LiTa2O5
_chemical_formula_sum   'Li2 Ta4 O10'
_cell_volume   204.46721365
_cell_formula_units_Z   2
loop_
 _symmetry_equiv_pos_site_id
 _symmetry_equiv_pos_as_xyz
  1  'x, y, z'
loop_
 _atom_site_type_symbol
 _atom_site_label
 _atom_site_symmetry_multiplicity
 _atom_site_fract_x
 _atom_site_fract_y
 _atom_site_fract_z
 _atom_site_occupancy
  Li  Li0  1  0.64236801  0.27414500  0.74553103  1
  Ta  Ta1  1  0.63177701  0.27414500  0.24553101  1
  Li  Li2  1  0.36822304  0.72585499  0.75446903  1
  Ta  Ta3  1  0.35763204  0.72585499  0.25446902  1
  Ta  Ta4  1  0.00000000  0.00000000  0.50000001  1
  Ta  Ta5  1  0.00000000  0.00000000  0.00000000  1
  O  O6  1  0.39419600  0.14503600  0.95404303  1
  O  O7  1  0.75084000  0.14503600  0.45404302  1
  O  O8  1  0.31487901  0.34383100  0.64254202  1
  O  O9  1  0.97104702  0.65616899  0.85745803  1
  O  O10  1  0.02895302  0.34383100  0.14254201  1
  O  O11  1  0.68512103  0.65616899  0.35745802  1
  O  O12  1  0.24916004  0.85496399  0.54595703  1
  O  O13  1  0.82546999  0.00000000  0.75000002  1
  O  O14  1  0.60580404  0.85496399  0.04595701  1
  O  O15  1  0.17453000  0.00000000  0.25000001  1
