# generated using pymatgen
data_Na(CuS)8
_symmetry_space_group_name_H-M   'P 1'
_cell_length_a   7.01118946
_cell_length_b   7.01118946
_cell_length_c   7.01118946
_cell_angle_alpha   109.47122192
_cell_angle_beta   109.47122192
_cell_angle_gamma   109.47122192
_symmetry_Int_Tables_number   1
_chemical_formula_structural   Na(CuS)8
_chemical_formula_sum   'Na1 Cu8 S8'
_cell_volume   265.30974223
_cell_formula_units_Z   1
loop_
 _symmetry_equiv_pos_site_id
 _symmetry_equiv_pos_as_xyz
  1  'x, y, z'
loop_
 _atom_site_type_symbol
 _atom_site_label
 _atom_site_symmetry_multiplicity
 _atom_site_fract_x
 _atom_site_fract_y
 _atom_site_fract_z
 _atom_site_occupancy
  Na  Na0  1  0.00000000  0.00000000  0.00000000  1
  S  S1  1  0.49981100  0.14414000  0.35567101  1
  Cu  Cu2  1  0.50018904  0.85586001  0.64432904  1
  S  S3  1  0.21153105  0.85586001  0.35567104  1
  Cu  Cu4  1  0.78846899  0.14414000  0.64432901  1
  Cu  Cu5  1  0.14414004  0.64432901  0.78846902  1
  Cu  Cu6  1  0.85586000  0.35567100  0.21153103  1
  S  S7  1  0.85586002  0.64432901  0.50018904  1
  S  S8  1  0.14414002  0.35567100  0.49981101  1
  Cu  Cu9  1  0.35567101  0.21153100  0.85585999  1
  Cu  Cu10  1  0.64432904  0.78846901  0.14414005  1
  S  S11  1  0.64432902  0.50018900  0.85586002  1
  S  S12  1  0.35567102  0.49981100  0.14414003  1
  S  S13  1  0.50000005  1.00000001  1.00000004  1
  Cu  Cu14  1  0.00000000  0.00000000  0.49999998  1
  S  S15  1  1.00000001  0.50000000  0.00000005  1
  Cu  Cu16  1  0.50000002  0.50000000  0.50000002  1
