# generated using pymatgen
data_AgTe
_symmetry_space_group_name_H-M   'P 1'
_cell_length_a   4.19769001
_cell_length_b   4.30322695
_cell_length_c   6.48000479
_cell_angle_alpha   90.00000000
_cell_angle_beta   108.89868164
_cell_angle_gamma   90.00000000
_symmetry_Int_Tables_number   1
_chemical_formula_structural   AgTe
_chemical_formula_sum   'Ag2 Te2'
_cell_volume   110.74233701
_cell_formula_units_Z   2
loop_
 _symmetry_equiv_pos_site_id
 _symmetry_equiv_pos_as_xyz
  1  'x, y, z'
loop_
 _atom_site_type_symbol
 _atom_site_label
 _atom_site_symmetry_multiplicity
 _atom_site_fract_x
 _atom_site_fract_y
 _atom_site_fract_z
 _atom_site_occupancy
  Te  Te0  1  0.86709001  0.75000001  0.73418002  1
  Te  Te1  1  0.13291000  0.25000000  0.26582000  1
  Ag  Ag2  1  0.64577901  0.75000001  0.29155802  1
  Ag  Ag3  1  0.35422101  0.25000000  0.70844201  1
