# generated using pymatgen
data_Ce4US11
_symmetry_space_group_name_H-M   'P 1'
_cell_length_a   3.85894704
_cell_length_b   7.79802895
_cell_length_c   11.37985134
_cell_angle_alpha   90.00000000
_cell_angle_beta   90.00000000
_cell_angle_gamma   90.00000000
_symmetry_Int_Tables_number   1
_chemical_formula_structural   Ce4US11
_chemical_formula_sum   'Ce4 U1 S11'
_cell_volume   342.44454299
_cell_formula_units_Z   1
loop_
 _symmetry_equiv_pos_site_id
 _symmetry_equiv_pos_as_xyz
  1  'x, y, z'
loop_
 _atom_site_type_symbol
 _atom_site_label
 _atom_site_symmetry_multiplicity
 _atom_site_fract_x
 _atom_site_fract_y
 _atom_site_fract_z
 _atom_site_occupancy
  Ce  Ce0  1  0.49999999  0.53611700  0.82742998  1
  Ce  Ce1  1  0.49999999  0.96388301  0.32742999  1
  Ce  Ce2  1  0.49999999  0.46388300  0.17256999  1
  Ce  Ce3  1  0.49999999  0.03611700  0.67256998  1
  S  S4  1  0.00000000  0.00000000  0.00000000  1
  U  U5  1  0.00000000  0.50000000  0.49999999  1
  S  S6  1  0.00000000  0.82857301  0.80350498  1
  S  S7  1  0.00000000  0.00000000  0.49999999  1
  S  S8  1  0.00000000  0.17142700  0.19649499  1
  S  S9  1  0.00000000  0.32857300  0.69649498  1
  S  S10  1  0.49999999  0.82625801  0.09320300  1
  S  S11  1  0.49999999  0.32625800  0.40679699  1
  S  S12  1  0.00000000  0.67142700  0.30350499  1
  S  S13  1  0.49999999  0.17374200  0.90679697  1
  S  S14  1  0.00000000  0.50000000  0.00000000  1
  S  S15  1  0.49999999  0.67374200  0.59320298  1
