# generated using pymatgen
data_CaCrO3
_symmetry_space_group_name_H-M   'P 1'
_cell_length_a   5.50227785
_cell_length_b   5.92061520
_cell_length_c   7.66844702
_cell_angle_alpha   90.00000000
_cell_angle_beta   90.00000000
_cell_angle_gamma   90.00000000
_symmetry_Int_Tables_number   1
_chemical_formula_structural   CaCrO3
_chemical_formula_sum   'Ca4 Cr4 O12'
_cell_volume   249.81400052
_cell_formula_units_Z   4
loop_
 _symmetry_equiv_pos_site_id
 _symmetry_equiv_pos_as_xyz
  1  'x, y, z'
loop_
 _atom_site_type_symbol
 _atom_site_label
 _atom_site_symmetry_multiplicity
 _atom_site_fract_x
 _atom_site_fract_y
 _atom_site_fract_z
 _atom_site_occupancy
  Ca  Ca0  1  0.51542301  0.42787299  0.25000000  1
  Ca  Ca1  1  0.98457703  0.92787297  0.25000000  1
  Ca  Ca2  1  0.48457701  0.57212698  0.75000000  1
  Ca  Ca3  1  0.01542300  0.07212700  0.75000000  1
  Cr  Cr4  1  0.00000000  0.49999998  0.00000000  1
  Cr  Cr5  1  0.50000001  0.00000000  0.50000000  1
  Cr  Cr6  1  0.00000000  0.49999998  0.50000000  1
  Cr  Cr7  1  0.50000001  0.00000000  -0.00000000  1
  O  O8  1  0.40200001  0.02722200  0.25000000  1
  O  O9  1  0.09800000  0.52722198  0.25000000  1
  O  O10  1  0.59800002  0.97277797  0.75000000  1
  O  O11  1  0.90200002  0.47277798  0.75000000  1
  O  O12  1  0.78683102  0.18359899  0.04869700  1
  O  O13  1  0.71316902  0.68359898  0.45130300  1
  O  O14  1  0.21316901  0.81640097  0.54869700  1
  O  O15  1  0.28683101  0.31640099  0.95130300  1
  O  O16  1  0.21316901  0.81640097  0.95130300  1
  O  O17  1  0.28683101  0.31640099  0.54869700  1
  O  O18  1  0.78683102  0.18359899  0.45130300  1
  O  O19  1  0.71316902  0.68359898  0.04869700  1
