# generated using pymatgen
data_LiInPt2
_symmetry_space_group_name_H-M   'P 1'
_cell_length_a   3.82116318
_cell_length_b   3.82116318
_cell_length_c   6.63453054
_cell_angle_alpha   73.26320648
_cell_angle_beta   73.26320648
_cell_angle_gamma   59.99998093
_symmetry_Int_Tables_number   1
_chemical_formula_structural   LiInPt2
_chemical_formula_sum   'Li1 In1 Pt2'
_cell_volume   79.12013517
_cell_formula_units_Z   1
loop_
 _symmetry_equiv_pos_site_id
 _symmetry_equiv_pos_as_xyz
  1  'x, y, z'
loop_
 _atom_site_type_symbol
 _atom_site_label
 _atom_site_symmetry_multiplicity
 _atom_site_fract_x
 _atom_site_fract_y
 _atom_site_fract_z
 _atom_site_occupancy
  In  In0  1  0.00000000  0.00000000  0.00000000  1
  Li  Li1  1  0.49999999  0.49999999  0.50000000  1
  Pt  Pt2  1  0.24449899  0.24449900  0.26650300  1
  Pt  Pt3  1  0.75550098  0.75550098  0.73349700  1
