# generated using pymatgen
data_GaAg3GeP2S9
_symmetry_space_group_name_H-M   'P 1'
_cell_length_a   5.79207611
_cell_length_b   5.82969236
_cell_length_c   9.25935936
_cell_angle_alpha   98.40807343
_cell_angle_beta   108.22616577
_cell_angle_gamma   90.00000000
_symmetry_Int_Tables_number   1
_chemical_formula_structural   GaAg3GeP2S9
_chemical_formula_sum   'Ga1 Ag3 Ge1 P2 S9'
_cell_volume   293.42572834
_cell_formula_units_Z   1
loop_
 _symmetry_equiv_pos_site_id
 _symmetry_equiv_pos_as_xyz
  1  'x, y, z'
loop_
 _atom_site_type_symbol
 _atom_site_label
 _atom_site_symmetry_multiplicity
 _atom_site_fract_x
 _atom_site_fract_y
 _atom_site_fract_z
 _atom_site_occupancy
  P  P0  1  0.05151699  0.72125798  0.68824699  1
  S  S1  1  0.70696098  0.74999998  -0.00000002  1
  P  P2  1  0.63672998  0.22125799  0.68824700  1
  S  S3  1  0.29303899  0.24999999  -0.00000001  1
  S  S4  1  0.36326998  0.77874198  0.31175298  1
  S  S5  1  0.94848298  0.27874199  0.31175299  1
  S  S6  1  0.36165898  0.89795298  0.85765498  1
  S  S7  1  0.95303698  0.44361399  0.79984799  1
  Ag  Ag8  1  0.15318900  0.05638600  0.20015200  1
  S  S9  1  0.49599599  0.39795299  0.85765499  1
  Ga  Ga10  1  0.50400398  0.60204699  0.14234499  1
  S  S11  1  0.84681097  0.94361398  0.79984798  1
  Ag  Ag12  1  0.04696299  0.55638599  0.20015199  1
  Ge  Ge13  1  0.63834099  0.10204700  0.14234500  1
  Ag  Ag14  1  0.49999998  0.49999999  0.49999999  1
  S  S15  1  -0.00000000  0.00000000  0.50000000  1
