# generated using pymatgen
data_Nb3S5
_symmetry_space_group_name_H-M   'P 1'
_cell_length_a   4.77937603
_cell_length_b   5.07763290
_cell_length_c   15.66970444
_cell_angle_alpha   90.00000000
_cell_angle_beta   98.77204895
_cell_angle_gamma   90.00000000
_symmetry_Int_Tables_number   1
_chemical_formula_structural   Nb3S5
_chemical_formula_sum   'Nb6 S10'
_cell_volume   375.82301615
_cell_formula_units_Z   2
loop_
 _symmetry_equiv_pos_site_id
 _symmetry_equiv_pos_as_xyz
  1  'x, y, z'
loop_
 _atom_site_type_symbol
 _atom_site_label
 _atom_site_symmetry_multiplicity
 _atom_site_fract_x
 _atom_site_fract_y
 _atom_site_fract_z
 _atom_site_occupancy
  S  S0  1  0.65160100  0.75000001  0.30320200  1
  S  S1  1  0.34839900  0.25000000  0.69679799  1
  Nb  Nb2  1  0.77450300  0.75000001  0.54900599  1
  Nb  Nb3  1  0.06765600  0.25000000  0.13531200  1
  Nb  Nb4  1  0.53080400  0.75000001  0.06160800  1
  Nb  Nb5  1  0.22549700  0.25000000  0.45099399  1
  S  S6  1  0.46919600  0.25000000  0.93839198  1
  S  S7  1  0.93234400  0.75000001  0.86468799  1
  S  S8  1  0.85198100  0.75000001  0.70396199  1
  S  S9  1  0.75192300  0.25000000  0.50384599  1
  S  S10  1  0.54634500  0.25000000  0.09269000  1
  Nb  Nb11  1  0.45365500  0.75000001  0.90730998  1
  S  S12  1  0.05464000  0.75000001  0.10928000  1
  S  S13  1  0.14801900  0.25000000  0.29603799  1
  S  S14  1  0.24807700  0.75000001  0.49615399  1
  Nb  Nb15  1  0.94536000  0.25000000  0.89071999  1
