# generated using pymatgen
data_Mg4CrCS14
_symmetry_space_group_name_H-M   'P 1'
_cell_length_a   6.68960619
_cell_length_b   6.68960619
_cell_length_c   6.68960619
_cell_angle_alpha   90.00000000
_cell_angle_beta   90.00000000
_cell_angle_gamma   90.00000000
_symmetry_Int_Tables_number   1
_chemical_formula_structural   Mg4CrCS14
_chemical_formula_sum   'Mg4 Cr1 C1 S14'
_cell_volume   299.36543588
_cell_formula_units_Z   1
loop_
 _symmetry_equiv_pos_site_id
 _symmetry_equiv_pos_as_xyz
  1  'x, y, z'
loop_
 _atom_site_type_symbol
 _atom_site_label
 _atom_site_symmetry_multiplicity
 _atom_site_fract_x
 _atom_site_fract_y
 _atom_site_fract_z
 _atom_site_occupancy
  Cr  Cr0  1  0.06422900  0.06422900  0.06422900  1
  Mg  Mg1  1  0.43577099  0.93577097  0.56422898  1
  Mg  Mg2  1  0.56422898  0.43577099  0.93577097  1
  Mg  Mg3  1  0.93577097  0.56422898  0.43577099  1
  C  C4  1  0.42174499  0.42174499  0.42174499  1
  Mg  Mg5  1  0.07825500  0.57825498  0.92174497  1
  S  S6  1  0.92174497  0.07825500  0.57825498  1
  S  S7  1  0.57825498  0.92174497  0.07825500  1
  S  S8  1  0.19285799  0.40387299  0.00798400  1
  S  S9  1  0.69285798  0.09612700  0.99201597  1
  S  S10  1  0.80714198  0.90387297  0.49201599  1
  S  S11  1  0.09612700  0.99201597  0.69285798  1
  S  S12  1  0.49201599  0.80714198  0.90387297  1
  S  S13  1  0.99201597  0.69285798  0.09612700  1
  S  S14  1  0.40387299  0.00798400  0.19285799  1
  S  S15  1  0.00798400  0.19285799  0.40387299  1
  S  S16  1  0.30714199  0.59612698  0.50798399  1
  S  S17  1  0.50798399  0.30714199  0.59612698  1
  S  S18  1  0.59612698  0.50798399  0.30714199  1
  S  S19  1  0.90387297  0.49201599  0.80714198  1
