# generated using pymatgen
data_Ce3Pd5Pb
_symmetry_space_group_name_H-M   'P 1'
_cell_length_a   3.96032310
_cell_length_b   7.78052378
_cell_length_c   7.78052378
_cell_angle_alpha   120.00000000
_cell_angle_beta   90.00000000
_cell_angle_gamma   90.00000000
_symmetry_Int_Tables_number   1
_chemical_formula_structural   Ce3Pd5Pb
_chemical_formula_sum   'Ce3 Pd5 Pb1'
_cell_volume   207.62465252
_cell_formula_units_Z   1
loop_
 _symmetry_equiv_pos_site_id
 _symmetry_equiv_pos_as_xyz
  1  'x, y, z'
loop_
 _atom_site_type_symbol
 _atom_site_label
 _atom_site_symmetry_multiplicity
 _atom_site_fract_x
 _atom_site_fract_y
 _atom_site_fract_z
 _atom_site_occupancy
  Ce  Ce0  1  0.49999999  0.59858201  -0.00000002  1
  Ce  Ce1  1  0.49999999  0.40141800  0.40141798  1
  Ce  Ce2  1  0.49999999  1.00000001  0.59858196  1
  Pd  Pd3  1  -0.00000000  0.26303600  0.99999997  1
  Pd  Pd4  1  0.99999998  0.73696401  0.73696396  1
  Pb  Pb5  1  -0.00000000  1.00000001  0.26303596  1
  Pd  Pd6  1  -0.00000000  0.33333334  0.66666664  1
  Pd  Pd7  1  -0.00000000  0.66666667  0.33333330  1
  Pd  Pd8  1  0.49999999  0.00000000  -0.00000000  1
