# generated using pymatgen
data_ZrAl16Mo
_symmetry_space_group_name_H-M   'P 1'
_cell_length_a   5.32029390
_cell_length_b   8.56637955
_cell_length_c   8.56675434
_cell_angle_alpha   119.99855804
_cell_angle_beta   90.00000000
_cell_angle_gamma   90.00000000
_symmetry_Int_Tables_number   1
_chemical_formula_structural   ZrAl16Mo
_chemical_formula_sum   'Zr1 Al16 Mo1'
_cell_volume   338.13193670
_cell_formula_units_Z   1
loop_
 _symmetry_equiv_pos_site_id
 _symmetry_equiv_pos_as_xyz
  1  'x, y, z'
loop_
 _atom_site_type_symbol
 _atom_site_label
 _atom_site_symmetry_multiplicity
 _atom_site_fract_x
 _atom_site_fract_y
 _atom_site_fract_z
 _atom_site_occupancy
  Al  Al0  1  0.75000001  0.33338303  0.66671636  1
  Al  Al1  1  0.25000000  0.66666673  0.33328372  1
  Al  Al2  1  0.50000001  0.00000000  -0.00000000  1
  Al  Al3  1  0.00000000  0.00000000  0.00000000  1
  Al  Al4  1  0.50000001  0.00000000  0.50000000  1
  Al  Al5  1  0.50000001  0.50000005  1.00000004  1
  Mo  Mo6  1  0.50000001  0.50000005  0.50000004  1
  Al  Al7  1  1.00000002  0.00000000  0.50000000  1
  Zr  Zr8  1  -0.00000000  0.50000005  0.00000004  1
  Al  Al9  1  -0.00000000  0.50000005  0.50000004  1
  Al  Al10  1  0.75000001  0.68874906  0.84438406  1
  Al  Al11  1  0.75000001  0.15559601  0.31119201  1
  Al  Al12  1  0.75000001  0.15563501  0.84438402  1
  Al  Al13  1  0.25000000  0.31125103  0.15561602  1
  Al  Al14  1  0.25000000  0.84440408  0.68880807  1
  Al  Al15  1  0.25000000  0.84436508  0.15561606  1
  Al  Al16  1  0.25000000  0.33329903  0.66663236  1
  Al  Al17  1  0.75000001  0.66666673  0.33336772  1
