# generated using pymatgen
data_ZrSc7(Si4Ir)2
_symmetry_space_group_name_H-M   'P 1'
_cell_length_a   5.63445997
_cell_length_b   7.95418978
_cell_length_c   7.95418930
_cell_angle_alpha   120.00000000
_cell_angle_beta   90.00000000
_cell_angle_gamma   90.00000000
_symmetry_Int_Tables_number   1
_chemical_formula_structural   ZrSc7(Si4Ir)2
_chemical_formula_sum   'Zr1 Sc7 Si8 Ir2'
_cell_volume   308.72713358
_cell_formula_units_Z   1
loop_
 _symmetry_equiv_pos_site_id
 _symmetry_equiv_pos_as_xyz
  1  'x, y, z'
loop_
 _atom_site_type_symbol
 _atom_site_label
 _atom_site_symmetry_multiplicity
 _atom_site_fract_x
 _atom_site_fract_y
 _atom_site_fract_z
 _atom_site_occupancy
  Zr  Zr0  1  0.25000000  0.76590800  0.76590798  1
  Si  Si1  1  0.75000000  0.23409200  0.23409199  1
  Si  Si2  1  0.25000000  0.00000000  0.23409200  1
  Sc  Sc3  1  0.75000000  0.00000000  0.76590802  1
  Ir  Ir4  1  0.25000000  0.23409200  -0.00000001  1
  Sc  Sc5  1  0.75000000  0.76590800  -0.00000003  1
  Sc  Sc6  1  0.50000000  0.66666667  0.33333331  1
  Sc  Sc7  1  0.50000000  0.33333334  0.66666667  1
  Ir  Ir8  1  1.00000000  0.33333334  0.66666667  1
  Sc  Sc9  1  -0.00000000  0.66666667  0.33333331  1
  Si  Si10  1  0.25000000  0.40384100  0.40384099  1
  Si  Si11  1  0.75000000  0.59615900  0.59615899  1
  Si  Si12  1  0.25000000  0.00000000  0.59615901  1
  Sc  Sc13  1  0.75000000  0.00000000  0.40384101  1
  Si  Si14  1  0.25000000  0.59615900  -0.00000003  1
  Sc  Sc15  1  0.75000000  0.40384100  -0.00000002  1
  Si  Si16  1  0.50000000  0.00000000  -0.00000000  1
  Si  Si17  1  0.00000000  0.00000000  0.00000000  1
