# generated using pymatgen
data_Sc2SI5
_symmetry_space_group_name_H-M   'P 1'
_cell_length_a   6.67237997
_cell_length_b   6.97787714
_cell_length_c   8.46858215
_cell_angle_alpha   90.00000000
_cell_angle_beta   113.20044708
_cell_angle_gamma   90.00000000
_symmetry_Int_Tables_number   1
_chemical_formula_structural   Sc2SI5
_chemical_formula_sum   'Sc2 S1 I5'
_cell_volume   362.40385217
_cell_formula_units_Z   1
loop_
 _symmetry_equiv_pos_site_id
 _symmetry_equiv_pos_as_xyz
  1  'x, y, z'
loop_
 _atom_site_type_symbol
 _atom_site_label
 _atom_site_symmetry_multiplicity
 _atom_site_fract_x
 _atom_site_fract_y
 _atom_site_fract_z
 _atom_site_occupancy
  I  I0  1  0.91350601  0.80632498  0.82701200  1
  I  I1  1  0.08649400  0.19367500  0.17298800  1
  I  I2  1  0.41350600  0.19367500  0.82701199  1
  S  S3  1  0.58649401  0.80632498  0.17298800  1
  I  I4  1  0.75000001  0.31206699  0.50000000  1
  I  I5  1  0.25000000  0.68793299  0.49999999  1
  Sc  Sc6  1  0.25000000  0.99999998  0.00000000  1
  Sc  Sc7  1  0.75000001  0.99999998  0.00000001  1
