# generated using pymatgen
data_Ac6TlIn2
_symmetry_space_group_name_H-M   'P 1'
_cell_length_a   7.19531345
_cell_length_b   7.19531345
_cell_length_c   7.19531345
_cell_angle_alpha   60.00000000
_cell_angle_beta   60.00000000
_cell_angle_gamma   60.00000000
_symmetry_Int_Tables_number   1
_chemical_formula_structural   Ac6TlIn2
_chemical_formula_sum   'Ac6 Tl1 In2'
_cell_volume   263.41115129
_cell_formula_units_Z   1
loop_
 _symmetry_equiv_pos_site_id
 _symmetry_equiv_pos_as_xyz
  1  'x, y, z'
loop_
 _atom_site_type_symbol
 _atom_site_label
 _atom_site_symmetry_multiplicity
 _atom_site_fract_x
 _atom_site_fract_y
 _atom_site_fract_z
 _atom_site_occupancy
  Tl  Tl0  1  0.75000001  0.75000001  0.75000001  1
  In  In1  1  0.25000000  0.25000000  0.25000000  1
  In  In2  1  0.00000000  0.00000000  0.00000000  1
  Ac  Ac3  1  0.22864700  0.77135301  0.22864700  1
  Ac  Ac4  1  0.77135301  0.22864700  0.77135301  1
  Ac  Ac5  1  0.22864700  0.77135301  0.77135301  1
  Ac  Ac6  1  0.77135301  0.22864700  0.22864700  1
  Ac  Ac7  1  0.22864700  0.22864700  0.77135301  1
  Ac  Ac8  1  0.77135301  0.77135301  0.22864700  1
