# generated using pymatgen
data_Mn(ReB)4
_symmetry_space_group_name_H-M   'P 1'
_cell_length_a   3.30166197
_cell_length_b   5.73047733
_cell_length_c   7.16088057
_cell_angle_alpha   75.54864502
_cell_angle_beta   76.67144775
_cell_angle_gamma   73.25701141
_symmetry_Int_Tables_number   1
_chemical_formula_structural   Mn(ReB)4
_chemical_formula_sum   'Mn1 Re4 B4'
_cell_volume   123.78370572
_cell_formula_units_Z   1
loop_
 _symmetry_equiv_pos_site_id
 _symmetry_equiv_pos_as_xyz
  1  'x, y, z'
loop_
 _atom_site_type_symbol
 _atom_site_label
 _atom_site_symmetry_multiplicity
 _atom_site_fract_x
 _atom_site_fract_y
 _atom_site_fract_z
 _atom_site_occupancy
  Mn  Mn0  1  0.20689912  0.91192600  0.67427596  1
  Re  Re1  1  0.36887506  0.36841400  0.89383598  1
  Re  Re2  1  0.79310103  0.08807400  0.32572398  1
  Re  Re3  1  0.63112510  0.63158600  0.10616396  1
  Re  Re4  1  0.00000007  0.50000000  0.49999998  1
  B  B5  1  0.80308310  0.62523200  0.76860196  1
  B  B6  1  0.19691705  0.37476800  0.23139798  1
  B  B7  1  0.43176310  0.73220300  0.40427096  1
  B  B8  1  0.56823705  0.26779700  0.59572898  1
