# generated using pymatgen
data_GaCuBr6
_symmetry_space_group_name_H-M   'P 1'
_cell_length_a   6.47685432
_cell_length_b   6.47685432
_cell_length_c   6.97408247
_cell_angle_alpha   98.58374023
_cell_angle_beta   98.58374023
_cell_angle_gamma   119.94898224
_symmetry_Int_Tables_number   1
_chemical_formula_structural   GaCuBr6
_chemical_formula_sum   'Ga1 Cu1 Br6'
_cell_volume   241.95532633
_cell_formula_units_Z   1
loop_
 _symmetry_equiv_pos_site_id
 _symmetry_equiv_pos_as_xyz
  1  'x, y, z'
loop_
 _atom_site_type_symbol
 _atom_site_label
 _atom_site_symmetry_multiplicity
 _atom_site_fract_x
 _atom_site_fract_y
 _atom_site_fract_z
 _atom_site_occupancy
  Br  Br0  1  0.83328398  0.16671599  -0.00000001  1
  Cu  Cu1  1  0.16671597  0.83328397  -0.00000002  1
  Br  Br2  1  0.07858798  0.43287099  0.79106697  1
  Br  Br3  1  0.56712896  0.92141197  0.20893297  1
  Br  Br4  1  0.21293799  0.21293799  0.20900999  1
  Br  Br5  1  0.78706196  0.78706197  0.79098995  1
  Br  Br6  1  0.43287099  0.07858800  0.79106697  1
  Ga  Ga7  1  0.92141197  0.56712898  0.20893297  1
