# generated using pymatgen
data_Ho3TlTe
_symmetry_space_group_name_H-M   'P 1'
_cell_length_a   4.49789286
_cell_length_b   4.49789286
_cell_length_c   11.21547794
_cell_angle_alpha   78.43253326
_cell_angle_beta   78.43253326
_cell_angle_gamma   59.99998856
_symmetry_Int_Tables_number   1
_chemical_formula_structural   Ho3TlTe
_chemical_formula_sum   'Ho3 Tl1 Te1'
_cell_volume   191.16184388
_cell_formula_units_Z   1
loop_
 _symmetry_equiv_pos_site_id
 _symmetry_equiv_pos_as_xyz
  1  'x, y, z'
loop_
 _atom_site_type_symbol
 _atom_site_label
 _atom_site_symmetry_multiplicity
 _atom_site_fract_x
 _atom_site_fract_y
 _atom_site_fract_z
 _atom_site_occupancy
  Tl  Tl0  1  0.61499196  0.61499199  0.15502398  1
  Ho  Ho1  1  0.38500798  0.38500799  0.84497601  1
  Te  Te2  1  0.00000000  0.00000000  0.00000000  1
  Ho  Ho3  1  0.78144195  0.78144198  0.65567399  1
  Ho  Ho4  1  0.21855799  0.21855799  0.34432600  1
