# generated using pymatgen
data_Li3TiS5
_symmetry_space_group_name_H-M   'P 1'
_cell_length_a   3.65374494
_cell_length_b   6.32059145
_cell_length_c   6.42506647
_cell_angle_alpha   119.46355438
_cell_angle_beta   90.00000000
_cell_angle_gamma   90.00000000
_symmetry_Int_Tables_number   1
_chemical_formula_structural   Li3TiS5
_chemical_formula_sum   'Li3 Ti1 S5'
_cell_volume   129.18929467
_cell_formula_units_Z   1
loop_
 _symmetry_equiv_pos_site_id
 _symmetry_equiv_pos_as_xyz
  1  'x, y, z'
loop_
 _atom_site_type_symbol
 _atom_site_label
 _atom_site_symmetry_multiplicity
 _atom_site_fract_x
 _atom_site_fract_y
 _atom_site_fract_z
 _atom_site_occupancy
  Ti  Ti0  1  0.50000001  0.58705097  -0.00000002  1
  Li  Li1  1  0.50000001  0.40648598  0.40414799  1
  Li  Li2  1  0.50000001  0.00233800  0.59585201  1
  S  S3  1  1.00000002  0.25992599  1.00000000  1
  S  S4  1  -0.00000000  0.32878499  0.67691599  1
  S  S5  1  -0.00000000  0.65186897  0.32308398  1
  S  S6  1  0.50000001  0.01939800  -0.00000000  1
  S  S7  1  1.00000002  0.74118097  0.73831598  1
  Li  Li8  1  1.00000002  0.00286500  0.26168400  1
