# generated using pymatgen
data_Li6Cu2H4N3O
_symmetry_space_group_name_H-M   'P 1'
_cell_length_a   4.90985584
_cell_length_b   4.90985584
_cell_length_c   5.35010481
_cell_angle_alpha   90.00000000
_cell_angle_beta   90.00000000
_cell_angle_gamma   90.00000000
_symmetry_Int_Tables_number   1
_chemical_formula_structural   Li6Cu2H4N3O
_chemical_formula_sum   'Li6 Cu2 H4 N3 O1'
_cell_volume   128.97328811
_cell_formula_units_Z   1
loop_
 _symmetry_equiv_pos_site_id
 _symmetry_equiv_pos_as_xyz
  1  'x, y, z'
loop_
 _atom_site_type_symbol
 _atom_site_label
 _atom_site_symmetry_multiplicity
 _atom_site_fract_x
 _atom_site_fract_y
 _atom_site_fract_z
 _atom_site_occupancy
  Li  Li0  1  0.00000000  0.00000000  0.50192502  1
  Li  Li1  1  0.00000000  0.00000000  0.00192500  1
  Cu  Cu2  1  0.50000002  0.50000002  0.50870102  1
  Cu  Cu3  1  0.50000002  0.50000002  0.00870100  1
  Li  Li4  1  0.50000002  0.00000000  0.47118102  1
  Li  Li5  1  0.00000000  0.50000002  0.97118103  1
  Li  Li6  1  0.50000002  0.00000000  0.04580300  1
  Li  Li7  1  0.00000000  0.50000002  0.54580302  1
  O  O8  1  0.22800001  0.46064501  0.25666101  1
  N  N9  1  0.77200002  0.53935502  0.25666101  1
  N  N10  1  0.46064501  0.77200002  0.75666103  1
  N  N11  1  0.53935502  0.22800001  0.75666103  1
  H  H12  1  0.25018801  0.74457902  0.75763503  1
  H  H13  1  0.74981202  0.25542101  0.75763503  1
  H  H14  1  0.74457902  0.74981202  0.25763501  1
  H  H15  1  0.25542101  0.25018801  0.25763501  1
