# generated using pymatgen
data_La2Te7
_symmetry_space_group_name_H-M   'P 1'
_cell_length_a   6.41306829
_cell_length_b   6.41306829
_cell_length_c   6.41306829
_cell_angle_alpha   60.00000000
_cell_angle_beta   60.00000000
_cell_angle_gamma   60.00000000
_symmetry_Int_Tables_number   1
_chemical_formula_structural   La2Te7
_chemical_formula_sum   'La2 Te7'
_cell_volume   186.50161493
_cell_formula_units_Z   1
loop_
 _symmetry_equiv_pos_site_id
 _symmetry_equiv_pos_as_xyz
  1  'x, y, z'
loop_
 _atom_site_type_symbol
 _atom_site_label
 _atom_site_symmetry_multiplicity
 _atom_site_fract_x
 _atom_site_fract_y
 _atom_site_fract_z
 _atom_site_occupancy
  La  La0  1  0.25000000  0.25000000  0.25000000  1
  La  La1  1  0.74999999  0.74999999  0.74999999  1
  Te  Te2  1  0.81687599  0.81687599  0.18312400  1
  Te  Te3  1  0.18312400  0.81687599  0.81687599  1
  Te  Te4  1  0.18312400  0.81687599  0.18312400  1
  Te  Te5  1  0.18312400  0.18312400  0.81687599  1
  Te  Te6  1  0.81687599  0.18312400  0.18312400  1
  Te  Te7  1  0.81687599  0.18312400  0.81687599  1
  Te  Te8  1  0.00000000  0.00000000  0.00000000  1
