# generated using pymatgen
data_MgSi5
_symmetry_space_group_name_H-M   'P 1'
_cell_length_a   6.12191486
_cell_length_b   6.24050331
_cell_length_c   6.26840019
_cell_angle_alpha   114.38629913
_cell_angle_beta   90.00000000
_cell_angle_gamma   90.00000000
_symmetry_Int_Tables_number   1
_chemical_formula_structural   MgSi5
_chemical_formula_sum   'Mg2 Si10'
_cell_volume   218.11134575
_cell_formula_units_Z   2
loop_
 _symmetry_equiv_pos_site_id
 _symmetry_equiv_pos_as_xyz
  1  'x, y, z'
loop_
 _atom_site_type_symbol
 _atom_site_label
 _atom_site_symmetry_multiplicity
 _atom_site_fract_x
 _atom_site_fract_y
 _atom_site_fract_z
 _atom_site_occupancy
  Si  Si0  1  0.50857201  0.71567499  0.20695599  1
  Si  Si1  1  0.00857200  0.28432500  0.29304400  1
  Si  Si2  1  0.49142801  0.28432500  0.79304402  1
  Si  Si3  1  0.99142802  0.71567499  0.70695600  1
  Si  Si4  1  0.12992200  0.84715499  0.13216998  1
  Si  Si5  1  0.62992201  0.15284500  0.36783001  1
  Mg  Mg6  1  0.87007802  0.15284500  0.86783002  1
  Mg  Mg7  1  0.37007801  0.84715499  0.63217000  1
  Si  Si8  1  0.85049502  0.64296399  0.33788999  1
  Si  Si9  1  0.35049501  0.35703600  0.16211000  1
  Si  Si10  1  0.14950500  0.35703600  0.66211001  1
  Si  Si11  1  0.64950501  0.64296399  0.83789001  1
