# generated using pymatgen
data_EuIn3
_symmetry_space_group_name_H-M   'P 1'
_cell_length_a   4.84789610
_cell_length_b   6.75270605
_cell_length_c   6.75270605
_cell_angle_alpha   90.00000000
_cell_angle_beta   90.00000000
_cell_angle_gamma   90.00000000
_symmetry_Int_Tables_number   1
_chemical_formula_structural   EuIn3
_chemical_formula_sum   'Eu2 In6'
_cell_volume   221.05940334
_cell_formula_units_Z   2
loop_
 _symmetry_equiv_pos_site_id
 _symmetry_equiv_pos_as_xyz
  1  'x, y, z'
loop_
 _atom_site_type_symbol
 _atom_site_label
 _atom_site_symmetry_multiplicity
 _atom_site_fract_x
 _atom_site_fract_y
 _atom_site_fract_z
 _atom_site_occupancy
  In  In0  1  0.49999999  0.50000000  0.50000000  1
  In  In1  1  0.49999999  0.00000000  0.00000000  1
  In  In2  1  0.49999999  0.99999999  0.50000000  1
  In  In3  1  0.49999999  0.50000000  0.00000000  1
  In  In4  1  0.00000000  0.76312899  0.23687100  1
  In  In5  1  0.00000000  0.23687100  0.76312899  1
  Eu  Eu6  1  0.00000000  0.76312899  0.76312899  1
  Eu  Eu7  1  0.00000000  0.23687100  0.23687100  1
