# generated using pymatgen
data_Cr5S9
_symmetry_space_group_name_H-M   'P 1'
_cell_length_a   6.85332012
_cell_length_b   6.98942137
_cell_length_c   6.98942137
_cell_angle_alpha   60.86149597
_cell_angle_beta   60.64208221
_cell_angle_gamma   60.64208221
_symmetry_Int_Tables_number   1
_chemical_formula_structural   Cr5S9
_chemical_formula_sum   'Cr5 S9'
_cell_volume   240.55715931
_cell_formula_units_Z   1
loop_
 _symmetry_equiv_pos_site_id
 _symmetry_equiv_pos_as_xyz
  1  'x, y, z'
loop_
 _atom_site_type_symbol
 _atom_site_label
 _atom_site_symmetry_multiplicity
 _atom_site_fract_x
 _atom_site_fract_y
 _atom_site_fract_z
 _atom_site_occupancy
  Cr  Cr0  1  0.49999999  0.50000001  0.00000000  1
  Cr  Cr1  1  0.00000000  0.50000001  -0.00000000  1
  Cr  Cr2  1  0.99999998  0.50000001  0.50000002  1
  S  S3  1  0.00000000  0.00000000  0.00000000  1
  Cr  Cr4  1  0.37303200  0.87696802  0.37696801  1
  Cr  Cr5  1  0.62696799  0.12303200  0.62303202  1
  S  S6  1  0.24239000  0.74511302  0.77010702  1
  S  S7  1  0.24239000  0.27010701  0.24511301  1
  S  S8  1  0.77504099  0.74058902  0.24058901  1
  S  S9  1  0.24378100  0.74058902  0.24058901  1
  S  S10  1  0.75760999  0.25488701  0.22989301  1
  S  S11  1  0.75760999  0.72989302  0.75488703  1
  S  S12  1  0.22495900  0.25941101  0.75941102  1
  S  S13  1  0.75621899  0.25941101  0.75941103  1
