# generated using pymatgen
data_NiF3
_symmetry_space_group_name_H-M   'P 1'
_cell_length_a   5.30689669
_cell_length_b   5.30689669
_cell_length_c   5.58304358
_cell_angle_alpha   61.62311554
_cell_angle_beta   61.62311554
_cell_angle_gamma   59.99999237
_symmetry_Int_Tables_number   1
_chemical_formula_structural   NiF3
_chemical_formula_sum   'Ni2 F6'
_cell_volume   113.83275691
_cell_formula_units_Z   2
loop_
 _symmetry_equiv_pos_site_id
 _symmetry_equiv_pos_as_xyz
  1  'x, y, z'
loop_
 _atom_site_type_symbol
 _atom_site_label
 _atom_site_symmetry_multiplicity
 _atom_site_fract_x
 _atom_site_fract_y
 _atom_site_fract_z
 _atom_site_occupancy
  Ni  Ni0  1  0.49999998  0.49999999  0.49999997  1
  Ni  Ni1  1  0.00000000  0.00000000  0.00000000  1
  F  F2  1  0.24950198  0.86516998  0.24794197  1
  F  F3  1  0.86516997  0.63738599  0.24794196  1
  F  F4  1  0.36261398  0.75049799  0.75205797  1
  F  F5  1  0.13482999  0.36261399  0.75205798  1
  F  F6  1  0.75049798  0.13483000  0.75205797  1
  F  F7  1  0.63738598  0.24950200  0.24794197  1
