# generated using pymatgen
data_LiTm4ScCr2O12
_symmetry_space_group_name_H-M   'P 1'
_cell_length_a   5.24718285
_cell_length_b   5.45013714
_cell_length_c   7.72987318
_cell_angle_alpha   89.99989319
_cell_angle_beta   90.00006866
_cell_angle_gamma   89.99758911
_symmetry_Int_Tables_number   1
_chemical_formula_structural   LiTm4ScCr2O12
_chemical_formula_sum   'Li1 Tm4 Sc1 Cr2 O12'
_cell_volume   221.05787800
_cell_formula_units_Z   1
loop_
 _symmetry_equiv_pos_site_id
 _symmetry_equiv_pos_as_xyz
  1  'x, y, z'
loop_
 _atom_site_type_symbol
 _atom_site_label
 _atom_site_symmetry_multiplicity
 _atom_site_fract_x
 _atom_site_fract_y
 _atom_site_fract_z
 _atom_site_occupancy
  Li  Li0  1  0.50000601  0.00001200  0.00000499  1
  Cr  Cr1  1  0.50001801  0.99999497  0.49999695  1
  Sc  Sc2  1  0.00000900  0.50000099  0.00001199  1
  Cr  Cr3  1  0.99999303  0.49999099  0.49999196  1
  Tm  Tm4  1  0.02274899  0.93893198  0.74999995  1
  Tm  Tm5  1  0.47723701  0.43894799  0.74999996  1
  Tm  Tm6  1  0.52273801  0.56107299  0.24999997  1
  Tm  Tm7  1  0.97725403  0.06106400  0.24999998  1
  O  O8  1  0.12788400  0.44157199  0.24999698  1
  O  O9  1  0.37207900  0.94155898  0.25000196  1
  O  O10  1  0.62792702  0.05844200  0.75000097  1
  O  O11  1  0.87211302  0.55842599  0.74999795  1
  O  O12  1  0.19445000  0.19784399  0.56878098  1
  O  O13  1  0.19444500  0.19785099  0.93121597  1
  O  O14  1  0.30548800  0.69780598  0.56878896  1
  O  O15  1  0.30547900  0.69780398  0.93121195  1
  O  O16  1  0.69451202  0.30219299  0.06878698  1
  O  O17  1  0.69451502  0.30218799  0.43121097  1
  O  O18  1  0.80555102  0.80215098  0.06877996  1
  O  O19  1  0.80555502  0.80214898  0.43121996  1
