# generated using pymatgen
data_RbSr5(HS5)2
_symmetry_space_group_name_H-M   'P 1'
_cell_length_a   6.20662498
_cell_length_b   8.39819813
_cell_length_c   8.39819813
_cell_angle_alpha   90.00000000
_cell_angle_beta   90.00000000
_cell_angle_gamma   90.00000000
_symmetry_Int_Tables_number   1
_chemical_formula_structural   RbSr5(HS5)2
_chemical_formula_sum   'Rb1 Sr5 H2 S10'
_cell_volume   437.75159551
_cell_formula_units_Z   1
loop_
 _symmetry_equiv_pos_site_id
 _symmetry_equiv_pos_as_xyz
  1  'x, y, z'
loop_
 _atom_site_type_symbol
 _atom_site_label
 _atom_site_symmetry_multiplicity
 _atom_site_fract_x
 _atom_site_fract_y
 _atom_site_fract_z
 _atom_site_occupancy
  Rb  Rb0  1  0.00000000  0.49999999  0.49999999  1
  Sr  Sr1  1  0.00000000  0.00000000  0.00000000  1
  Sr  Sr2  1  0.50000000  0.18648800  0.68648799  1
  Sr  Sr3  1  0.50000000  0.81351199  0.31351200  1
  Sr  Sr4  1  0.50000000  0.68648799  0.81351199  1
  Sr  Sr5  1  0.50000000  0.31351200  0.18648800  1
  S  S6  1  0.50000000  0.49999999  0.49999999  1
  S  S7  1  0.50000000  0.00000000  0.00000000  1
  S  S8  1  0.81008800  0.59871199  0.09871200  1
  S  S9  1  0.81008800  0.40128799  0.90128799  1
  S  S10  1  0.81008800  0.09871200  0.40128799  1
  S  S11  1  0.81008800  0.90128799  0.59871199  1
  S  S12  1  0.18991200  0.40128799  0.90128799  1
  S  S13  1  0.18991200  0.59871199  0.09871200  1
  S  S14  1  0.18991200  0.90128799  0.59871199  1
  S  S15  1  0.18991200  0.09871200  0.40128799  1
  H  H16  1  0.00000000  0.49999999  0.00000000  1
  H  H17  1  0.00000000  0.00000000  0.49999999  1
