# generated using pymatgen
data_LaPr4I9
_symmetry_space_group_name_H-M   'P 1'
_cell_length_a   7.81522846
_cell_length_b   7.81522846
_cell_length_c   10.80592251
_cell_angle_alpha   69.86562347
_cell_angle_beta   69.86562347
_cell_angle_gamma   71.38420105
_symmetry_Int_Tables_number   1
_chemical_formula_structural   LaPr4I9
_chemical_formula_sum   'La1 Pr4 I9'
_cell_volume   566.51381577
_cell_formula_units_Z   1
loop_
 _symmetry_equiv_pos_site_id
 _symmetry_equiv_pos_as_xyz
  1  'x, y, z'
loop_
 _atom_site_type_symbol
 _atom_site_label
 _atom_site_symmetry_multiplicity
 _atom_site_fract_x
 _atom_site_fract_y
 _atom_site_fract_z
 _atom_site_occupancy
  La  La0  1  0.45487995  0.54512000  0.75000004  1
  Pr  Pr1  1  0.54511996  0.45488000  0.25000005  1
  Pr  Pr2  1  0.00000000  0.00000000  0.49999998  1
  Pr  Pr3  1  0.00000000  0.00000000  0.00000000  1
  I  I4  1  0.21539298  0.25755000  0.87784400  1
  I  I5  1  0.68260497  0.29445700  0.96969702  1
  I  I6  1  0.25754998  0.21539300  0.37784402  1
  I  I7  1  0.09685293  0.90314701  0.75000004  1
  I  I8  1  0.70554297  0.31739500  0.53030304  1
  I  I9  1  0.29445694  0.68260501  0.46969705  1
  Pr  Pr10  1  0.90314698  0.09685300  0.25000004  1
  I  I11  1  0.74244993  0.78460701  0.62215607  1
  I  I12  1  0.31739494  0.70554301  0.03030306  1
  I  I13  1  0.78460693  0.74245001  0.12215609  1
