# generated using pymatgen
data_Al5Te7
_symmetry_space_group_name_H-M   'P 1'
_cell_length_a   6.41327715
_cell_length_b   6.41327715
_cell_length_c   8.18268871
_cell_angle_alpha   97.33872986
_cell_angle_beta   97.33872986
_cell_angle_gamma   97.60593414
_symmetry_Int_Tables_number   1
_chemical_formula_structural   Al5Te7
_chemical_formula_sum   'Al5 Te7'
_cell_volume   327.26047871
_cell_formula_units_Z   1
loop_
 _symmetry_equiv_pos_site_id
 _symmetry_equiv_pos_as_xyz
  1  'x, y, z'
loop_
 _atom_site_type_symbol
 _atom_site_label
 _atom_site_symmetry_multiplicity
 _atom_site_fract_x
 _atom_site_fract_y
 _atom_site_fract_z
 _atom_site_occupancy
  Te  Te0  1  0.61177398  0.91299698  0.20804907  1
  Te  Te1  1  0.08700300  0.38822599  0.29195101  1
  Te  Te2  1  0.91299698  0.61177399  0.70804905  1
  Te  Te3  1  0.38822599  0.08700300  0.79195100  1
  Al  Al4  1  0.82584098  0.92032698  0.52830007  1
  Te  Te5  1  0.07967300  0.17415900  0.97169998  1
  Al  Al6  1  0.17415900  0.07967300  0.47170000  1
  Al  Al7  1  0.20909799  0.79090198  0.25000004  1
  Al  Al8  1  0.79090198  0.20909800  0.75000003  1
  Al  Al9  1  0.92032698  0.82584098  0.02830008  1
  Te  Te10  1  0.63837299  0.36162699  0.25000004  1
  Te  Te11  1  0.36162699  0.63837299  0.75000003  1
