# generated using pymatgen
data_Sr2Cu2O5
_symmetry_space_group_name_H-M   'P 1'
_cell_length_a   5.45222330
_cell_length_b   5.45263100
_cell_length_c   9.26832008
_cell_angle_alpha   107.08603668
_cell_angle_beta   107.08226013
_cell_angle_gamma   90.02654266
_symmetry_Int_Tables_number   1
_chemical_formula_structural   Sr2Cu2O5
_chemical_formula_sum   'Sr4 Cu4 O10'
_cell_volume   250.61971992
_cell_formula_units_Z   2
loop_
 _symmetry_equiv_pos_site_id
 _symmetry_equiv_pos_as_xyz
  1  'x, y, z'
loop_
 _atom_site_type_symbol
 _atom_site_label
 _atom_site_symmetry_multiplicity
 _atom_site_fract_x
 _atom_site_fract_y
 _atom_site_fract_z
 _atom_site_occupancy
  Sr  Sr0  1  0.88293899  0.37862701  0.77880499  1
  Sr  Sr1  1  0.11661200  0.59956402  0.22124500  1
  Sr  Sr2  1  0.39534000  0.87972203  0.77865699  1
  Sr  Sr3  1  0.60462299  0.10132600  0.22137000  1
  Cu  Cu4  1  0.81217499  0.78114903  0.50044400  1
  Cu  Cu5  1  0.18773000  0.28041701  0.49999599  1
  Cu  Cu6  1  0.49984100  0.49070002  0.99965098  1
  Cu  Cu7  1  0.00004101  0.99032304  0.99963598  1
  O  O8  1  0.84728699  0.13380701  0.50015200  1
  O  O9  1  0.15076900  0.63291602  0.50019800  1
  O  O10  1  0.75115200  0.74368903  0.00358102  1
  O  O11  1  0.24851700  0.73928303  0.99549898  1
  O  O12  1  0.75310099  0.24343201  0.00344501  1
  O  O13  1  0.24796500  0.23939701  0.99646098  1
  O  O14  1  0.85011399  0.84555603  0.71883700  1
  O  O15  1  0.15052500  0.12802900  0.28180600  1
  O  O16  1  0.37652500  0.33952201  0.71693099  1
  O  O17  1  0.62474300  0.62453802  0.28328501  1
