# generated using pymatgen
data_SiO2
_symmetry_space_group_name_H-M   'P 1'
_cell_length_a   4.76284981
_cell_length_b   5.32182884
_cell_length_c   7.79790783
_cell_angle_alpha   82.14550018
_cell_angle_beta   72.21820068
_cell_angle_gamma   63.41772461
_symmetry_Int_Tables_number   1
_chemical_formula_structural   SiO2
_chemical_formula_sum   'Si4 O8'
_cell_volume   168.31616183
_cell_formula_units_Z   4
loop_
 _symmetry_equiv_pos_site_id
 _symmetry_equiv_pos_as_xyz
  1  'x, y, z'
loop_
 _atom_site_type_symbol
 _atom_site_label
 _atom_site_symmetry_multiplicity
 _atom_site_fract_x
 _atom_site_fract_y
 _atom_site_fract_z
 _atom_site_occupancy
  Si  Si0  1  0.06317498  0.50000003  0.87364999  1
  Si  Si1  1  0.31317501  0.00000000  0.37364999  1
  Si  Si2  1  0.68682503  0.00000000  0.62634998  1
  Si  Si3  1  0.43682500  0.50000003  0.12635000  1
  O  O4  1  0.37499998  0.75000004  0.25000000  1
  O  O5  1  0.37500001  0.25000001  0.74999998  1
  O  O6  1  0.87500001  0.75000004  0.74999999  1
  O  O7  1  0.37500001  0.25000001  0.24999999  1
  O  O8  1  0.18621698  0.62756603  0.00000001  1
  O  O9  1  0.81378302  0.37243402  -0.00000000  1
  O  O10  1  0.93621704  0.12756601  0.49999998  1
  O  O11  1  0.56378299  0.87243405  0.50000000  1
