# generated using pymatgen
data_Ce3ScS14
_symmetry_space_group_name_H-M   'P 1'
_cell_length_a   4.29039001
_cell_length_b   4.29039001
_cell_length_c   22.29260635
_cell_angle_alpha   90.00000000
_cell_angle_beta   90.00000000
_cell_angle_gamma   120.00000000
_symmetry_Int_Tables_number   1
_chemical_formula_structural   Ce3ScS14
_chemical_formula_sum   'Ce3 Sc1 S14'
_cell_volume   355.37348834
_cell_formula_units_Z   1
loop_
 _symmetry_equiv_pos_site_id
 _symmetry_equiv_pos_as_xyz
  1  'x, y, z'
loop_
 _atom_site_type_symbol
 _atom_site_label
 _atom_site_symmetry_multiplicity
 _atom_site_fract_x
 _atom_site_fract_y
 _atom_site_fract_z
 _atom_site_occupancy
  Ce  Ce0  1  0.66666668  0.33333336  0.74356602  1
  S  S1  1  0.66666668  0.33333336  0.41091701  1
  S  S2  1  0.66666668  0.33333336  0.07800100  1
  S  S3  1  0.66666668  0.33333336  0.92103303  1
  Ce  Ce4  1  0.66666668  0.33333336  0.58731802  1
  S  S5  1  0.66666668  0.33333336  0.25505001  1
  S  S6  1  0.00000000  0.00000000  0.66159302  1
  S  S7  1  0.00000000  0.00000000  0.32885901  1
  S  S8  1  0.00000000  0.00000000  0.84542402  1
  S  S9  1  0.00000000  0.00000000  0.51272201  1
  S  S10  1  0.00000000  0.00000000  0.18058001  1
  S  S11  1  0.33333336  0.66666671  0.81858402  1
  Sc  Sc12  1  0.33333336  0.66666671  0.48640801  1
  Ce  Ce13  1  0.33333336  0.66666671  0.15455600  1
  S  S14  1  0.33333336  0.66666671  0.67359102  1
  S  S15  1  0.33333336  0.66666671  0.34137401  1
  S  S16  1  0.33333336  0.66666671  0.00525000  1
  S  S17  1  0.00000000  0.00000000  0.99517703  1
