# generated using pymatgen
data_VF2
_symmetry_space_group_name_H-M   'P 1'
_cell_length_a   4.61790085
_cell_length_b   4.61790085
_cell_length_c   9.45189857
_cell_angle_alpha   90.00000000
_cell_angle_beta   90.00000000
_cell_angle_gamma   90.00000000
_symmetry_Int_Tables_number   1
_chemical_formula_structural   VF2
_chemical_formula_sum   'V6 F12'
_cell_volume   201.56181504
_cell_formula_units_Z   6
loop_
 _symmetry_equiv_pos_site_id
 _symmetry_equiv_pos_as_xyz
  1  'x, y, z'
loop_
 _atom_site_type_symbol
 _atom_site_label
 _atom_site_symmetry_multiplicity
 _atom_site_fract_x
 _atom_site_fract_y
 _atom_site_fract_z
 _atom_site_occupancy
  V  V0  1  0.00000000  0.00000000  0.00000000  1
  V  V1  1  0.50000002  0.50000002  0.50000002  1
  V  V2  1  0.50000002  0.50000002  0.83233304  1
  V  V3  1  0.00000000  0.00000000  0.33233301  1
  V  V4  1  0.50000002  0.50000002  0.16766701  1
  V  V5  1  0.00000000  0.00000000  0.66766703  1
  F  F6  1  0.69406702  0.69406702  0.66488503  1
  F  F7  1  0.30593301  0.30593301  0.66488503  1
  F  F8  1  0.69406702  0.69406702  0.33511502  1
  F  F9  1  0.19406701  0.80593303  0.16488501  1
  F  F10  1  0.80593303  0.19406701  0.16488501  1
  F  F11  1  0.80593303  0.19406701  0.83511504  1
  F  F12  1  0.30364501  0.30364501  0.00000000  1
  F  F13  1  0.19635501  0.80364503  0.50000002  1
  F  F14  1  0.80364503  0.19635501  0.50000002  1
  F  F15  1  0.69635502  0.69635502  0.00000000  1
  F  F16  1  0.30593301  0.30593301  0.33511502  1
  F  F17  1  0.19406701  0.80593303  0.83511504  1
