# generated using pymatgen
data_La4Bi3AuO
_symmetry_space_group_name_H-M   'P 1'
_cell_length_a   6.48592138
_cell_length_b   6.48592138
_cell_length_c   6.48592138
_cell_angle_alpha   60.00000000
_cell_angle_beta   60.00000000
_cell_angle_gamma   60.00000000
_symmetry_Int_Tables_number   1
_chemical_formula_structural   La4Bi3AuO
_chemical_formula_sum   'La4 Bi3 Au1 O1'
_cell_volume   192.93012371
_cell_formula_units_Z   1
loop_
 _symmetry_equiv_pos_site_id
 _symmetry_equiv_pos_as_xyz
  1  'x, y, z'
loop_
 _atom_site_type_symbol
 _atom_site_label
 _atom_site_symmetry_multiplicity
 _atom_site_fract_x
 _atom_site_fract_y
 _atom_site_fract_z
 _atom_site_occupancy
  La  La0  1  0.75000000  0.75000000  0.75000000  1
  Au  Au1  1  0.25000000  0.25000000  0.25000000  1
  O  O2  1  0.00000000  0.00000000  0.00000000  1
  La  La3  1  0.79945100  0.20054900  0.20054900  1
  La  La4  1  0.20054900  0.20054900  0.79945100  1
  Bi  Bi5  1  0.79945100  0.79945100  0.20054900  1
  Bi  Bi6  1  0.20054900  0.79945100  0.79945100  1
  Bi  Bi7  1  0.79945100  0.20054900  0.79945100  1
  La  La8  1  0.20054900  0.79945100  0.20054900  1
