# generated using pymatgen
data_NaV4O7
_symmetry_space_group_name_H-M   'P 1'
_cell_length_a   4.89821911
_cell_length_b   4.89821911
_cell_length_c   4.89821911
_cell_angle_alpha   90.00000000
_cell_angle_beta   90.00000000
_cell_angle_gamma   90.00000000
_symmetry_Int_Tables_number   1
_chemical_formula_structural   NaV4O7
_chemical_formula_sum   'Na1 V4 O7'
_cell_volume   117.52076901
_cell_formula_units_Z   1
loop_
 _symmetry_equiv_pos_site_id
 _symmetry_equiv_pos_as_xyz
  1  'x, y, z'
loop_
 _atom_site_type_symbol
 _atom_site_label
 _atom_site_symmetry_multiplicity
 _atom_site_fract_x
 _atom_site_fract_y
 _atom_site_fract_z
 _atom_site_occupancy
  V  V0  1  0.49999999  0.49999999  0.00000000  1
  V  V1  1  0.49999999  0.00000000  0.49999999  1
  V  V2  1  0.00000000  0.49999999  0.49999999  1
  V  V3  1  0.00000000  0.00000000  0.00000000  1
  O  O4  1  0.14920000  0.85079998  0.35079999  1
  O  O5  1  0.85079998  0.35079999  0.14920000  1
  O  O6  1  0.35079999  0.14920000  0.85079998  1
  Na  Na7  1  0.64919999  0.64919999  0.64919999  1
  O  O8  1  0.85079998  0.14920000  0.64919999  1
  O  O9  1  0.14920000  0.64919999  0.85079998  1
  O  O10  1  0.64919999  0.85079998  0.14920000  1
  O  O11  1  0.35079999  0.35079999  0.35079999  1
