# generated using pymatgen
data_TiIn2FeS6
_symmetry_space_group_name_H-M   'P 1'
_cell_length_a   5.77894783
_cell_length_b   5.77894735
_cell_length_c   11.64937019
_cell_angle_alpha   90.00000000
_cell_angle_beta   90.00000000
_cell_angle_gamma   120.00000763
_symmetry_Int_Tables_number   1
_chemical_formula_structural   TiIn2FeS6
_chemical_formula_sum   'Ti2 In4 Fe2 S12'
_cell_volume   336.92292059
_cell_formula_units_Z   2
loop_
 _symmetry_equiv_pos_site_id
 _symmetry_equiv_pos_as_xyz
  1  'x, y, z'
loop_
 _atom_site_type_symbol
 _atom_site_label
 _atom_site_symmetry_multiplicity
 _atom_site_fract_x
 _atom_site_fract_y
 _atom_site_fract_z
 _atom_site_occupancy
  In  In0  1  0.00000000  0.00000000  0.49999999  1
  In  In1  1  0.00000000  0.00000000  0.00000000  1
  In  In2  1  0.66666671  0.33333334  0.00514200  1
  In  In3  1  0.33333339  0.66666669  0.99485798  1
  Ti  Ti4  1  0.33333339  0.66666669  0.50514199  1
  Ti  Ti5  1  0.66666671  0.33333334  0.49485799  1
  Fe  Fe6  1  0.66666671  0.33333334  0.74999999  1
  Fe  Fe7  1  0.33333339  0.66666669  0.25000000  1
  S  S8  1  0.66893002  0.00796600  0.63591599  1
  S  S9  1  0.33903604  0.33107001  0.63591599  1
  S  S10  1  0.99203408  0.66096402  0.63591599  1
  S  S11  1  0.66096410  0.99203403  0.36408399  1
  S  S12  1  0.00796605  0.66893002  0.36408399  1
  S  S13  1  0.33107004  0.33903601  0.36408399  1
  S  S14  1  0.33107009  0.99203403  0.13591600  1
  S  S15  1  0.66096407  0.66893002  0.13591600  1
  S  S16  1  0.00796603  0.33903601  0.13591600  1
  S  S17  1  0.33903601  0.00796600  0.86408399  1
  S  S18  1  0.99203405  0.33107001  0.86408399  1
  S  S19  1  0.66893007  0.66096402  0.86408399  1
