# generated using pymatgen
data_CsB2H12NOF
_symmetry_space_group_name_H-M   'P 1'
_cell_length_a   5.17999077
_cell_length_b   5.18384314
_cell_length_c   9.17215347
_cell_angle_alpha   89.87913513
_cell_angle_beta   90.00000000
_cell_angle_gamma   90.00000000
_symmetry_Int_Tables_number   1
_chemical_formula_structural   CsB2H12NOF
_chemical_formula_sum   'Cs1 B2 H12 N1 O1 F1'
_cell_volume   246.29249805
_cell_formula_units_Z   1
loop_
 _symmetry_equiv_pos_site_id
 _symmetry_equiv_pos_as_xyz
  1  'x, y, z'
loop_
 _atom_site_type_symbol
 _atom_site_label
 _atom_site_symmetry_multiplicity
 _atom_site_fract_x
 _atom_site_fract_y
 _atom_site_fract_z
 _atom_site_occupancy
  H  H0  1  0.25000001  0.93619998  0.16215197  1
  H  H1  1  0.41131002  0.65479498  0.16304298  1
  H  H2  1  0.08869000  0.65479498  0.16304298  1
  H  H3  1  0.42323502  0.84985898  0.40301197  1
  H  H4  1  0.25000001  0.54985599  0.40316898  1
  H  H5  1  0.07676500  0.84985898  0.40301197  1
  H  H6  1  0.75000003  0.06380000  0.83784799  1
  H  H7  1  0.58869003  0.34520499  0.83695698  1
  H  H8  1  0.91131004  0.34520499  0.83695698  1
  H  H9  1  0.57676503  0.15014100  0.59698799  1
  H  H10  1  0.75000003  0.45014399  0.59683098  1
  H  H11  1  0.92323504  0.15014100  0.59698799  1
  B  B12  1  0.25000001  0.74972198  0.36532297  1
  B  B13  1  0.75000003  0.25027799  0.63467699  1
  Cs  Cs14  1  0.25000001  0.74603098  0.81055997  1
  F  F15  1  0.75000003  0.25396899  0.18943999  1
  N  N16  1  0.25000001  0.75024398  0.20303797  1
  O  O17  1  0.75000003  0.24975599  0.79696199  1
