# generated using pymatgen
data_CaHfF4
_symmetry_space_group_name_H-M   'P 1'
_cell_length_a   5.36029291
_cell_length_b   5.59639597
_cell_length_c   6.36814213
_cell_angle_alpha   115.95491791
_cell_angle_beta   108.47310638
_cell_angle_gamma   90.07706451
_symmetry_Int_Tables_number   1
_chemical_formula_structural   CaHfF4
_chemical_formula_sum   'Ca2 Hf2 F8'
_cell_volume   160.70404634
_cell_formula_units_Z   2
loop_
 _symmetry_equiv_pos_site_id
 _symmetry_equiv_pos_as_xyz
  1  'x, y, z'
loop_
 _atom_site_type_symbol
 _atom_site_label
 _atom_site_symmetry_multiplicity
 _atom_site_fract_x
 _atom_site_fract_y
 _atom_site_fract_z
 _atom_site_occupancy
  Ca  Ca0  1  0.53018704  0.26901800  0.89630400  1
  Ca  Ca1  1  0.02329105  0.73806700  0.87867197  1
  Hf  Hf2  1  0.28267605  0.59046800  0.39637399  1
  Hf  Hf3  1  0.78529209  0.96599300  0.39761300  1
  F  F4  1  0.28233703  0.25773400  0.14243700  1
  F  F5  1  0.27164404  0.49632200  0.65826899  1
  F  F6  1  0.40498007  0.74449600  0.18665299  1
  F  F7  1  0.14794607  0.95740200  0.61542097  1
  F  F8  1  0.76819303  0.06908200  0.15461402  1
  F  F9  1  0.76864105  0.31145100  0.66925001  1
  F  F10  1  0.63818408  0.82598200  0.61863099  1
  F  F11  1  0.89653307  0.59548700  0.18966602  1
