# generated using pymatgen
data_BaSn2
_symmetry_space_group_name_H-M   'P 1'
_cell_length_a   5.07254696
_cell_length_b   8.57783604
_cell_length_c   9.19073200
_cell_angle_alpha   90.00000000
_cell_angle_beta   90.00000000
_cell_angle_gamma   90.00000000
_symmetry_Int_Tables_number   1
_chemical_formula_structural   BaSn2
_chemical_formula_sum   'Ba4 Sn8'
_cell_volume   399.90231588
_cell_formula_units_Z   4
loop_
 _symmetry_equiv_pos_site_id
 _symmetry_equiv_pos_as_xyz
  1  'x, y, z'
loop_
 _atom_site_type_symbol
 _atom_site_label
 _atom_site_symmetry_multiplicity
 _atom_site_fract_x
 _atom_site_fract_y
 _atom_site_fract_z
 _atom_site_occupancy
  Ba  Ba0  1  0.25000000  0.02847900  0.17574500  1
  Ba  Ba1  1  0.75000001  0.97152100  0.82425500  1
  Ba  Ba2  1  0.25000000  0.52847900  0.32425500  1
  Ba  Ba3  1  0.75000001  0.47152100  0.67574500  1
  Sn  Sn4  1  0.75000001  0.35863700  0.07424300  1
  Sn  Sn5  1  0.25000000  0.64136300  0.92575700  1
  Sn  Sn6  1  0.75000001  0.85863700  0.42575700  1
  Sn  Sn7  1  0.25000000  0.14136300  0.57424300  1
  Sn  Sn8  1  0.25000000  0.78157400  0.60859500  1
  Sn  Sn9  1  0.75000001  0.21842600  0.39140500  1
  Sn  Sn10  1  0.25000000  0.28157400  0.89140500  1
  Sn  Sn11  1  0.75000001  0.71842600  0.10859500  1
