# generated using pymatgen
data_ScAl4Co
_symmetry_space_group_name_H-M   'P 1'
_cell_length_a   3.79164600
_cell_length_b   6.37656784
_cell_length_c   7.38875818
_cell_angle_alpha   90.00000000
_cell_angle_beta   90.00000000
_cell_angle_gamma   90.00000000
_symmetry_Int_Tables_number   1
_chemical_formula_structural   ScAl4Co
_chemical_formula_sum   'Sc2 Al8 Co2'
_cell_volume   178.64308982
_cell_formula_units_Z   2
loop_
 _symmetry_equiv_pos_site_id
 _symmetry_equiv_pos_as_xyz
  1  'x, y, z'
loop_
 _atom_site_type_symbol
 _atom_site_label
 _atom_site_symmetry_multiplicity
 _atom_site_fract_x
 _atom_site_fract_y
 _atom_site_fract_z
 _atom_site_occupancy
  Al  Al0  1  0.25000000  0.21984901  0.91357198  1
  Co  Co1  1  0.75000000  0.28015101  0.41357199  1
  Co  Co2  1  0.25000000  0.71984902  0.58642799  1
  Al  Al3  1  0.75000000  0.78015102  0.08642800  1
  Al  Al4  1  0.75000000  0.13706400  0.06826200  1
  Al  Al5  1  0.25000000  0.36293601  0.56826199  1
  Al  Al6  1  0.75000000  0.63706402  0.43173799  1
  Al  Al7  1  0.25000000  0.86293602  0.93173798  1
  Al  Al8  1  0.75000000  0.04284200  0.66075398  1
  Sc  Sc9  1  0.25000000  0.45715801  0.16075400  1
  Sc  Sc10  1  0.75000000  0.54284201  0.83924598  1
  Al  Al11  1  0.25000000  0.95715802  0.33924599  1
