# generated using pymatgen
data_VWSe6
_symmetry_space_group_name_H-M   'P 1'
_cell_length_a   5.81724215
_cell_length_b   5.82929897
_cell_length_c   13.09367847
_cell_angle_alpha   88.73968506
_cell_angle_beta   87.47352600
_cell_angle_gamma   60.06839752
_symmetry_Int_Tables_number   1
_chemical_formula_structural   VWSe6
_chemical_formula_sum   'V2 W2 Se12'
_cell_volume   384.41677464
_cell_formula_units_Z   2
loop_
 _symmetry_equiv_pos_site_id
 _symmetry_equiv_pos_as_xyz
  1  'x, y, z'
loop_
 _atom_site_type_symbol
 _atom_site_label
 _atom_site_symmetry_multiplicity
 _atom_site_fract_x
 _atom_site_fract_y
 _atom_site_fract_z
 _atom_site_occupancy
  V  V0  1  0.87040097  0.25919801  1.00000003  1
  V  V1  1  0.12959899  0.74080203  0.00000002  1
  W  W2  1  0.81336697  0.37326601  0.50000003  1
  W  W3  1  0.18663299  0.62673403  0.50000003  1
  Se  Se4  1  0.16421400  0.00000000  0.59700601  1
  Se  Se5  1  0.83578597  1.00000004  0.40299405  1
  Se  Se6  1  0.84475598  0.00000000  0.86749602  1
  Se  Se7  1  0.15524399  1.00000004  0.13250403  1
  Se  Se8  1  0.47858798  0.35293201  0.10466402  1
  Se  Se9  1  0.83151997  0.64706803  0.10466403  1
  Se  Se10  1  0.52141198  0.64706803  0.89533604  1
  Se  Se11  1  0.16847999  0.35293201  0.89533602  1
  Se  Se12  1  0.50158198  0.32842501  0.61947402  1
  Se  Se13  1  0.83000697  0.67157503  0.61947404  1
  Se  Se14  1  0.49841798  0.67157503  0.38052603  1
  Se  Se15  1  0.16999299  0.32842501  0.38052602  1
