# generated using pymatgen
data_VFe3P4
_symmetry_space_group_name_H-M   'P 1'
_cell_length_a   3.23204303
_cell_length_b   5.21737909
_cell_length_c   5.68620253
_cell_angle_alpha   89.81828308
_cell_angle_beta   90.00000000
_cell_angle_gamma   90.00000000
_symmetry_Int_Tables_number   1
_chemical_formula_structural   VFe3P4
_chemical_formula_sum   'V1 Fe3 P4'
_cell_volume   95.88477801
_cell_formula_units_Z   1
loop_
 _symmetry_equiv_pos_site_id
 _symmetry_equiv_pos_as_xyz
  1  'x, y, z'
loop_
 _atom_site_type_symbol
 _atom_site_label
 _atom_site_symmetry_multiplicity
 _atom_site_fract_x
 _atom_site_fract_y
 _atom_site_fract_z
 _atom_site_occupancy
  V  V0  1  0.00000000  0.50732799  0.69087400  1
  P  P1  1  0.00000000  0.67722799  0.07356499  1
  P  P2  1  0.00000000  0.18452600  0.42470900  1
  P  P3  1  0.50000000  0.32432899  0.91908001  1
  P  P4  1  0.50000000  0.81222699  0.58084000  1
  Fe  Fe5  1  0.00000000  0.00797200  0.81142901  1
  Fe  Fe6  1  0.50000000  0.49264899  0.30995400  1
  Fe  Fe7  1  0.50000000  0.99373998  0.18954999  1
