# generated using pymatgen
data_AlCu(Ag2Se3)2
_symmetry_space_group_name_H-M   'P 1'
_cell_length_a   6.36628103
_cell_length_b   6.41424799
_cell_length_c   6.53383207
_cell_angle_alpha   113.35990906
_cell_angle_beta   90.00000000
_cell_angle_gamma   90.00000000
_symmetry_Int_Tables_number   1
_chemical_formula_structural   AlCu(Ag2Se3)2
_chemical_formula_sum   'Al1 Cu1 Ag4 Se6'
_cell_volume   244.93874012
_cell_formula_units_Z   1
loop_
 _symmetry_equiv_pos_site_id
 _symmetry_equiv_pos_as_xyz
  1  'x, y, z'
loop_
 _atom_site_type_symbol
 _atom_site_label
 _atom_site_symmetry_multiplicity
 _atom_site_fract_x
 _atom_site_fract_y
 _atom_site_fract_z
 _atom_site_occupancy
  Ag  Ag0  1  0.62955100  0.83837800  0.68852000  1
  Se  Se1  1  0.37044900  0.16162200  0.31148000  1
  Se  Se2  1  0.12955100  0.16162200  0.81147999  1
  Ag  Ag3  1  0.87044900  0.83837800  0.18852000  1
  Se  Se4  1  0.36357200  0.63946200  0.88878100  1
  Ag  Ag5  1  0.63642800  0.36053800  0.11121900  1
  Se  Se6  1  0.86357200  0.36053800  0.61121900  1
  Ag  Ag7  1  0.13642800  0.63946200  0.38878100  1
  Cu  Cu8  1  0.01026300  0.76297200  0.79046900  1
  Se  Se9  1  0.98973699  0.23702800  0.20953100  1
  Al  Al10  1  0.51026300  0.23702800  0.70953100  1
  Se  Se11  1  0.48973700  0.76297200  0.29046900  1
