# generated using pymatgen
data_TmAlPt
_symmetry_space_group_name_H-M   'P 1'
_cell_length_a   3.77799797
_cell_length_b   7.28616190
_cell_length_c   7.28616142
_cell_angle_alpha   120.00000000
_cell_angle_beta   90.00000000
_cell_angle_gamma   90.00000000
_symmetry_Int_Tables_number   1
_chemical_formula_structural   TmAlPt
_chemical_formula_sum   'Tm3 Al3 Pt3'
_cell_volume   173.69605618
_cell_formula_units_Z   3
loop_
 _symmetry_equiv_pos_site_id
 _symmetry_equiv_pos_as_xyz
  1  'x, y, z'
loop_
 _atom_site_type_symbol
 _atom_site_label
 _atom_site_symmetry_multiplicity
 _atom_site_fract_x
 _atom_site_fract_y
 _atom_site_fract_z
 _atom_site_occupancy
  Tm  Tm0  1  -0.00000000  0.59395300  1.00000001  1
  Tm  Tm1  1  -0.00000000  0.40604700  0.40604700  1
  Tm  Tm2  1  0.00000000  0.00000000  0.59395302  1
  Al  Al3  1  0.50000000  0.25470200  -0.00000001  1
  Al  Al4  1  0.50000000  0.74529800  0.74529800  1
  Al  Al5  1  0.50000000  1.00000000  0.25470198  1
  Pt  Pt6  1  0.00000000  0.00000000  0.00000000  1
  Pt  Pt7  1  0.50000000  0.33333333  0.66666668  1
  Pt  Pt8  1  0.50000000  0.66666667  0.33333332  1
