# generated using pymatgen
data_LaCuTe8
_symmetry_space_group_name_H-M   'P 1'
_cell_length_a   3.99299407
_cell_length_b   9.06305313
_cell_length_c   14.65583801
_cell_angle_alpha   90.00000000
_cell_angle_beta   90.00000000
_cell_angle_gamma   90.00000000
_symmetry_Int_Tables_number   1
_chemical_formula_structural   LaCuTe8
_chemical_formula_sum   'La2 Cu2 Te16'
_cell_volume   530.37598023
_cell_formula_units_Z   2
loop_
 _symmetry_equiv_pos_site_id
 _symmetry_equiv_pos_as_xyz
  1  'x, y, z'
loop_
 _atom_site_type_symbol
 _atom_site_label
 _atom_site_symmetry_multiplicity
 _atom_site_fract_x
 _atom_site_fract_y
 _atom_site_fract_z
 _atom_site_occupancy
  La  La0  1  0.74999999  0.05959600  0.82153600  1
  Te  Te1  1  0.25000000  0.94040399  0.17846400  1
  La  La2  1  0.74999999  0.55959599  0.67846400  1
  Te  Te3  1  0.25000000  0.44040399  0.32153600  1
  Te  Te4  1  0.74999999  0.33030600  0.05739200  1
  Cu  Cu5  1  0.25000000  0.66969399  0.94260800  1
  Te  Te6  1  0.74999999  0.83030599  0.44260800  1
  Cu  Cu7  1  0.25000000  0.16969400  0.55739200  1
  Te  Te8  1  0.74999999  0.48060599  0.89224900  1
  Te  Te9  1  0.25000000  0.51939399  0.10775100  1
  Te  Te10  1  0.74999999  0.98060599  0.60775100  1
  Te  Te11  1  0.25000000  0.01939400  0.39224900  1
  Te  Te12  1  0.74999999  0.33922700  0.48670000  1
  Te  Te13  1  0.25000000  0.66077299  0.51330000  1
  Te  Te14  1  0.74999999  0.83922699  0.01330000  1
  Te  Te15  1  0.25000000  0.16077300  0.98670000  1
  Te  Te16  1  0.74999999  0.21031100  0.21896900  1
  Te  Te17  1  0.25000000  0.78968899  0.78103100  1
  Te  Te18  1  0.74999999  0.71031099  0.28103100  1
  Te  Te19  1  0.25000000  0.28968900  0.71896900  1
