# generated using pymatgen
data_CeGe2
_symmetry_space_group_name_H-M   'P 1'
_cell_length_a   4.61465216
_cell_length_b   7.96044779
_cell_length_c   11.93141651
_cell_angle_alpha   109.48693085
_cell_angle_beta   101.15024567
_cell_angle_gamma   90.00000000
_symmetry_Int_Tables_number   1
_chemical_formula_structural   CeGe2
_chemical_formula_sum   'Ce6 Ge12'
_cell_volume   404.40342218
_cell_formula_units_Z   6
loop_
 _symmetry_equiv_pos_site_id
 _symmetry_equiv_pos_as_xyz
  1  'x, y, z'
loop_
 _atom_site_type_symbol
 _atom_site_label
 _atom_site_symmetry_multiplicity
 _atom_site_fract_x
 _atom_site_fract_y
 _atom_site_fract_z
 _atom_site_occupancy
  Ce  Ce0  1  0.16512400  0.23983400  0.33024700  1
  Ce  Ce1  1  0.33122599  0.33079900  0.66245202  1
  Ce  Ce2  1  0.49999999  0.57484600  -0.00000002  1
  Ce  Ce3  1  0.00000000  0.99873500  -0.00000005  1
  Ce  Ce4  1  0.83487698  0.90958700  0.66975400  1
  Ce  Ce5  1  0.66877399  0.66834700  0.33754799  1
  Ge  Ge6  1  0.23196300  0.93410800  0.46392498  1
  Ge  Ge7  1  0.07246300  0.44442200  0.14492599  1
  Ge  Ge8  1  0.76803798  0.47018300  0.53607601  1
  Ge  Ge9  1  0.39691799  0.76784400  0.79383600  1
  Ge  Ge10  1  0.92753598  0.29949500  0.85507304  1
  Ge  Ge11  1  0.60308299  0.97400900  0.20616497  1
  Ge  Ge12  1  0.56858999  0.26996000  0.13718000  1
  Ge  Ge13  1  0.09747800  0.79811100  0.19495597  1
  Ge  Ge14  1  0.73397998  0.10787300  0.46796003  1
  Ge  Ge15  1  0.26602000  0.63991300  0.53204000  1
  Ge  Ge16  1  0.43140999  0.13278000  0.86282004  1
  Ge  Ge17  1  0.90252098  0.60315400  0.80504302  1
