# generated using pymatgen
data_K2MnSe3
_symmetry_space_group_name_H-M   'P 1'
_cell_length_a   6.89591122
_cell_length_b   7.62231350
_cell_length_c   8.37682343
_cell_angle_alpha   75.57520294
_cell_angle_beta   72.62059784
_cell_angle_gamma   66.58775330
_symmetry_Int_Tables_number   1
_chemical_formula_structural   K2MnSe3
_chemical_formula_sum   'K4 Mn2 Se6'
_cell_volume   381.31226501
_cell_formula_units_Z   2
loop_
 _symmetry_equiv_pos_site_id
 _symmetry_equiv_pos_as_xyz
  1  'x, y, z'
loop_
 _atom_site_type_symbol
 _atom_site_label
 _atom_site_symmetry_multiplicity
 _atom_site_fract_x
 _atom_site_fract_y
 _atom_site_fract_z
 _atom_site_occupancy
  K  K0  1  0.15014101  0.46053899  0.19324598  1
  K  K1  1  0.84985899  0.53946098  0.80675394  1
  K  K2  1  0.58664099  0.20893799  0.62625096  1
  K  K3  1  0.41335902  0.79106197  0.37374896  1
  Mn  Mn4  1  0.85542097  0.06405500  0.19295599  1
  Mn  Mn5  1  0.14457903  0.93594497  0.80704393  1
  Se  Se6  1  0.13414100  0.18065999  0.56919196  1
  Se  Se7  1  0.86585900  0.81933997  0.43080796  1
  Se  Se8  1  0.65646099  0.39313799  0.21978898  1
  Se  Se9  1  0.34353901  0.60686198  0.78021094  1
  Se  Se10  1  0.22656499  0.04513900  0.03011000  1
  Se  Se11  1  0.77343501  0.95486097  0.96988992  1
