# generated using pymatgen
data_Ce2Ni3SnGeSb
_symmetry_space_group_name_H-M   'P 1'
_cell_length_a   4.13073778
_cell_length_b   4.13073778
_cell_length_c   10.49970245
_cell_angle_alpha   90.00000000
_cell_angle_beta   90.00000000
_cell_angle_gamma   120.00000000
_symmetry_Int_Tables_number   1
_chemical_formula_structural   Ce2Ni3SnGeSb
_chemical_formula_sum   'Ce2 Ni3 Sn1 Ge1 Sb1'
_cell_volume   155.15396462
_cell_formula_units_Z   1
loop_
 _symmetry_equiv_pos_site_id
 _symmetry_equiv_pos_as_xyz
  1  'x, y, z'
loop_
 _atom_site_type_symbol
 _atom_site_label
 _atom_site_symmetry_multiplicity
 _atom_site_fract_x
 _atom_site_fract_y
 _atom_site_fract_z
 _atom_site_occupancy
  Ce  Ce0  1  0.33333335  0.66666669  0.24999999  1
  Ce  Ce1  1  0.66666670  0.33333335  0.74999997  1
  Sb  Sb2  1  0.33333335  0.66666669  0.96544196  1
  Ni  Ni3  1  0.66666670  0.33333335  0.46544198  1
  Ni  Ni4  1  0.66666670  0.33333335  0.03455800  1
  Ni  Ni5  1  0.33333335  0.66666669  0.53455798  1
  Ge  Ge6  1  0.00000000  0.00000000  0.49999998  1
  Sn  Sn7  1  0.00000000  0.00000000  0.00000000  1
