# generated using pymatgen
data_VCr5Si6
_symmetry_space_group_name_H-M   'P 1'
_cell_length_a   3.82260203
_cell_length_b   5.06209612
_cell_length_c   7.21646023
_cell_angle_alpha   90.00000000
_cell_angle_beta   90.00000000
_cell_angle_gamma   90.00000000
_symmetry_Int_Tables_number   1
_chemical_formula_structural   VCr5Si6
_chemical_formula_sum   'V1 Cr5 Si6'
_cell_volume   139.64123986
_cell_formula_units_Z   1
loop_
 _symmetry_equiv_pos_site_id
 _symmetry_equiv_pos_as_xyz
  1  'x, y, z'
loop_
 _atom_site_type_symbol
 _atom_site_label
 _atom_site_symmetry_multiplicity
 _atom_site_fract_x
 _atom_site_fract_y
 _atom_site_fract_z
 _atom_site_occupancy
  V  V0  1  0.74999999  0.17445900  0.56115898  1
  Cr  Cr1  1  0.74999999  0.67445898  0.93884097  1
  Cr  Cr2  1  0.25000000  0.82554098  0.43884099  1
  Cr  Cr3  1  0.25000000  0.32554099  0.06115900  1
  Cr  Cr4  1  0.74999999  0.53791699  0.28116299  1
  Si  Si5  1  0.74999999  0.03791700  0.21883699  1
  Cr  Cr6  1  0.25000000  0.46208299  0.71883698  1
  Si  Si7  1  0.25000000  0.96208298  0.78116298  1
  Si  Si8  1  0.74999999  0.20661000  0.89081197  1
  Si  Si9  1  0.74999999  0.70660998  0.60918798  1
  Si  Si10  1  0.25000000  0.79338998  0.10918800  1
  Si  Si11  1  0.25000000  0.29338999  0.39081199  1
