# generated using pymatgen
data_NaLaH2PbI2ClO4
_symmetry_space_group_name_H-M   'P 1'
_cell_length_a   6.03853083
_cell_length_b   6.05967999
_cell_length_c   6.12817860
_cell_angle_alpha   90.00000000
_cell_angle_beta   89.92820740
_cell_angle_gamma   90.00000000
_symmetry_Int_Tables_number   1
_chemical_formula_structural   NaLaH2PbI2ClO4
_chemical_formula_sum   'Na1 La1 H2 Pb1 I2 Cl1 O4'
_cell_volume   224.23946567
_cell_formula_units_Z   1
loop_
 _symmetry_equiv_pos_site_id
 _symmetry_equiv_pos_as_xyz
  1  'x, y, z'
loop_
 _atom_site_type_symbol
 _atom_site_label
 _atom_site_symmetry_multiplicity
 _atom_site_fract_x
 _atom_site_fract_y
 _atom_site_fract_z
 _atom_site_occupancy
  O  O0  1  0.21825801  0.13789900  0.03181001  1
  H  H1  1  0.17778601  0.00000000  0.80136404  1
  I  I2  1  0.82509502  0.14805600  0.93838107  1
  H  H3  1  0.86934102  0.00000000  0.18828505  1
  I  I4  1  0.82509502  0.85194400  0.93838107  1
  O  O5  1  0.21825801  0.86210100  0.03181001  1
  Cl  Cl6  1  0.47526601  0.50000000  0.52200604  1
  O  O7  1  0.89731103  0.00000000  0.01148004  1
  La  La8  1  0.43002801  0.50000000  0.02725202  1
  Na  Na9  1  0.43485201  0.00000000  0.48729204  1
  Pb  Pb10  1  0.96653803  0.50000000  0.55926406  1
  O  O11  1  0.14060600  0.00000000  0.96753504  1
