# generated using pymatgen
data_Tm2SnGe3
_symmetry_space_group_name_H-M   'P 1'
_cell_length_a   4.12765408
_cell_length_b   4.12765408
_cell_length_c   8.54400158
_cell_angle_alpha   90.00000000
_cell_angle_beta   90.00000000
_cell_angle_gamma   90.00000000
_symmetry_Int_Tables_number   1
_chemical_formula_structural   Tm2SnGe3
_chemical_formula_sum   'Tm2 Sn1 Ge3'
_cell_volume   145.56866757
_cell_formula_units_Z   1
loop_
 _symmetry_equiv_pos_site_id
 _symmetry_equiv_pos_as_xyz
  1  'x, y, z'
loop_
 _atom_site_type_symbol
 _atom_site_label
 _atom_site_symmetry_multiplicity
 _atom_site_fract_x
 _atom_site_fract_y
 _atom_site_fract_z
 _atom_site_occupancy
  Tm  Tm0  1  0.00000000  0.49999999  0.28186501  1
  Tm  Tm1  1  0.49999999  0.00000000  0.71813504  1
  Ge  Ge2  1  0.49999999  0.49999999  0.00000000  1
  Sn  Sn3  1  0.00000000  0.00000000  0.00000000  1
  Ge  Ge4  1  0.00000000  0.49999999  0.63960203  1
  Ge  Ge5  1  0.49999999  0.00000000  0.36039802  1
