# generated using pymatgen
data_CeMg7Sb4
_symmetry_space_group_name_H-M   'P 1'
_cell_length_a   4.62570810
_cell_length_b   7.74745798
_cell_length_c   8.52533054
_cell_angle_alpha   90.00000000
_cell_angle_beta   90.00000000
_cell_angle_gamma   90.00000000
_symmetry_Int_Tables_number   1
_chemical_formula_structural   CeMg7Sb4
_chemical_formula_sum   'Ce1 Mg7 Sb4'
_cell_volume   305.52635570
_cell_formula_units_Z   1
loop_
 _symmetry_equiv_pos_site_id
 _symmetry_equiv_pos_as_xyz
  1  'x, y, z'
loop_
 _atom_site_type_symbol
 _atom_site_label
 _atom_site_symmetry_multiplicity
 _atom_site_fract_x
 _atom_site_fract_y
 _atom_site_fract_z
 _atom_site_occupancy
  Ce  Ce0  1  0.74999998  0.47883800  0.80667704  1
  Mg  Mg1  1  0.24999999  0.52116200  0.19332301  1
  Mg  Mg2  1  0.24999999  0.02116200  0.30667702  1
  Mg  Mg3  1  0.74999998  0.97883800  0.69332304  1
  Mg  Mg4  1  0.74999998  0.85846500  0.06409900  1
  Mg  Mg5  1  0.74999998  0.35846500  0.43590102  1
  Mg  Mg6  1  0.24999999  0.14153500  0.93590105  1
  Mg  Mg7  1  0.24999999  0.64153500  0.56409903  1
  Sb  Sb8  1  0.74999998  0.74238700  0.38518602  1
  Sb  Sb9  1  0.24999999  0.25761300  0.61481403  1
  Sb  Sb10  1  0.74999998  0.24238700  0.11481401  1
  Sb  Sb11  1  0.24999999  0.75761300  0.88518605  1
