# generated using pymatgen
data_Te3Ir
_symmetry_space_group_name_H-M   'P 1'
_cell_length_a   3.95696759
_cell_length_b   3.95696759
_cell_length_c   7.75010681
_cell_angle_alpha   75.20955658
_cell_angle_beta   75.20955658
_cell_angle_gamma   60.00000763
_symmetry_Int_Tables_number   1
_chemical_formula_structural   Te3Ir
_chemical_formula_sum   'Te3 Ir1'
_cell_volume   100.42088401
_cell_formula_units_Z   1
loop_
 _symmetry_equiv_pos_site_id
 _symmetry_equiv_pos_as_xyz
  1  'x, y, z'
loop_
 _atom_site_type_symbol
 _atom_site_label
 _atom_site_symmetry_multiplicity
 _atom_site_fract_x
 _atom_site_fract_y
 _atom_site_fract_z
 _atom_site_occupancy
  Te  Te0  1  0.77297597  0.77297599  0.68107203  1
  Te  Te1  1  0.22702399  0.22702400  0.31892801  1
  Te  Te2  1  0.00000000  0.00000000  0.00000000  1
  Ir  Ir3  1  0.49999998  0.49999999  0.50000002  1
