# generated using pymatgen
data_ZrAl
_symmetry_space_group_name_H-M   'P 1'
_cell_length_a   5.16511583
_cell_length_b   5.17484426
_cell_length_c   5.17484426
_cell_angle_alpha   61.27225494
_cell_angle_beta   60.06216812
_cell_angle_gamma   60.06216812
_symmetry_Int_Tables_number   1
_chemical_formula_structural   ZrAl
_chemical_formula_sum   'Zr3 Al3'
_cell_volume   98.80469056
_cell_formula_units_Z   3
loop_
 _symmetry_equiv_pos_site_id
 _symmetry_equiv_pos_as_xyz
  1  'x, y, z'
loop_
 _atom_site_type_symbol
 _atom_site_label
 _atom_site_symmetry_multiplicity
 _atom_site_fract_x
 _atom_site_fract_y
 _atom_site_fract_z
 _atom_site_occupancy
  Zr  Zr0  1  0.62496402  0.62503598  0.12503603  1
  Zr  Zr1  1  0.37503601  0.37496399  0.87496400  1
  Zr  Zr2  1  0.00000000  0.00000000  0.00000000  1
  Al  Al3  1  1.00000003  0.49999998  0.50000003  1
  Al  Al4  1  0.50000001  0.00000000  0.50000000  1
  Al  Al5  1  1.00000002  0.00000000  0.50000001  1
