# generated using pymatgen
data_GdZr2Al2C3
_symmetry_space_group_name_H-M   'P 1'
_cell_length_a   3.89993954
_cell_length_b   3.89993954
_cell_length_c   10.37485409
_cell_angle_alpha   79.16674042
_cell_angle_beta   79.16674042
_cell_angle_gamma   60.00000763
_symmetry_Int_Tables_number   1
_chemical_formula_structural   GdZr2Al2C3
_chemical_formula_sum   'Gd1 Zr2 Al2 C3'
_cell_volume   133.39877499
_cell_formula_units_Z   1
loop_
 _symmetry_equiv_pos_site_id
 _symmetry_equiv_pos_as_xyz
  1  'x, y, z'
loop_
 _atom_site_type_symbol
 _atom_site_label
 _atom_site_symmetry_multiplicity
 _atom_site_fract_x
 _atom_site_fract_y
 _atom_site_fract_z
 _atom_site_occupancy
  Zr  Zr0  1  0.37969401  0.37969400  0.86091803  1
  C  C1  1  0.62030601  0.62030600  0.13908201  1
  Al  Al2  1  0.19629400  0.19629400  0.41111802  1
  C  C3  1  0.80370601  0.80370600  0.58888203  1
  Al  Al4  1  0.11170200  0.11170200  0.66489402  1
  Gd  Gd5  1  0.88829801  0.88829801  0.33510602  1
  Zr  Zr6  1  0.30540501  0.30540500  0.08378501  1
  C  C7  1  0.69459501  0.69459500  0.91621504  1
