# generated using pymatgen
data_MnO2
_symmetry_space_group_name_H-M   'P 1'
_cell_length_a   4.74141788
_cell_length_b   5.03271055
_cell_length_c   5.80209303
_cell_angle_alpha   90.00000000
_cell_angle_beta   90.00000000
_cell_angle_gamma   91.48254395
_symmetry_Int_Tables_number   1
_chemical_formula_structural   MnO2
_chemical_formula_sum   'Mn4 O8'
_cell_volume   138.40426459
_cell_formula_units_Z   4
loop_
 _symmetry_equiv_pos_site_id
 _symmetry_equiv_pos_as_xyz
  1  'x, y, z'
loop_
 _atom_site_type_symbol
 _atom_site_label
 _atom_site_symmetry_multiplicity
 _atom_site_fract_x
 _atom_site_fract_y
 _atom_site_fract_z
 _atom_site_occupancy
  Mn  Mn0  1  0.50000004  0.50000001  0.83202500  1
  Mn  Mn1  1  0.50000001  0.00000000  0.18820600  1
  Mn  Mn2  1  0.00000000  0.00000000  0.68349500  1
  Mn  Mn3  1  0.00000002  0.50000001  0.30895300  1
  O  O4  1  0.70896805  0.68330802  0.09997400  1
  O  O5  1  0.77443903  0.15740000  0.38789900  1
  O  O6  1  0.22556105  0.84260002  0.38789900  1
  O  O7  1  0.29103202  0.31669201  0.09997400  1
  O  O8  1  0.26470105  0.82068802  0.87777300  1
  O  O9  1  0.24125602  0.32305701  0.62801500  1
  O  O10  1  0.75874405  0.67694302  0.62801500  1
  O  O11  1  0.73529903  0.17931200  0.87777300  1
