# generated using pymatgen
data_Li2Mn4OF7
_symmetry_space_group_name_H-M   'P 1'
_cell_length_a   5.43364668
_cell_length_b   5.46643877
_cell_length_c   5.99768019
_cell_angle_alpha   90.00007629
_cell_angle_beta   114.51188660
_cell_angle_gamma   90.00000000
_symmetry_Int_Tables_number   1
_chemical_formula_structural   Li2Mn4OF7
_chemical_formula_sum   'Li2 Mn4 O1 F7'
_cell_volume   162.09179223
_cell_formula_units_Z   1
loop_
 _symmetry_equiv_pos_site_id
 _symmetry_equiv_pos_as_xyz
  1  'x, y, z'
loop_
 _atom_site_type_symbol
 _atom_site_label
 _atom_site_symmetry_multiplicity
 _atom_site_fract_x
 _atom_site_fract_y
 _atom_site_fract_z
 _atom_site_occupancy
  O  O0  1  0.81835092  0.65434303  0.94153588  1
  F  F1  1  0.31834992  0.84565804  0.94154188  1
  F  F2  1  0.68166496  0.15436001  0.05846296  1
  F  F3  1  0.18166497  0.34563901  0.05846296  1
  F  F4  1  0.23283792  0.90461304  0.35295090  1
  F  F5  1  0.73282793  0.59539503  0.35293491  1
  F  F6  1  0.26715896  0.40461602  0.64707093  1
  F  F7  1  0.76716097  0.09538000  0.64706594  1
  Mn  Mn8  1  0.49999994  0.50000902  0.99999390  1
  Mn  Mn9  1  0.00000592  0.99999304  0.99999687  1
  Mn  Mn10  1  0.39355298  0.04047200  0.70012096  1
  Li  Li11  1  0.10643895  0.54046302  0.29986794  1
  Li  Li12  1  0.89355193  0.45952602  0.70011991  1
  Mn  Mn13  1  0.60643390  0.95953204  0.29987289  1
