# generated using pymatgen
data_La(AgGe)2
_symmetry_space_group_name_H-M   'P 1'
_cell_length_a   4.38625813
_cell_length_b   4.38625813
_cell_length_c   6.22506428
_cell_angle_alpha   110.62844086
_cell_angle_beta   110.62844086
_cell_angle_gamma   90.00000000
_symmetry_Int_Tables_number   1
_chemical_formula_structural   La(AgGe)2
_chemical_formula_sum   'La1 Ag2 Ge2'
_cell_volume   103.84174903
_cell_formula_units_Z   1
loop_
 _symmetry_equiv_pos_site_id
 _symmetry_equiv_pos_as_xyz
  1  'x, y, z'
loop_
 _atom_site_type_symbol
 _atom_site_label
 _atom_site_symmetry_multiplicity
 _atom_site_fract_x
 _atom_site_fract_y
 _atom_site_fract_z
 _atom_site_occupancy
  La  La0  1  0.00000000  0.00000000  0.00000000  1
  Ag  Ag1  1  0.25000001  0.74999999  0.50000003  1
  Ag  Ag2  1  0.74999999  0.25000000  0.50000003  1
  Ge  Ge3  1  0.38515900  0.38515899  0.77031803  1
  Ge  Ge4  1  0.61484100  0.61484099  0.22968203  1
