# generated using pymatgen
data_Na4O3
_symmetry_space_group_name_H-M   'P 1'
_cell_length_a   6.84896708
_cell_length_b   6.84896708
_cell_length_c   6.84896708
_cell_angle_alpha   60.00000000
_cell_angle_beta   60.00000000
_cell_angle_gamma   60.00000000
_symmetry_Int_Tables_number   1
_chemical_formula_structural   Na4O3
_chemical_formula_sum   'Na8 O6'
_cell_volume   227.17484350
_cell_formula_units_Z   2
loop_
 _symmetry_equiv_pos_site_id
 _symmetry_equiv_pos_as_xyz
  1  'x, y, z'
loop_
 _atom_site_type_symbol
 _atom_site_label
 _atom_site_symmetry_multiplicity
 _atom_site_fract_x
 _atom_site_fract_y
 _atom_site_fract_z
 _atom_site_occupancy
  O  O0  1  0.74999999  0.74999999  0.74999999  1
  O  O1  1  0.00000000  0.00000000  0.00000000  1
  O  O2  1  0.87499999  0.37500000  0.37500000  1
  O  O3  1  0.37500000  0.37500000  0.37500000  1
  O  O4  1  0.37500000  0.37500000  0.87499999  1
  O  O5  1  0.37500000  0.87499999  0.37500000  1
  Na  Na6  1  0.61234099  0.16297500  0.61234199  1
  Na  Na7  1  0.13765900  0.13765800  0.13765800  1
  Na  Na8  1  0.61234099  0.61234199  0.61234199  1
  Na  Na9  1  0.61234099  0.61234199  0.16297500  1
  Na  Na10  1  0.16297400  0.61234199  0.61234199  1
  Na  Na11  1  0.58702599  0.13765800  0.13765800  1
  Na  Na12  1  0.13765900  0.58702499  0.13765800  1
  Na  Na13  1  0.13765900  0.13765800  0.58702499  1
