# generated using pymatgen
data_Ce2Si3Ir
_symmetry_space_group_name_H-M   'P 1'
_cell_length_a   4.31369400
_cell_length_b   4.31369400
_cell_length_c   13.50640297
_cell_angle_alpha   90.00000000
_cell_angle_beta   90.00000000
_cell_angle_gamma   90.00000000
_symmetry_Int_Tables_number   1
_chemical_formula_structural   Ce2Si3Ir
_chemical_formula_sum   'Ce4 Si6 Ir2'
_cell_volume   251.32655120
_cell_formula_units_Z   2
loop_
 _symmetry_equiv_pos_site_id
 _symmetry_equiv_pos_as_xyz
  1  'x, y, z'
loop_
 _atom_site_type_symbol
 _atom_site_label
 _atom_site_symmetry_multiplicity
 _atom_site_fract_x
 _atom_site_fract_y
 _atom_site_fract_z
 _atom_site_occupancy
  Ce  Ce0  1  0.00000000  0.00000000  0.50000000  1
  Ce  Ce1  1  0.50000000  0.00000000  0.74906300  1
  Ce  Ce2  1  0.00000000  0.50000000  0.25093700  1
  Ce  Ce3  1  0.50000000  0.50000000  0.00000000  1
  Ir  Ir4  1  0.00000000  0.00000000  0.91481400  1
  Si  Si5  1  0.50000000  0.50000000  0.41510000  1
  Si  Si6  1  0.00000000  0.50000000  0.83532000  1
  Si  Si7  1  0.50000000  0.00000000  0.33508900  1
  Si  Si8  1  0.00000000  0.00000000  0.08518600  1
  Si  Si9  1  0.50000000  0.50000000  0.58490000  1
  Ir  Ir10  1  0.50000000  0.00000000  0.16468000  1
  Si  Si11  1  0.00000000  0.50000000  0.66491100  1
