# generated using pymatgen
data_K3MnSe3
_symmetry_space_group_name_H-M   'P 1'
_cell_length_a   8.00282478
_cell_length_b   8.00282478
_cell_length_c   8.59253502
_cell_angle_alpha   105.02177429
_cell_angle_beta   105.02177429
_cell_angle_gamma   109.89480591
_symmetry_Int_Tables_number   1
_chemical_formula_structural   K3MnSe3
_chemical_formula_sum   'K6 Mn2 Se6'
_cell_volume   461.77744703
_cell_formula_units_Z   2
loop_
 _symmetry_equiv_pos_site_id
 _symmetry_equiv_pos_as_xyz
  1  'x, y, z'
loop_
 _atom_site_type_symbol
 _atom_site_label
 _atom_site_symmetry_multiplicity
 _atom_site_fract_x
 _atom_site_fract_y
 _atom_site_fract_z
 _atom_site_occupancy
  K  K0  1  -0.00000000  0.50000002  -0.00000002  1
  K  K1  1  0.50000002  0.00000000  -0.00000002  1
  K  K2  1  0.21076901  0.21076901  0.68265699  1
  K  K3  1  0.78923102  0.78923103  0.31734294  1
  K  K4  1  0.33697501  0.66302502  0.49999997  1
  K  K5  1  0.66302502  0.33697501  0.49999997  1
  Mn  Mn6  1  0.11642100  0.11642100  0.15170499  1
  Mn  Mn7  1  0.88357903  0.88357903  0.84829494  1
  Se  Se8  1  0.36953801  0.36953801  0.13318397  1
  Se  Se9  1  0.63046202  0.63046202  0.86681596  1
  Se  Se10  1  0.24858000  0.94964403  0.30240496  1
  Se  Se11  1  0.05035599  0.75142003  0.69759498  1
  Se  Se12  1  0.75142003  0.05035600  0.69759498  1
  Se  Se13  1  0.94964404  0.24858001  0.30240496  1
