# generated using pymatgen
data_La2Ga7Ni3
_symmetry_space_group_name_H-M   'P 1'
_cell_length_a   5.62468624
_cell_length_b   6.69771862
_cell_length_c   6.69771862
_cell_angle_alpha   65.57801819
_cell_angle_beta   65.17199707
_cell_angle_gamma   65.17199707
_symmetry_Int_Tables_number   1
_chemical_formula_structural   La2Ga7Ni3
_chemical_formula_sum   'La2 Ga7 Ni3'
_cell_volume   199.03337357
_cell_formula_units_Z   1
loop_
 _symmetry_equiv_pos_site_id
 _symmetry_equiv_pos_as_xyz
  1  'x, y, z'
loop_
 _atom_site_type_symbol
 _atom_site_label
 _atom_site_symmetry_multiplicity
 _atom_site_fract_x
 _atom_site_fract_y
 _atom_site_fract_z
 _atom_site_occupancy
  La  La0  1  0.46770098  0.24999999  0.24999998  1
  La  La1  1  0.53229896  0.74999998  0.74999997  1
  Ni  Ni2  1  0.77898996  0.41980199  0.41980097  1
  Ga  Ga3  1  0.88140795  0.91980097  0.91980096  1
  Ni  Ni4  1  0.22100998  0.58019798  0.58019898  1
  Ga  Ga5  1  0.11859199  0.08019900  0.08019900  1
  Ga  Ga6  1  0.49999996  0.78189798  0.21810199  1
  Ni  Ni7  1  -0.00000002  0.49999999  0.00000001  1
  Ga  Ga8  1  -0.00000002  0.71810198  0.28189800  1
  Ga  Ga9  1  0.49999998  0.21810199  0.78189796  1
  Ga  Ga10  1  -0.00000001  0.28189799  0.71810198  1
  Ga  Ga11  1  0.00000000  0.00000000  0.49999998  1
