# generated using pymatgen
data_KGd3Zr2ClO4
_symmetry_space_group_name_H-M   'P 1'
_cell_length_a   5.55162001
_cell_length_b   5.76491642
_cell_length_c   6.32954168
_cell_angle_alpha   77.80958557
_cell_angle_beta   63.98870468
_cell_angle_gamma   61.21655273
_symmetry_Int_Tables_number   1
_chemical_formula_structural   KGd3Zr2ClO4
_chemical_formula_sum   'K1 Gd3 Zr2 Cl1 O4'
_cell_volume   159.56164501
_cell_formula_units_Z   1
loop_
 _symmetry_equiv_pos_site_id
 _symmetry_equiv_pos_as_xyz
  1  'x, y, z'
loop_
 _atom_site_type_symbol
 _atom_site_label
 _atom_site_symmetry_multiplicity
 _atom_site_fract_x
 _atom_site_fract_y
 _atom_site_fract_z
 _atom_site_occupancy
  Cl  Cl0  1  0.85634899  0.00000000  0.28730202  1
  K  K1  1  0.14365100  0.00000000  0.71269798  1
  O  O2  1  0.79126498  0.67667801  0.74079198  1
  O  O3  1  0.20873499  0.32332201  0.25920799  1
  O  O4  1  0.53205699  0.67667801  0.25920799  1
  O  O5  1  0.46794299  0.32332201  0.74079198  1
  Zr  Zr6  1  0.24999999  0.50000001  0.49999998  1
  Gd  Gd7  1  -0.00000000  0.50000001  -0.00000001  1
  Gd  Gd8  1  0.49999999  0.00000000  0.00000001  1
  Gd  Gd9  1  0.49999999  0.50000001  0.00000000  1
  Zr  Zr10  1  0.74999998  0.50000001  0.49999999  1
