# generated using pymatgen
data_KMn2
_symmetry_space_group_name_H-M   'P 1'
_cell_length_a   4.69677591
_cell_length_b   4.69677591
_cell_length_c   4.69677591
_cell_angle_alpha   60.00000000
_cell_angle_beta   60.00000000
_cell_angle_gamma   60.00000000
_symmetry_Int_Tables_number   1
_chemical_formula_structural   KMn2
_chemical_formula_sum   'K3 Mn6'
_cell_volume   73.26297036
_cell_formula_units_Z   3
loop_
 _symmetry_equiv_pos_site_id
 _symmetry_equiv_pos_as_xyz
  1  'x, y, z'
loop_
 _atom_site_type_symbol
 _atom_site_label
 _atom_site_symmetry_multiplicity
 _atom_site_fract_x
 _atom_site_fract_y
 _atom_site_fract_z
 _atom_site_occupancy
  Mn  Mn0  1  0.24999999  0.24999999  0.24999999  1
  Mn  Mn1  1  0.74999998  0.74999998  0.74999998  1
  Mn  Mn2  1  0.74677898  0.74677898  0.25322099  1
  K  K3  1  0.25322099  0.74677898  0.74677898  1
  K  K4  1  0.25322099  0.74677898  0.25322099  1
  K  K5  1  0.25322099  0.25322099  0.74677898  1
  Mn  Mn6  1  0.74677898  0.25322099  0.25322099  1
  Mn  Mn7  1  0.74677898  0.25322099  0.74677898  1
  Mn  Mn8  1  0.00000000  0.00000000  0.00000000  1
