# generated using pymatgen
data_Cs2Mn5
_symmetry_space_group_name_H-M   'P 1'
_cell_length_a   3.87158394
_cell_length_b   6.90443087
_cell_length_c   11.88652706
_cell_angle_alpha   90.00000000
_cell_angle_beta   90.00000000
_cell_angle_gamma   90.00000000
_symmetry_Int_Tables_number   1
_chemical_formula_structural   Cs2Mn5
_chemical_formula_sum   'Cs4 Mn10'
_cell_volume   317.73974915
_cell_formula_units_Z   2
loop_
 _symmetry_equiv_pos_site_id
 _symmetry_equiv_pos_as_xyz
  1  'x, y, z'
loop_
 _atom_site_type_symbol
 _atom_site_label
 _atom_site_symmetry_multiplicity
 _atom_site_fract_x
 _atom_site_fract_y
 _atom_site_fract_z
 _atom_site_occupancy
  Cs  Cs0  1  0.50000001  0.07386100  0.31894900  1
  Mn  Mn1  1  0.50000001  0.92613902  0.68105100  1
  Cs  Cs2  1  0.50000001  0.42613901  0.81894900  1
  Mn  Mn3  1  0.50000001  0.57386101  0.18105100  1
  Mn  Mn4  1  0.00000000  0.00000000  0.00000000  1
  Mn  Mn5  1  0.00000000  0.50000001  0.50000000  1
  Mn  Mn6  1  0.00000000  0.36837001  0.30970100  1
  Mn  Mn7  1  0.00000000  0.63163001  0.69029900  1
  Cs  Cs8  1  -0.00000000  0.13163000  0.80970100  1
  Mn  Mn9  1  0.00000000  0.86837002  0.19029900  1
  Mn  Mn10  1  0.50000001  0.22675600  0.04971000  1
  Cs  Cs11  1  0.50000001  0.77324401  0.95029000  1
  Mn  Mn12  1  0.50000001  0.27324401  0.54971000  1
  Mn  Mn13  1  0.50000001  0.72675601  0.45029000  1
