# generated using pymatgen
data_Li3MnNF
_symmetry_space_group_name_H-M   'P 1'
_cell_length_a   3.05552602
_cell_length_b   4.53104830
_cell_length_c   4.53104830
_cell_angle_alpha   91.16120911
_cell_angle_beta   90.00000000
_cell_angle_gamma   90.00000000
_symmetry_Int_Tables_number   1
_chemical_formula_structural   Li3MnNF
_chemical_formula_sum   'Li3 Mn1 N1 F1'
_cell_volume   62.71828441
_cell_formula_units_Z   1
loop_
 _symmetry_equiv_pos_site_id
 _symmetry_equiv_pos_as_xyz
  1  'x, y, z'
loop_
 _atom_site_type_symbol
 _atom_site_label
 _atom_site_symmetry_multiplicity
 _atom_site_fract_x
 _atom_site_fract_y
 _atom_site_fract_z
 _atom_site_occupancy
  N  N0  1  0.50000000  0.50000000  0.49999997  1
  F  F1  1  0.00000000  0.00000000  0.00000000  1
  Li  Li2  1  -0.00000000  0.68853800  0.68853796  1
  Li  Li3  1  0.50000000  0.20214200  0.79785799  1
  Li  Li4  1  0.50000000  0.79785800  0.20214195  1
  Mn  Mn5  1  -0.00000000  0.31146200  0.31146198  1
