# generated using pymatgen
data_Cs2RbMnO3
_symmetry_space_group_name_H-M   'P 1'
_cell_length_a   4.01106787
_cell_length_b   5.78629732
_cell_length_c   5.95809031
_cell_angle_alpha   73.35650635
_cell_angle_beta   70.32971954
_cell_angle_gamma   69.72046661
_symmetry_Int_Tables_number   1
_chemical_formula_structural   Cs2RbMnO3
_chemical_formula_sum   'Cs2 Rb1 Mn1 O3'
_cell_volume   119.86494031
_cell_formula_units_Z   1
loop_
 _symmetry_equiv_pos_site_id
 _symmetry_equiv_pos_as_xyz
  1  'x, y, z'
loop_
 _atom_site_type_symbol
 _atom_site_label
 _atom_site_symmetry_multiplicity
 _atom_site_fract_x
 _atom_site_fract_y
 _atom_site_fract_z
 _atom_site_occupancy
  Cs  Cs0  1  0.44109396  0.81622499  0.30158705  1
  Cs  Cs1  1  0.55890601  0.18377500  0.69841299  1
  Mn  Mn2  1  0.80535001  0.30251400  0.08678601  1
  O  O3  1  0.19464996  0.69748599  0.91321403  1
  O  O4  1  0.82035899  0.61459899  0.74468302  1
  O  O5  1  0.17964098  0.38540100  0.25531702  1
  Rb  Rb6  1  0.00000000  0.00000000  0.00000000  1
