# generated using pymatgen
data_MnVCrAuO8
_symmetry_space_group_name_H-M   'P 1'
_cell_length_a   3.76505899
_cell_length_b   5.12850761
_cell_length_c   7.69383383
_cell_angle_alpha   89.98764801
_cell_angle_beta   75.83341980
_cell_angle_gamma   90.02828217
_symmetry_Int_Tables_number   1
_chemical_formula_structural   MnVCrAuO8
_chemical_formula_sum   'Mn1 V1 Cr1 Au1 O8'
_cell_volume   144.04323475
_cell_formula_units_Z   1
loop_
 _symmetry_equiv_pos_site_id
 _symmetry_equiv_pos_as_xyz
  1  'x, y, z'
loop_
 _atom_site_type_symbol
 _atom_site_label
 _atom_site_symmetry_multiplicity
 _atom_site_fract_x
 _atom_site_fract_y
 _atom_site_fract_z
 _atom_site_occupancy
  Mn  Mn0  1  0.81125400  0.46056599  0.37864200  1
  Au  Au1  1  0.18933997  0.96040699  0.62133503  1
  V  V2  1  0.59047799  0.47025399  0.81918902  1
  O  O3  1  0.40957798  0.96981599  0.18063901  1
  O  O4  1  0.65802099  0.78105299  0.68458702  1
  O  O5  1  0.52234000  0.15647300  0.95538402  1
  Cr  Cr6  1  0.90686898  0.96864899  0.18616600  1
  O  O7  1  0.69792600  0.27032200  0.60371401  1
  O  O8  1  0.47750899  0.65645499  0.04468400  1
  O  O9  1  0.09300799  0.46886499  0.81388503  1
  O  O10  1  0.30143598  0.76992899  0.39628202  1
  O  O11  1  0.34224100  0.28101300  0.31549201  1
