# generated using pymatgen
data_Li3TaO4
_symmetry_space_group_name_H-M   'P 1'
_cell_length_a   4.22276068
_cell_length_b   4.22548628
_cell_length_c   5.15516949
_cell_angle_alpha   114.19448090
_cell_angle_beta   114.17693329
_cell_angle_gamma   89.99754333
_symmetry_Int_Tables_number   1
_chemical_formula_structural   Li3TaO4
_chemical_formula_sum   'Li3 Ta1 O4'
_cell_volume   74.97261824
_cell_formula_units_Z   1
loop_
 _symmetry_equiv_pos_site_id
 _symmetry_equiv_pos_as_xyz
  1  'x, y, z'
loop_
 _atom_site_type_symbol
 _atom_site_label
 _atom_site_symmetry_multiplicity
 _atom_site_fract_x
 _atom_site_fract_y
 _atom_site_fract_z
 _atom_site_occupancy
  O  O0  1  0.75113301  0.25224600  0.50078697  1
  O  O1  1  0.50152998  0.50190901  0.00031497  1
  O  O2  1  0.25152395  0.75229901  0.50099494  1
  O  O3  1  0.00170900  0.00235900  0.00115900  1
  Ta  Ta4  1  0.23254799  0.23338900  0.46314497  1
  Li  Li5  1  0.77058097  0.77138901  0.53913694  1
  Li  Li6  1  0.02076296  0.52133801  0.03912797  1
  Li  Li7  1  0.48267694  0.98331201  0.96304491  1
