# generated using pymatgen
data_RbVH5AuO7
_symmetry_space_group_name_H-M   'P 1'
_cell_length_a   5.90927982
_cell_length_b   5.90927982
_cell_length_c   5.90927935
_cell_angle_alpha   62.08290482
_cell_angle_beta   62.08290482
_cell_angle_gamma   62.08290863
_symmetry_Int_Tables_number   1
_chemical_formula_structural   RbVH5AuO7
_chemical_formula_sum   'Rb1 V1 H5 Au1 O7'
_cell_volume   152.70504165
_cell_formula_units_Z   1
loop_
 _symmetry_equiv_pos_site_id
 _symmetry_equiv_pos_as_xyz
  1  'x, y, z'
loop_
 _atom_site_type_symbol
 _atom_site_label
 _atom_site_symmetry_multiplicity
 _atom_site_fract_x
 _atom_site_fract_y
 _atom_site_fract_z
 _atom_site_occupancy
  Rb  Rb0  1  0.83518000  0.83517998  0.83517999  1
  Au  Au1  1  0.16482000  0.16482000  0.16482000  1
  V  V2  1  0.50000000  0.49999999  0.50000000  1
  H  H3  1  0.93758699  0.35668399  0.65228400  1
  H  H4  1  0.35668401  0.65228399  0.93758700  1
  H  H5  1  0.65228401  0.93758698  0.35668399  1
  H  H6  1  0.06241301  0.64331599  0.34771600  1
  H  H7  1  0.64331600  0.34771599  0.06241299  1
  O  O8  1  0.34771600  0.06241300  0.64331601  1
  O  O9  1  0.86851399  0.29365299  0.57921000  1
  O  O10  1  0.29365301  0.57920999  0.86851400  1
  O  O11  1  0.57921001  0.86851398  0.29365299  1
  O  O12  1  0.13148601  0.70634698  0.42079000  1
  O  O13  1  0.70634700  0.42078999  0.13148599  1
  O  O14  1  0.42079000  0.13148600  0.70634701  1
