# generated using pymatgen
data_Cs2Mn5O
_symmetry_space_group_name_H-M   'P 1'
_cell_length_a   5.80309677
_cell_length_b   5.80309677
_cell_length_c   5.80309677
_cell_angle_alpha   60.00000000
_cell_angle_beta   60.00000000
_cell_angle_gamma   60.00000000
_symmetry_Int_Tables_number   1
_chemical_formula_structural   Cs2Mn5O
_chemical_formula_sum   'Cs2 Mn5 O1'
_cell_volume   138.18612567
_cell_formula_units_Z   1
loop_
 _symmetry_equiv_pos_site_id
 _symmetry_equiv_pos_as_xyz
  1  'x, y, z'
loop_
 _atom_site_type_symbol
 _atom_site_label
 _atom_site_symmetry_multiplicity
 _atom_site_fract_x
 _atom_site_fract_y
 _atom_site_fract_z
 _atom_site_occupancy
  Cs  Cs0  1  0.49999999  0.49999999  0.49999999  1
  Cs  Cs1  1  0.25000000  0.25000000  0.25000000  1
  O  O2  1  0.74999999  0.74999999  0.74999999  1
  Mn  Mn3  1  0.00000000  0.00000000  0.00000000  1
  Mn  Mn4  1  0.37499999  0.87499998  0.87499998  1
  Mn  Mn5  1  0.87499998  0.87499998  0.37499999  1
  Mn  Mn6  1  0.87499998  0.87499998  0.87499998  1
  Mn  Mn7  1  0.87499998  0.37499999  0.87499998  1
