# generated using pymatgen
data_Ce5TmH2
_symmetry_space_group_name_H-M   'P 1'
_cell_length_a   3.56171608
_cell_length_b   3.56171560
_cell_length_c   13.74971962
_cell_angle_alpha   90.00000000
_cell_angle_beta   90.00000000
_cell_angle_gamma   120.00000763
_symmetry_Int_Tables_number   1
_chemical_formula_structural   Ce5TmH2
_chemical_formula_sum   'Ce5 Tm1 H2'
_cell_volume   151.05773773
_cell_formula_units_Z   1
loop_
 _symmetry_equiv_pos_site_id
 _symmetry_equiv_pos_as_xyz
  1  'x, y, z'
loop_
 _atom_site_type_symbol
 _atom_site_label
 _atom_site_symmetry_multiplicity
 _atom_site_fract_x
 _atom_site_fract_y
 _atom_site_fract_z
 _atom_site_occupancy
  Ce  Ce0  1  0.66666667  0.33333334  0.25000001  1
  Ce  Ce1  1  0.33333337  0.66666668  0.75000002  1
  Ce  Ce2  1  0.00000000  0.00000000  0.00000000  1
  Tm  Tm3  1  0.00000000  0.00000000  0.50000001  1
  H  H4  1  0.66666667  0.33333334  0.58221802  1
  Ce  Ce5  1  0.66666667  0.33333334  0.91778203  1
  H  H6  1  0.33333337  0.66666668  0.41778201  1
  Ce  Ce7  1  0.33333337  0.66666668  0.08221800  1
