# generated using pymatgen
data_Pr4Nd4Pu
_symmetry_space_group_name_H-M   'P 1'
_cell_length_a   3.55672789
_cell_length_b   3.55672741
_cell_length_c   32.58847809
_cell_angle_alpha   90.00000000
_cell_angle_beta   90.00000000
_cell_angle_gamma   120.00000763
_symmetry_Int_Tables_number   1
_chemical_formula_structural   Pr4Nd4Pu
_chemical_formula_sum   'Pr4 Nd4 Pu1'
_cell_volume   357.02275673
_cell_formula_units_Z   1
loop_
 _symmetry_equiv_pos_site_id
 _symmetry_equiv_pos_as_xyz
  1  'x, y, z'
loop_
 _atom_site_type_symbol
 _atom_site_label
 _atom_site_symmetry_multiplicity
 _atom_site_fract_x
 _atom_site_fract_y
 _atom_site_fract_z
 _atom_site_occupancy
  Nd  Nd0  1  0.00000000  0.00000000  0.94426400  1
  Nd  Nd1  1  0.66666670  0.33333333  0.28704600  1
  Pu  Pu2  1  0.66666670  0.33333333  0.82442100  1
  Pr  Pr3  1  0.66666670  0.33333333  0.17557900  1
  Pr  Pr4  1  0.66666670  0.33333333  0.71295400  1
  Nd  Nd5  1  0.00000000  0.00000000  0.05573600  1
  Nd  Nd6  1  0.00000000  0.00000000  0.23134400  1
  Pr  Pr7  1  0.00000000  0.00000000  0.76865600  1
  Pr  Pr8  1  0.66666670  0.33333333  -0.00000000  1
