# generated using pymatgen
data_Mn7Sn
_symmetry_space_group_name_H-M   'P 1'
_cell_length_a   5.35077000
_cell_length_b   5.35077000
_cell_length_c   7.09650230
_cell_angle_alpha   112.14801025
_cell_angle_beta   112.14801025
_cell_angle_gamma   90.00000000
_symmetry_Int_Tables_number   1
_chemical_formula_structural   Mn7Sn
_chemical_formula_sum   'Mn7 Sn1'
_cell_volume   171.89171131
_cell_formula_units_Z   1
loop_
 _symmetry_equiv_pos_site_id
 _symmetry_equiv_pos_as_xyz
  1  'x, y, z'
loop_
 _atom_site_type_symbol
 _atom_site_label
 _atom_site_symmetry_multiplicity
 _atom_site_fract_x
 _atom_site_fract_y
 _atom_site_fract_z
 _atom_site_occupancy
  Mn  Mn0  1  0.00000000  0.00000000  0.00000000  1
  Mn  Mn1  1  0.75000000  0.25000000  0.50000002  1
  Mn  Mn2  1  0.50000000  0.50000000  0.00000000  1
  Sn  Sn3  1  0.25000000  0.75000000  0.50000002  1
  Mn  Mn4  1  0.77611800  0.77611800  0.55223602  1
  Mn  Mn5  1  0.22388200  0.22388200  0.44776401  1
  Mn  Mn6  1  0.97388200  0.47388200  0.94776403  1
  Mn  Mn7  1  0.52611800  0.02611800  0.05223600  1
