# generated using pymatgen
data_Cs2Mn4O
_symmetry_space_group_name_H-M   'P 1'
_cell_length_a   6.35661554
_cell_length_b   6.35661554
_cell_length_c   6.35661554
_cell_angle_alpha   60.00000000
_cell_angle_beta   60.00000000
_cell_angle_gamma   60.00000000
_symmetry_Int_Tables_number   1
_chemical_formula_structural   Cs2Mn4O
_chemical_formula_sum   'Cs4 Mn8 O2'
_cell_volume   181.61965180
_cell_formula_units_Z   2
loop_
 _symmetry_equiv_pos_site_id
 _symmetry_equiv_pos_as_xyz
  1  'x, y, z'
loop_
 _atom_site_type_symbol
 _atom_site_label
 _atom_site_symmetry_multiplicity
 _atom_site_fract_x
 _atom_site_fract_y
 _atom_site_fract_z
 _atom_site_occupancy
  O  O0  1  0.25000000  0.25000000  0.25000000  1
  O  O1  1  0.50000001  0.50000001  0.50000001  1
  Mn  Mn2  1  0.87500001  0.37500000  0.87500001  1
  Cs  Cs3  1  0.87500001  0.87500001  0.87500001  1
  Mn  Mn4  1  0.37500000  0.87500001  0.87500001  1
  Cs  Cs5  1  0.87500001  0.87500001  0.37500000  1
  Mn  Mn6  1  0.63202001  0.63202101  0.63202101  1
  Cs  Cs7  1  0.10393700  0.63202101  0.63202101  1
  Mn  Mn8  1  0.63202001  0.63202101  0.10393800  1
  Mn  Mn9  1  0.11798000  0.64606201  0.11797900  1
  Mn  Mn10  1  0.11798000  0.11797900  0.64606201  1
  Cs  Cs11  1  0.64606301  0.11797900  0.11797900  1
  Mn  Mn12  1  0.63202001  0.10393800  0.63202101  1
  Mn  Mn13  1  0.11798000  0.11797900  0.11797900  1
