# generated using pymatgen
data_RbMn4O6
_symmetry_space_group_name_H-M   'P 1'
_cell_length_a   4.60247993
_cell_length_b   5.97393370
_cell_length_c   6.62390614
_cell_angle_alpha   107.15131378
_cell_angle_beta   90.00000000
_cell_angle_gamma   112.65699768
_symmetry_Int_Tables_number   1
_chemical_formula_structural   RbMn4O6
_chemical_formula_sum   'Rb1 Mn4 O6'
_cell_volume   159.25640076
_cell_formula_units_Z   1
loop_
 _symmetry_equiv_pos_site_id
 _symmetry_equiv_pos_as_xyz
  1  'x, y, z'
loop_
 _atom_site_type_symbol
 _atom_site_label
 _atom_site_symmetry_multiplicity
 _atom_site_fract_x
 _atom_site_fract_y
 _atom_site_fract_z
 _atom_site_occupancy
  O  O0  1  0.67968102  0.35936200  0.86099805  1
  O  O1  1  0.69573202  0.39146400  0.32569703  1
  Mn  Mn2  1  0.30426802  0.60853600  0.67430305  1
  O  O3  1  0.32031902  0.64063800  0.13900203  1
  O  O4  1  0.00000000  0.00000000  0.50000002  1
  Mn  Mn5  1  0.00000000  0.00000000  0.00000000  1
  O  O6  1  0.13851201  0.27702400  0.83698004  1
  Mn  Mn7  1  0.50000001  0.00000000  0.00000000  1
  Mn  Mn8  1  0.15012801  0.30025600  0.30429702  1
  O  O9  1  0.84987203  0.69974400  0.69570306  1
  Rb  Rb10  1  0.86148804  0.72297600  0.16302004  1
