# generated using pymatgen
data_Cs3Mn4
_symmetry_space_group_name_H-M   'P 1'
_cell_length_a   6.48838377
_cell_length_b   8.04239559
_cell_length_c   11.70585918
_cell_angle_alpha   88.94184875
_cell_angle_beta   73.91026306
_cell_angle_gamma   86.17930603
_symmetry_Int_Tables_number   1
_chemical_formula_structural   Cs3Mn4
_chemical_formula_sum   'Cs6 Mn8'
_cell_volume   585.60525578
_cell_formula_units_Z   2
loop_
 _symmetry_equiv_pos_site_id
 _symmetry_equiv_pos_as_xyz
  1  'x, y, z'
loop_
 _atom_site_type_symbol
 _atom_site_label
 _atom_site_symmetry_multiplicity
 _atom_site_fract_x
 _atom_site_fract_y
 _atom_site_fract_z
 _atom_site_occupancy
  Mn  Mn0  1  0.32658100  0.25000000  0.34683802  1
  Cs  Cs1  1  0.67341899  0.74999999  0.65316204  1
  Mn  Mn2  1  0.07856799  0.25000000  0.84286403  1
  Mn  Mn3  1  0.92143199  0.74999999  0.15713603  1
  Mn  Mn4  1  0.71677602  0.10107100  0.06905801  1
  Mn  Mn5  1  0.18808396  0.99281999  0.61463803  1
  Cs  Cs6  1  0.36907098  0.74999999  0.26185802  1
  Mn  Mn7  1  0.19727798  0.50717999  0.61463803  1
  Mn  Mn8  1  0.78583400  0.60107099  0.93094204  1
  Mn  Mn9  1  0.21416599  0.39892900  0.06905801  1
  Cs  Cs10  1  0.80272200  0.49281999  0.38536203  1
  Cs  Cs11  1  0.63092901  0.25000000  0.73814203  1
  Cs  Cs12  1  0.81191602  0.00718000  0.38536202  1
  Cs  Cs13  1  0.28322397  0.89892899  0.93094204  1
