# generated using pymatgen
data_Pr9Er
_symmetry_space_group_name_H-M   'P 1'
_cell_length_a   3.39192390
_cell_length_b   7.37868452
_cell_length_c   7.78558493
_cell_angle_alpha   90.00000000
_cell_angle_beta   90.00000000
_cell_angle_gamma   103.28800964
_symmetry_Int_Tables_number   1
_chemical_formula_structural   Pr9Er
_chemical_formula_sum   'Pr9 Er1'
_cell_volume   189.64021354
_cell_formula_units_Z   1
loop_
 _symmetry_equiv_pos_site_id
 _symmetry_equiv_pos_as_xyz
  1  'x, y, z'
loop_
 _atom_site_type_symbol
 _atom_site_label
 _atom_site_symmetry_multiplicity
 _atom_site_fract_x
 _atom_site_fract_y
 _atom_site_fract_z
 _atom_site_occupancy
  Pr  Pr0  1  0.73714398  0.47428800  0.48932400  1
  Pr  Pr1  1  0.26285596  0.52571200  0.98932401  1
  Er  Er2  1  0.99696693  0.99393401  0.24401400  1
  Pr  Pr3  1  0.00303300  0.00606600  0.74401401  1
  Pr  Pr4  1  0.67432599  0.34865200  0.80937301  1
  Pr  Pr5  1  0.67464699  0.34929400  0.16921200  1
  Pr  Pr6  1  0.32535295  0.65070600  0.66921201  1
  Pr  Pr7  1  0.89555595  0.79111200  0.98907701  1
  Pr  Pr8  1  0.10444398  0.20888800  0.48907700  1
  Pr  Pr9  1  0.32567395  0.65134800  0.30937300  1
