# generated using pymatgen
data_Mn4NbV2O11
_symmetry_space_group_name_H-M   'P 1'
_cell_length_a   5.41595268
_cell_length_b   5.41595268
_cell_length_c   6.13836479
_cell_angle_alpha   90.00000000
_cell_angle_beta   90.00000000
_cell_angle_gamma   93.34430695
_symmetry_Int_Tables_number   1
_chemical_formula_structural   Mn4NbV2O11
_chemical_formula_sum   'Mn4 Nb1 V2 O11'
_cell_volume   179.74722099
_cell_formula_units_Z   1
loop_
 _symmetry_equiv_pos_site_id
 _symmetry_equiv_pos_as_xyz
  1  'x, y, z'
loop_
 _atom_site_type_symbol
 _atom_site_label
 _atom_site_symmetry_multiplicity
 _atom_site_fract_x
 _atom_site_fract_y
 _atom_site_fract_z
 _atom_site_occupancy
  Mn  Mn0  1  0.12538201  0.42115900  0.25000001  1
  Mn  Mn1  1  0.87461801  0.57884099  0.75000003  1
  O  O2  1  0.16185703  0.83814299  1.00000003  1
  Nb  Nb3  1  0.83814300  0.16185700  0.50000002  1
  Mn  Mn4  1  0.83814300  0.16185700  1.00000003  1
  O  O5  1  0.16185703  0.83814299  0.50000002  1
  O  O6  1  0.57884103  0.87461799  0.75000003  1
  Mn  Mn7  1  0.42115900  0.12538200  0.25000001  1
  V  V8  1  0.66129902  0.66129899  0.25000001  1
  O  O9  1  0.33870101  0.33870100  0.75000003  1
  V  V10  1  0.26682602  0.65577499  0.75000003  1
  O  O11  1  0.73317400  0.34422500  0.25000001  1
  O  O12  1  0.20370801  0.20370800  0.99245203  1
  O  O13  1  0.79629202  0.79629199  0.49245202  1
  O  O14  1  0.20370801  0.20370800  0.50754802  1
  O  O15  1  0.79629202  0.79629199  0.00754800  1
  O  O16  1  0.65577500  0.26682600  0.75000003  1
  O  O17  1  0.34422502  0.73317399  0.25000001  1
