# generated using pymatgen
data_TmMn7Sn2
_symmetry_space_group_name_H-M   'P 1'
_cell_length_a   5.86433935
_cell_length_b   5.86433935
_cell_length_c   5.86433935
_cell_angle_alpha   60.00000000
_cell_angle_beta   60.00000000
_cell_angle_gamma   60.00000000
_symmetry_Int_Tables_number   1
_chemical_formula_structural   TmMn7Sn2
_chemical_formula_sum   'Tm1 Mn7 Sn2'
_cell_volume   142.60747265
_cell_formula_units_Z   1
loop_
 _symmetry_equiv_pos_site_id
 _symmetry_equiv_pos_as_xyz
  1  'x, y, z'
loop_
 _atom_site_type_symbol
 _atom_site_label
 _atom_site_symmetry_multiplicity
 _atom_site_fract_x
 _atom_site_fract_y
 _atom_site_fract_z
 _atom_site_occupancy
  Sn  Sn0  1  0.74999998  0.74999998  0.74999998  1
  Sn  Sn1  1  0.24999999  0.24999999  0.24999999  1
  Mn  Mn2  1  0.49999999  0.49999999  0.49999999  1
  Tm  Tm3  1  0.00000000  0.00000000  0.00000000  1
  Mn  Mn4  1  0.24251799  0.75748198  0.75748198  1
  Mn  Mn5  1  0.24251799  0.24251799  0.75748198  1
  Mn  Mn6  1  0.24251799  0.75748198  0.24251799  1
  Mn  Mn7  1  0.75748198  0.24251799  0.24251799  1
  Mn  Mn8  1  0.75748198  0.75748198  0.24251799  1
  Mn  Mn9  1  0.75748198  0.24251799  0.75748198  1
