# generated using pymatgen
data_Pr6NdHo
_symmetry_space_group_name_H-M   'P 1'
_cell_length_a   4.13073778
_cell_length_b   4.13073778
_cell_length_c   10.49970245
_cell_angle_alpha   90.00000000
_cell_angle_beta   90.00000000
_cell_angle_gamma   120.00000000
_symmetry_Int_Tables_number   1
_chemical_formula_structural   Pr6NdHo
_chemical_formula_sum   'Pr6 Nd1 Ho1'
_cell_volume   155.15396462
_cell_formula_units_Z   1
loop_
 _symmetry_equiv_pos_site_id
 _symmetry_equiv_pos_as_xyz
  1  'x, y, z'
loop_
 _atom_site_type_symbol
 _atom_site_label
 _atom_site_symmetry_multiplicity
 _atom_site_fract_x
 _atom_site_fract_y
 _atom_site_fract_z
 _atom_site_occupancy
  Ho  Ho0  1  0.33333335  0.66666669  0.24999999  1
  Pr  Pr1  1  0.66666670  0.33333335  0.74999997  1
  Nd  Nd2  1  0.33333335  0.66666669  0.96544196  1
  Pr  Pr3  1  0.66666670  0.33333335  0.46544198  1
  Pr  Pr4  1  0.66666670  0.33333335  0.03455800  1
  Pr  Pr5  1  0.33333335  0.66666669  0.53455798  1
  Pr  Pr6  1  0.00000000  0.00000000  0.49999998  1
  Pr  Pr7  1  0.00000000  0.00000000  0.00000000  1
