# generated using pymatgen
data_BaThMn5Re
_symmetry_space_group_name_H-M   'P 1'
_cell_length_a   6.10102892
_cell_length_b   6.10102892
_cell_length_c   6.10102892
_cell_angle_alpha   60.00000000
_cell_angle_beta   60.00000000
_cell_angle_gamma   60.00000000
_symmetry_Int_Tables_number   1
_chemical_formula_structural   BaThMn5Re
_chemical_formula_sum   'Ba1 Th1 Mn5 Re1'
_cell_volume   160.58103505
_cell_formula_units_Z   1
loop_
 _symmetry_equiv_pos_site_id
 _symmetry_equiv_pos_as_xyz
  1  'x, y, z'
loop_
 _atom_site_type_symbol
 _atom_site_label
 _atom_site_symmetry_multiplicity
 _atom_site_fract_x
 _atom_site_fract_y
 _atom_site_fract_z
 _atom_site_occupancy
  Re  Re0  1  0.50000001  0.50000001  0.50000001  1
  Ba  Ba1  1  0.00000000  0.00000000  0.00000000  1
  Mn  Mn2  1  0.23666800  0.76333201  0.23666800  1
  Mn  Mn3  1  0.76333201  0.23666800  0.76333201  1
  Th  Th4  1  0.23666800  0.76333201  0.76333201  1
  Mn  Mn5  1  0.76333201  0.23666800  0.23666800  1
  Mn  Mn6  1  0.23666800  0.23666800  0.76333201  1
  Mn  Mn7  1  0.76333201  0.76333201  0.23666800  1
