# generated using pymatgen
data_Rb(LiH)2
_symmetry_space_group_name_H-M   'P 1'
_cell_length_a   3.83001590
_cell_length_b   3.83001590
_cell_length_c   5.65959358
_cell_angle_alpha   109.77729034
_cell_angle_beta   109.77729034
_cell_angle_gamma   90.00000000
_symmetry_Int_Tables_number   1
_chemical_formula_structural   Rb(LiH)2
_chemical_formula_sum   'Rb1 Li2 H2'
_cell_volume   72.89852499
_cell_formula_units_Z   1
loop_
 _symmetry_equiv_pos_site_id
 _symmetry_equiv_pos_as_xyz
  1  'x, y, z'
loop_
 _atom_site_type_symbol
 _atom_site_label
 _atom_site_symmetry_multiplicity
 _atom_site_fract_x
 _atom_site_fract_y
 _atom_site_fract_z
 _atom_site_occupancy
  Rb  Rb0  1  0.00000000  0.00000000  0.00000000  1
  H  H1  1  0.25000003  0.75000003  0.50000002  1
  H  H2  1  0.75000003  0.25000001  0.50000001  1
  Li  Li3  1  0.64074704  0.64074703  0.28149403  1
  Li  Li4  1  0.35925302  0.35925301  0.71850600  1
