# generated using pymatgen
data_Rb2PuTlInC
_symmetry_space_group_name_H-M   'P 1'
_cell_length_a   3.61470008
_cell_length_b   3.61470008
_cell_length_c   6.19810009
_cell_angle_alpha   90.00000000
_cell_angle_beta   90.00000000
_cell_angle_gamma   90.00000000
_symmetry_Int_Tables_number   1
_chemical_formula_structural   Rb2PuTlInC
_chemical_formula_sum   'Rb2 Pu1 Tl1 In1 C1'
_cell_volume   80.98472697
_cell_formula_units_Z   1
loop_
 _symmetry_equiv_pos_site_id
 _symmetry_equiv_pos_as_xyz
  1  'x, y, z'
loop_
 _atom_site_type_symbol
 _atom_site_label
 _atom_site_symmetry_multiplicity
 _atom_site_fract_x
 _atom_site_fract_y
 _atom_site_fract_z
 _atom_site_occupancy
  Tl  Tl0  1  0.00000000  0.00000000  0.00000000  1
  C  C1  1  0.49999999  0.49999999  0.00000000  1
  Pu  Pu2  1  0.00000000  0.49999999  0.25156200  1
  Rb  Rb3  1  0.49999999  0.00000000  0.74843799  1
  Rb  Rb4  1  0.00000000  0.49999999  0.63821799  1
  In  In5  1  0.49999999  0.00000000  0.36178199  1
