# generated using pymatgen
data_CsMn6O5
_symmetry_space_group_name_H-M   'P 1'
_cell_length_a   5.18679714
_cell_length_b   5.22651196
_cell_length_c   8.46471596
_cell_angle_alpha   90.00000000
_cell_angle_beta   90.00000000
_cell_angle_gamma   119.21572113
_symmetry_Int_Tables_number   1
_chemical_formula_structural   CsMn6O5
_chemical_formula_sum   'Cs1 Mn6 O5'
_cell_volume   200.27763667
_cell_formula_units_Z   1
loop_
 _symmetry_equiv_pos_site_id
 _symmetry_equiv_pos_as_xyz
  1  'x, y, z'
loop_
 _atom_site_type_symbol
 _atom_site_label
 _atom_site_symmetry_multiplicity
 _atom_site_fract_x
 _atom_site_fract_y
 _atom_site_fract_z
 _atom_site_occupancy
  O  O0  1  0.37758201  0.64760702  0.06121000  1
  O  O1  1  0.62241799  0.35239301  0.56121000  1
  O  O2  1  0.71089899  0.31431901  0.93642000  1
  O  O3  1  0.28910101  0.68568102  0.43642000  1
  Cs  Cs4  1  0.06137101  0.47093601  0.97335900  1
  Mn  Mn5  1  0.93862899  0.52906402  0.47335900  1
  Mn  Mn6  1  0.55918301  0.97359503  0.98775900  1
  Mn  Mn7  1  0.43629100  0.52375902  0.53489200  1
  Mn  Mn8  1  0.66648299  0.33401701  0.74885900  1
  Mn  Mn9  1  0.44081699  0.02640500  0.48775900  1
  O  O10  1  0.56370900  0.47624101  0.03489200  1
  Mn  Mn11  1  0.33351701  0.66598302  0.24885900  1
