# generated using pymatgen
data_TmMn3Pb2
_symmetry_space_group_name_H-M   'P 1'
_cell_length_a   4.87861395
_cell_length_b   4.87861347
_cell_length_c   7.38368702
_cell_angle_alpha   90.00000000
_cell_angle_beta   90.00000000
_cell_angle_gamma   120.00000763
_symmetry_Int_Tables_number   1
_chemical_formula_structural   TmMn3Pb2
_chemical_formula_sum   'Tm1 Mn3 Pb2'
_cell_volume   152.19372325
_cell_formula_units_Z   1
loop_
 _symmetry_equiv_pos_site_id
 _symmetry_equiv_pos_as_xyz
  1  'x, y, z'
loop_
 _atom_site_type_symbol
 _atom_site_label
 _atom_site_symmetry_multiplicity
 _atom_site_fract_x
 _atom_site_fract_y
 _atom_site_fract_z
 _atom_site_occupancy
  Mn  Mn0  1  0.00000000  0.00000000  0.73698300  1
  Pb  Pb1  1  0.00000000  0.00000000  0.26301700  1
  Tm  Tm2  1  0.66666670  0.33333334  0.52684400  1
  Mn  Mn3  1  0.33333339  0.66666669  0.47315600  1
  Mn  Mn4  1  0.33333339  0.66666669  0.04964200  1
  Pb  Pb5  1  0.66666670  0.33333334  0.95035800  1
