# generated using pymatgen
data_Mn2O3
_symmetry_space_group_name_H-M   'P 1'
_cell_length_a   2.91835594
_cell_length_b   5.02775097
_cell_length_c   7.11731052
_cell_angle_alpha   89.52158356
_cell_angle_beta   101.83055878
_cell_angle_gamma   90.00000000
_symmetry_Int_Tables_number   1
_chemical_formula_structural   Mn2O3
_chemical_formula_sum   'Mn4 O6'
_cell_volume   102.20862216
_cell_formula_units_Z   2
loop_
 _symmetry_equiv_pos_site_id
 _symmetry_equiv_pos_as_xyz
  1  'x, y, z'
loop_
 _atom_site_type_symbol
 _atom_site_label
 _atom_site_symmetry_multiplicity
 _atom_site_fract_x
 _atom_site_fract_y
 _atom_site_fract_z
 _atom_site_occupancy
  Mn  Mn0  1  0.20650700  0.92835100  0.41301400  1
  O  O1  1  0.99714500  0.99704600  0.99428999  1
  Mn  Mn2  1  0.65735300  0.45483600  0.31470599  1
  Mn  Mn3  1  0.34601900  0.53001200  0.69203801  1
  Mn  Mn4  1  0.42592600  0.84051000  0.85185201  1
  O  O5  1  0.57711900  0.13939900  0.15423799  1
  O  O6  1  0.90557800  0.35409200  0.81115599  1
  O  O7  1  0.10041500  0.64577600  0.20083000  1
  O  O8  1  0.76643100  0.70289000  0.53286199  1
  O  O9  1  0.23293100  0.29342600  0.46586200  1
