# generated using pymatgen
data_MnO2
_symmetry_space_group_name_H-M   'P 1'
_cell_length_a   6.78543282
_cell_length_b   6.78543282
_cell_length_c   7.14630795
_cell_angle_alpha   106.14914703
_cell_angle_beta   106.14914703
_cell_angle_gamma   114.46501923
_symmetry_Int_Tables_number   1
_chemical_formula_structural   MnO2
_chemical_formula_sum   'Mn6 O12'
_cell_volume   256.91644219
_cell_formula_units_Z   6
loop_
 _symmetry_equiv_pos_site_id
 _symmetry_equiv_pos_as_xyz
  1  'x, y, z'
loop_
 _atom_site_type_symbol
 _atom_site_label
 _atom_site_symmetry_multiplicity
 _atom_site_fract_x
 _atom_site_fract_y
 _atom_site_fract_z
 _atom_site_occupancy
  Mn  Mn0  1  0.00102499  0.50102500  0.49999999  1
  Mn  Mn1  1  0.75102499  0.75102500  -0.00000007  1
  O  O2  1  0.40093500  0.01008800  0.03872698  1
  O  O3  1  0.61220799  0.72136000  0.46127295  1
  O  O4  1  0.26008800  0.15093500  0.53872800  1
  O  O5  1  0.97136000  0.36220800  0.96127196  1
  Mn  Mn6  1  0.36511798  0.77778500  0.88233197  1
  Mn  Mn7  1  0.18645098  0.93382800  0.08372094  1
  O  O8  1  0.61617500  0.09682600  0.24502897  1
  O  O9  1  0.62114599  0.60179700  0.25497095  1
  O  O10  1  0.02778500  0.11511800  0.38233200  1
  O  O11  1  0.35272999  0.60010700  0.41627896  1
  Mn  Mn12  1  0.18382798  0.93645100  0.58372096  1
  O  O13  1  0.73278599  0.64545300  0.61766795  1
  O  O14  1  0.34682599  0.36617500  0.74502899  1
  O  O15  1  0.85179700  0.37114600  0.75497096  1
  O  O16  1  0.85010701  0.10273000  0.91627898  1
  Mn  Mn17  1  0.89545300  0.48278600  0.11766794  1
