# generated using pymatgen
data_RbMn5Pb2
_symmetry_space_group_name_H-M   'P 1'
_cell_length_a   5.53080511
_cell_length_b   5.53080511
_cell_length_c   5.53080511
_cell_angle_alpha   90.00000000
_cell_angle_beta   90.00000000
_cell_angle_gamma   90.00000000
_symmetry_Int_Tables_number   1
_chemical_formula_structural   RbMn5Pb2
_chemical_formula_sum   'Rb1 Mn5 Pb2'
_cell_volume   169.18625080
_cell_formula_units_Z   1
loop_
 _symmetry_equiv_pos_site_id
 _symmetry_equiv_pos_as_xyz
  1  'x, y, z'
loop_
 _atom_site_type_symbol
 _atom_site_label
 _atom_site_symmetry_multiplicity
 _atom_site_fract_x
 _atom_site_fract_y
 _atom_site_fract_z
 _atom_site_occupancy
  Mn  Mn0  1  0.00000000  0.00000000  0.00000000  1
  Mn  Mn1  1  0.00000000  0.00000000  0.49999999  1
  Pb  Pb2  1  0.00000000  0.49999999  0.00000000  1
  Pb  Pb3  1  0.49999999  0.00000000  0.00000000  1
  Rb  Rb4  1  0.75601298  0.75601298  0.24398700  1
  Mn  Mn5  1  0.75601298  0.24398700  0.75601298  1
  Mn  Mn6  1  0.24398700  0.75601298  0.75601298  1
  Mn  Mn7  1  0.24398700  0.24398700  0.24398700  1
