# generated using pymatgen
data_Mn2AuO7
_symmetry_space_group_name_H-M   'P 1'
_cell_length_a   6.41234827
_cell_length_b   6.41234827
_cell_length_c   8.36236286
_cell_angle_alpha   67.45522308
_cell_angle_beta   67.45522308
_cell_angle_gamma   59.99999619
_symmetry_Int_Tables_number   1
_chemical_formula_structural   Mn2AuO7
_chemical_formula_sum   'Mn2 Au1 O7'
_cell_volume   267.00659014
_cell_formula_units_Z   1
loop_
 _symmetry_equiv_pos_site_id
 _symmetry_equiv_pos_as_xyz
  1  'x, y, z'
loop_
 _atom_site_type_symbol
 _atom_site_label
 _atom_site_symmetry_multiplicity
 _atom_site_fract_x
 _atom_site_fract_y
 _atom_site_fract_z
 _atom_site_occupancy
  Au  Au0  1  0.16696600  0.16696600  0.49910200  1
  O  O1  1  0.83303400  0.83303401  0.50089808  1
  Mn  Mn2  1  0.45023800  0.45023801  0.64928603  1
  O  O3  1  0.54976200  0.54976201  0.35071405  1
  O  O4  1  0.24161099  0.57689901  0.27206604  1
  O  O5  1  0.57689899  0.90942401  0.27206607  1
  Mn  Mn6  1  0.90942400  0.24161100  0.27206605  1
  O  O7  1  0.75838900  0.42310100  0.72793404  1
  O  O8  1  0.42310100  0.09057600  0.72793401  1
  O  O9  1  0.09057599  0.75838901  0.72793403  1
