# generated using pymatgen
data_LaMn3Zn3Si
_symmetry_space_group_name_H-M   'P 1'
_cell_length_a   4.80522490
_cell_length_b   4.80522490
_cell_length_c   4.80522490
_cell_angle_alpha   90.00000000
_cell_angle_beta   90.00000000
_cell_angle_gamma   90.00000000
_symmetry_Int_Tables_number   1
_chemical_formula_structural   LaMn3Zn3Si
_chemical_formula_sum   'La1 Mn3 Zn3 Si1'
_cell_volume   110.95353803
_cell_formula_units_Z   1
loop_
 _symmetry_equiv_pos_site_id
 _symmetry_equiv_pos_as_xyz
  1  'x, y, z'
loop_
 _atom_site_type_symbol
 _atom_site_label
 _atom_site_symmetry_multiplicity
 _atom_site_fract_x
 _atom_site_fract_y
 _atom_site_fract_z
 _atom_site_occupancy
  Mn  Mn0  1  0.86592002  0.63408001  0.36592001  1
  Mn  Mn1  1  0.63408001  0.36592001  0.86592002  1
  Mn  Mn2  1  0.36592001  0.86592002  0.63408001  1
  La  La3  1  0.13408000  0.13408000  0.13408000  1
  Zn  Zn4  1  0.15570000  0.34430001  0.65570001  1
  Zn  Zn5  1  0.34430001  0.65570001  0.15570000  1
  Si  Si6  1  0.65570001  0.15570000  0.34430001  1
  Zn  Zn7  1  0.84430002  0.84430002  0.84430002  1
