# generated using pymatgen
data_RbAg3SF3
_symmetry_space_group_name_H-M   'P 1'
_cell_length_a   4.80522490
_cell_length_b   4.80522490
_cell_length_c   4.80522490
_cell_angle_alpha   90.00000000
_cell_angle_beta   90.00000000
_cell_angle_gamma   90.00000000
_symmetry_Int_Tables_number   1
_chemical_formula_structural   RbAg3SF3
_chemical_formula_sum   'Rb1 Ag3 S1 F3'
_cell_volume   110.95353803
_cell_formula_units_Z   1
loop_
 _symmetry_equiv_pos_site_id
 _symmetry_equiv_pos_as_xyz
  1  'x, y, z'
loop_
 _atom_site_type_symbol
 _atom_site_label
 _atom_site_symmetry_multiplicity
 _atom_site_fract_x
 _atom_site_fract_y
 _atom_site_fract_z
 _atom_site_occupancy
  Ag  Ag0  1  0.86592002  0.63408001  0.36592001  1
  Ag  Ag1  1  0.63408001  0.36592001  0.86592002  1
  Ag  Ag2  1  0.36592001  0.86592002  0.63408001  1
  Rb  Rb3  1  0.13408000  0.13408000  0.13408000  1
  F  F4  1  0.15570000  0.34430001  0.65570001  1
  F  F5  1  0.34430001  0.65570001  0.15570000  1
  F  F6  1  0.65570001  0.15570000  0.34430001  1
  S  S7  1  0.84430002  0.84430002  0.84430002  1
