# generated using pymatgen
data_Nd4Ho11Mn
_symmetry_space_group_name_H-M   'P 1'
_cell_length_a   4.09957457
_cell_length_b   4.09957457
_cell_length_c   15.98046017
_cell_angle_alpha   90.00000000
_cell_angle_beta   90.00000000
_cell_angle_gamma   119.24407959
_symmetry_Int_Tables_number   1
_chemical_formula_structural   Nd4Ho11Mn
_chemical_formula_sum   'Nd4 Ho11 Mn1'
_cell_volume   234.34486296
_cell_formula_units_Z   1
loop_
 _symmetry_equiv_pos_site_id
 _symmetry_equiv_pos_as_xyz
  1  'x, y, z'
loop_
 _atom_site_type_symbol
 _atom_site_label
 _atom_site_symmetry_multiplicity
 _atom_site_fract_x
 _atom_site_fract_y
 _atom_site_fract_z
 _atom_site_occupancy
  Ho  Ho0  1  0.33245104  0.66531605  0.59472399  1
  Nd  Nd1  1  0.66531605  0.33245102  0.40527600  1
  Nd  Nd2  1  0.66531605  0.33245102  0.09472400  1
  Ho  Ho3  1  0.33245104  0.66531605  0.90527599  1
  Mn  Mn4  1  0.06755001  0.13506501  0.74999999  1
  Ho  Ho5  1  0.13506501  0.06755000  0.25000000  1
  Ho  Ho6  1  0.98116709  0.96374107  0.67822399  1
  Ho  Ho7  1  0.96374109  0.98116707  0.32177600  1
  Ho  Ho8  1  0.96374109  0.98116707  0.17822400  1
  Ho  Ho9  1  0.98116709  0.96374107  0.82177599  1
  Nd  Nd10  1  0.33077904  0.66546305  0.05686700  1
  Ho  Ho11  1  0.66546305  0.33077902  0.94313299  1
  Ho  Ho12  1  0.66546305  0.33077902  0.55686699  1
  Nd  Nd13  1  0.33077904  0.66546305  0.44313300  1
  Ho  Ho14  1  0.24946403  0.49532604  0.74999999  1
  Ho  Ho15  1  0.49532604  0.24946402  0.25000000  1
