# generated using pymatgen
data_PrEr3
_symmetry_space_group_name_H-M   'P 1'
_cell_length_a   3.11420894
_cell_length_b   4.08356094
_cell_length_c   5.09120560
_cell_angle_alpha   90.00000000
_cell_angle_beta   107.80882263
_cell_angle_gamma   90.00000000
_symmetry_Int_Tables_number   1
_chemical_formula_structural   PrEr3
_chemical_formula_sum   'Pr1 Er3'
_cell_volume   61.64273778
_cell_formula_units_Z   1
loop_
 _symmetry_equiv_pos_site_id
 _symmetry_equiv_pos_as_xyz
  1  'x, y, z'
loop_
 _atom_site_type_symbol
 _atom_site_label
 _atom_site_symmetry_multiplicity
 _atom_site_fract_x
 _atom_site_fract_y
 _atom_site_fract_z
 _atom_site_occupancy
  Pr  Pr0  1  0.14441300  0.25000000  0.28882501  1
  Er  Er1  1  0.86202302  0.75000001  0.72404604  1
  Er  Er2  1  0.57909002  0.75000001  0.15818102  1
  Er  Er3  1  0.41447401  0.25000000  0.82894804  1
