# generated using pymatgen
data_Cs6Mn5O3
_symmetry_space_group_name_H-M   'P 1'
_cell_length_a   6.33936214
_cell_length_b   6.37339115
_cell_length_c   11.19242191
_cell_angle_alpha   90.00000000
_cell_angle_beta   90.00000000
_cell_angle_gamma   119.82353973
_symmetry_Int_Tables_number   1
_chemical_formula_structural   Cs6Mn5O3
_chemical_formula_sum   'Cs6 Mn5 O3'
_cell_volume   392.31989233
_cell_formula_units_Z   1
loop_
 _symmetry_equiv_pos_site_id
 _symmetry_equiv_pos_as_xyz
  1  'x, y, z'
loop_
 _atom_site_type_symbol
 _atom_site_label
 _atom_site_symmetry_multiplicity
 _atom_site_fract_x
 _atom_site_fract_y
 _atom_site_fract_z
 _atom_site_occupancy
  Mn  Mn0  1  0.50000006  1.00000002  0.25000000  1
  Cs  Cs1  1  0.50000006  1.00000002  0.75000001  1
  O  O2  1  0.23797803  0.47800501  0.50000000  1
  O  O3  1  0.76202202  0.52199501  0.50000000  1
  O  O4  1  0.24002703  0.47800501  1.00000001  1
  Mn  Mn5  1  0.75997302  0.52199501  -0.00000000  1
  Cs  Cs6  1  0.65051505  0.83655802  0.50000000  1
  Cs  Cs7  1  0.34948500  0.16344200  0.50000000  1
  Cs  Cs8  1  0.18604306  0.83655802  1.00000001  1
  Mn  Mn9  1  0.81395699  0.16344200  1.00000001  1
  Mn  Mn10  1  0.50000003  0.50000001  0.16729600  1
  Mn  Mn11  1  0.00000004  0.50000001  0.33270400  1
  Cs  Cs12  1  0.50000003  0.50000001  0.83270401  1
  Cs  Cs13  1  0.00000004  0.50000001  0.66729601  1
