# generated using pymatgen
data_Rb3LiYbCu
_symmetry_space_group_name_H-M   'P 1'
_cell_length_a   4.55593014
_cell_length_b   4.55592918
_cell_length_c   7.15233183
_cell_angle_alpha   90.00000000
_cell_angle_beta   90.00000000
_cell_angle_gamma   120.00000763
_symmetry_Int_Tables_number   1
_chemical_formula_structural   Rb3LiYbCu
_chemical_formula_sum   'Rb3 Li1 Yb1 Cu1'
_cell_volume   128.56781826
_cell_formula_units_Z   1
loop_
 _symmetry_equiv_pos_site_id
 _symmetry_equiv_pos_as_xyz
  1  'x, y, z'
loop_
 _atom_site_type_symbol
 _atom_site_label
 _atom_site_symmetry_multiplicity
 _atom_site_fract_x
 _atom_site_fract_y
 _atom_site_fract_z
 _atom_site_occupancy
  Rb  Rb0  1  0.00000000  0.00000000  0.50000001  1
  Rb  Rb1  1  0.00000000  0.00000000  0.00000000  1
  Cu  Cu2  1  0.66666665  0.33333332  0.75000002  1
  Li  Li3  1  0.33333333  0.66666665  0.25000001  1
  Yb  Yb4  1  0.66666665  0.33333332  0.25000001  1
  Rb  Rb5  1  0.33333333  0.66666665  0.75000002  1
