# generated using pymatgen
data_KMn5Sn2TeO3
_symmetry_space_group_name_H-M   'P 1'
_cell_length_a   6.13950396
_cell_length_b   6.17321062
_cell_length_c   6.25491333
_cell_angle_alpha   112.60539246
_cell_angle_beta   90.00000000
_cell_angle_gamma   90.00000000
_symmetry_Int_Tables_number   1
_chemical_formula_structural   KMn5Sn2TeO3
_chemical_formula_sum   'K1 Mn5 Sn2 Te1 O3'
_cell_volume   218.85136527
_cell_formula_units_Z   1
loop_
 _symmetry_equiv_pos_site_id
 _symmetry_equiv_pos_as_xyz
  1  'x, y, z'
loop_
 _atom_site_type_symbol
 _atom_site_label
 _atom_site_symmetry_multiplicity
 _atom_site_fract_x
 _atom_site_fract_y
 _atom_site_fract_z
 _atom_site_occupancy
  Sn  Sn0  1  0.36662900  0.64313901  0.88256204  1
  Sn  Sn1  1  0.63337100  0.35686101  0.11743802  1
  Mn  Mn2  1  0.86662901  0.35686101  0.61743802  1
  Te  Te3  1  0.13337100  0.64313901  0.38256204  1
  Mn  Mn4  1  0.00311900  0.77409102  0.79441804  1
  Mn  Mn5  1  0.99688101  0.22590900  0.20558201  1
  Mn  Mn6  1  0.50311900  0.22590900  0.70558201  1
  O  O7  1  0.49688100  0.77409102  0.29441805  1
  O  O8  1  0.62886300  0.84134502  0.68832705  1
  O  O9  1  0.37113700  0.15865500  0.31167301  1
  Mn  Mn10  1  0.12886300  0.15865500  0.81167301  1
  K  K11  1  0.87113701  0.84134502  0.18832705  1
