# generated using pymatgen
data_Mn7ReO8
_symmetry_space_group_name_H-M   'P 1'
_cell_length_a   5.48005056
_cell_length_b   5.48055315
_cell_length_c   7.37117434
_cell_angle_alpha   111.78617859
_cell_angle_beta   111.77385712
_cell_angle_gamma   90.00611877
_symmetry_Int_Tables_number   1
_chemical_formula_structural   Mn7ReO8
_chemical_formula_sum   'Mn7 Re1 O8'
_cell_volume   188.45244651
_cell_formula_units_Z   1
loop_
 _symmetry_equiv_pos_site_id
 _symmetry_equiv_pos_as_xyz
  1  'x, y, z'
loop_
 _atom_site_type_symbol
 _atom_site_label
 _atom_site_symmetry_multiplicity
 _atom_site_fract_x
 _atom_site_fract_y
 _atom_site_fract_z
 _atom_site_occupancy
  O  O0  1  0.49999900  0.00000000  0.99999805  1
  O  O1  1  0.49999905  0.49999701  0.99999808  1
  Mn  Mn2  1  0.99999800  0.00000000  0.50000105  1
  O  O3  1  0.50000200  0.00000200  0.50000004  1
  O  O4  1  0.12693103  0.37310901  0.24996603  1
  O  O5  1  0.87307006  0.62689201  0.75003609  1
  Mn  Mn6  1  0.61530408  0.88482702  0.24999508  1
  Re  Re7  1  0.38469601  0.11517000  0.75000204  1
  Mn  Mn8  1  0.80517103  0.32244801  0.61840107  1
  O  O9  1  0.17741106  0.69478701  0.88171907  1
  Mn  Mn10  1  0.70584607  0.69730201  0.88656109  1
  O  O11  1  0.19483106  0.67755501  0.38160105  1
  Mn  Mn12  1  0.80263408  0.79394701  0.61342009  1
  O  O13  1  0.29415203  0.30269601  0.11343603  1
  Mn  Mn14  1  0.82258803  0.30521301  0.11828305  1
  Mn  Mn15  1  0.19736802  0.20605500  0.38658303  1
