# generated using pymatgen
data_RbMn2VAu
_symmetry_space_group_name_H-M   'P 1'
_cell_length_a   4.31668806
_cell_length_b   4.31668854
_cell_length_c   6.84712219
_cell_angle_alpha   90.00000000
_cell_angle_beta   90.00000000
_cell_angle_gamma   120.00000000
_symmetry_Int_Tables_number   1
_chemical_formula_structural   RbMn2VAu
_chemical_formula_sum   'Rb1 Mn2 V1 Au1'
_cell_volume   110.49435477
_cell_formula_units_Z   1
loop_
 _symmetry_equiv_pos_site_id
 _symmetry_equiv_pos_as_xyz
  1  'x, y, z'
loop_
 _atom_site_type_symbol
 _atom_site_label
 _atom_site_symmetry_multiplicity
 _atom_site_fract_x
 _atom_site_fract_y
 _atom_site_fract_z
 _atom_site_occupancy
  Rb  Rb0  1  0.00000000  0.00000000  0.00000000  1
  Au  Au1  1  0.33333338  0.66666668  0.64292598  1
  V  V2  1  0.66666668  0.33333334  0.35707399  1
  Mn  Mn3  1  0.33333338  0.66666668  0.26687899  1
  Mn  Mn4  1  0.66666668  0.33333334  0.73312098  1
