# generated using pymatgen
data_H2
_symmetry_space_group_name_H-M   'P 1'
_cell_length_a   5.70723295
_cell_length_b   5.70723295
_cell_length_c   5.70723295
_cell_angle_alpha   76.22775269
_cell_angle_beta   67.60631561
_cell_angle_gamma   112.39368439
_symmetry_Int_Tables_number   1
_chemical_formula_structural   H2
_chemical_formula_sum   H12
_cell_volume   142.05747565
_cell_formula_units_Z   6
loop_
 _symmetry_equiv_pos_site_id
 _symmetry_equiv_pos_as_xyz
  1  'x, y, z'
loop_
 _atom_site_type_symbol
 _atom_site_label
 _atom_site_symmetry_multiplicity
 _atom_site_fract_x
 _atom_site_fract_y
 _atom_site_fract_z
 _atom_site_occupancy
  H  H0  1  -0.00000002  0.49999998  0.50000002  1
  H  H1  1  0.49999997  0.74999997  0.75000003  1
  H  H2  1  0.49999998  0.24999999  0.25000001  1
  H  H3  1  0.00000000  0.00000000  0.00000000  1
  H  H4  1  0.79147798  0.30381999  0.90470201  1
  H  H5  1  0.79147797  0.48765798  0.30382002  1
  H  H6  1  0.20852196  0.90470197  0.30382004  1
  H  H7  1  0.20852199  0.30381999  0.48765801  1
  H  H8  1  0.29147796  0.94617997  0.76234204  1
  H  H9  1  0.29147798  0.34529799  0.94618001  1
  H  H10  1  0.70852196  0.76234197  0.94618003  1
  H  H11  1  0.70852196  0.94617997  0.34529804  1
