# generated using pymatgen
data_Cs2NaMn5
_symmetry_space_group_name_H-M   'P 1'
_cell_length_a   4.45975018
_cell_length_b   6.06306362
_cell_length_c   7.58214712
_cell_angle_alpha   90.00000000
_cell_angle_beta   90.00000000
_cell_angle_gamma   111.57878113
_symmetry_Int_Tables_number   1
_chemical_formula_structural   Cs2NaMn5
_chemical_formula_sum   'Cs2 Na1 Mn5'
_cell_volume   190.65011323
_cell_formula_units_Z   1
loop_
 _symmetry_equiv_pos_site_id
 _symmetry_equiv_pos_as_xyz
  1  'x, y, z'
loop_
 _atom_site_type_symbol
 _atom_site_label
 _atom_site_symmetry_multiplicity
 _atom_site_fract_x
 _atom_site_fract_y
 _atom_site_fract_z
 _atom_site_occupancy
  Cs  Cs0  1  0.06943999  0.13888000  0.25000000  1
  Cs  Cs1  1  0.93055989  0.86111997  0.74999999  1
  Mn  Mn2  1  0.35833793  0.71667598  0.04473700  1
  Mn  Mn3  1  0.64166195  0.28332399  0.95526298  1
  Na  Na4  1  0.64166195  0.28332399  0.54473699  1
  Mn  Mn5  1  0.35833793  0.71667598  0.45526299  1
  Mn  Mn6  1  0.79550092  0.59100198  0.25000000  1
  Mn  Mn7  1  0.20449896  0.40899799  0.74999999  1
