# generated using pymatgen
data_KMn9
_symmetry_space_group_name_H-M   'P 1'
_cell_length_a   5.70767069
_cell_length_b   5.70767069
_cell_length_c   5.70767069
_cell_angle_alpha   61.07514191
_cell_angle_beta   61.07514191
_cell_angle_gamma   61.07513809
_symmetry_Int_Tables_number   1
_chemical_formula_structural   KMn9
_chemical_formula_sum   'K1 Mn9'
_cell_volume   134.66311123
_cell_formula_units_Z   1
loop_
 _symmetry_equiv_pos_site_id
 _symmetry_equiv_pos_as_xyz
  1  'x, y, z'
loop_
 _atom_site_type_symbol
 _atom_site_label
 _atom_site_symmetry_multiplicity
 _atom_site_fract_x
 _atom_site_fract_y
 _atom_site_fract_z
 _atom_site_occupancy
  Mn  Mn0  1  0.24920799  0.24920801  0.24920800  1
  Mn  Mn1  1  0.75079198  0.75079202  0.75079200  1
  Mn  Mn2  1  0.49999998  0.50000001  0.50000000  1
  Mn  Mn3  1  0.00000000  0.00000000  0.00000000  1
  Mn  Mn4  1  0.66062900  0.24333801  0.84484498  1
  Mn  Mn5  1  0.24333797  0.84484502  0.66062900  1
  Mn  Mn6  1  0.84484498  0.66062901  0.24333802  1
  Mn  Mn7  1  0.33937097  0.75666202  0.15515502  1
  Mn  Mn8  1  0.15515499  0.33937101  0.75666198  1
  K  K9  1  0.75666200  0.15515500  0.33937100  1
