# generated using pymatgen
data_Cs4Mn5O
_symmetry_space_group_name_H-M   'P 1'
_cell_length_a   7.89415979
_cell_length_b   7.89415979
_cell_length_c   7.89415979
_cell_angle_alpha   60.00000000
_cell_angle_beta   60.00000000
_cell_angle_gamma   60.00000000
_symmetry_Int_Tables_number   1
_chemical_formula_structural   Cs4Mn5O
_chemical_formula_sum   'Cs4 Mn5 O1'
_cell_volume   347.85859749
_cell_formula_units_Z   1
loop_
 _symmetry_equiv_pos_site_id
 _symmetry_equiv_pos_as_xyz
  1  'x, y, z'
loop_
 _atom_site_type_symbol
 _atom_site_label
 _atom_site_symmetry_multiplicity
 _atom_site_fract_x
 _atom_site_fract_y
 _atom_site_fract_z
 _atom_site_occupancy
  Mn  Mn0  1  0.25000000  0.25000000  0.25000000  1
  Cs  Cs1  1  0.75000001  0.75000001  0.75000001  1
  Mn  Mn2  1  0.00000000  0.00000000  0.00000000  1
  O  O3  1  0.50000001  0.50000001  0.50000001  1
  Cs  Cs4  1  0.23994600  0.76005401  0.23994600  1
  Mn  Mn5  1  0.23994600  0.23994600  0.76005401  1
  Cs  Cs6  1  0.76005401  0.23994600  0.76005401  1
  Mn  Mn7  1  0.23994600  0.76005401  0.76005401  1
  Cs  Cs8  1  0.76005401  0.23994600  0.23994600  1
  Mn  Mn9  1  0.76005401  0.76005401  0.23994600  1
