# generated using pymatgen
data_Cs3Mn7
_symmetry_space_group_name_H-M   'P 1'
_cell_length_a   7.75366926
_cell_length_b   7.75366926
_cell_length_c   7.75366926
_cell_angle_alpha   60.00000000
_cell_angle_beta   60.00000000
_cell_angle_gamma   60.00000000
_symmetry_Int_Tables_number   1
_chemical_formula_structural   Cs3Mn7
_chemical_formula_sum   'Cs3 Mn7'
_cell_volume   329.61488676
_cell_formula_units_Z   1
loop_
 _symmetry_equiv_pos_site_id
 _symmetry_equiv_pos_as_xyz
  1  'x, y, z'
loop_
 _atom_site_type_symbol
 _atom_site_label
 _atom_site_symmetry_multiplicity
 _atom_site_fract_x
 _atom_site_fract_y
 _atom_site_fract_z
 _atom_site_occupancy
  Mn  Mn0  1  0.24999999  0.24999999  0.24999999  1
  Cs  Cs1  1  0.74999998  0.74999998  0.74999998  1
  Cs  Cs2  1  0.49999999  0.49999999  0.49999999  1
  Cs  Cs3  1  0.00000000  0.00000000  0.00000000  1
  Mn  Mn4  1  0.21952500  0.78047498  0.21952500  1
  Mn  Mn5  1  0.21952500  0.21952500  0.78047498  1
  Mn  Mn6  1  0.78047498  0.21952500  0.78047498  1
  Mn  Mn7  1  0.21952500  0.78047498  0.78047498  1
  Mn  Mn8  1  0.78047498  0.21952500  0.21952500  1
  Mn  Mn9  1  0.78047498  0.78047498  0.21952500  1
