# generated using pymatgen
data_Cs(KMn2)2
_symmetry_space_group_name_H-M   'P 1'
_cell_length_a   4.21671581
_cell_length_b   9.97708321
_cell_length_c   11.08735371
_cell_angle_alpha   70.22354889
_cell_angle_beta   79.03794861
_cell_angle_gamma   77.80027771
_symmetry_Int_Tables_number   1
_chemical_formula_structural   Cs(KMn2)2
_chemical_formula_sum   'Cs2 K4 Mn8'
_cell_volume   425.44167868
_cell_formula_units_Z   2
loop_
 _symmetry_equiv_pos_site_id
 _symmetry_equiv_pos_as_xyz
  1  'x, y, z'
loop_
 _atom_site_type_symbol
 _atom_site_label
 _atom_site_symmetry_multiplicity
 _atom_site_fract_x
 _atom_site_fract_y
 _atom_site_fract_z
 _atom_site_occupancy
  K  K0  1  0.17195201  0.05376600  0.60233001  1
  K  K1  1  0.46538203  0.37829800  0.69093801  1
  Cs  Cs2  1  0.24509402  0.31495400  0.19485801  1
  Mn  Mn3  1  0.75490605  0.68504600  0.80514202  1
  Mn  Mn4  1  0.53461804  0.62170200  0.30906201  1
  Cs  Cs5  1  0.82804806  0.94623400  0.39767002  1
  Mn  Mn6  1  0.92619905  0.61508300  0.53251902  1
  Mn  Mn7  1  0.07380101  0.38491700  0.46748101  1
  Mn  Mn8  1  0.65957203  0.26521700  0.41563901  1
  Mn  Mn9  1  0.34042803  0.73478300  0.58436102  1
  K  K10  1  0.85854004  0.34301400  0.93990602  1
  K  K11  1  0.57640702  0.01810900  0.82907701  1
  Mn  Mn12  1  0.14146002  0.65698600  0.06009401  1
  Mn  Mn13  1  0.42359304  0.98189100  0.17092302  1
