# generated using pymatgen
data_Rb2O2
_symmetry_space_group_name_H-M   'P 1'
_cell_length_a   4.86116982
_cell_length_b   4.86117029
_cell_length_c   7.92238808
_cell_angle_alpha   90.00000000
_cell_angle_beta   90.00000000
_cell_angle_gamma   120.00000000
_symmetry_Int_Tables_number   1
_chemical_formula_structural   Rb2O2
_chemical_formula_sum   'Rb3 O3'
_cell_volume   162.13186253
_cell_formula_units_Z   1
loop_
 _symmetry_equiv_pos_site_id
 _symmetry_equiv_pos_as_xyz
  1  'x, y, z'
loop_
 _atom_site_type_symbol
 _atom_site_label
 _atom_site_symmetry_multiplicity
 _atom_site_fract_x
 _atom_site_fract_y
 _atom_site_fract_z
 _atom_site_occupancy
  Rb  Rb0  1  0.00000000  0.00000000  0.51651899  1
  Rb  Rb1  1  0.00000000  0.00000000  0.01651900  1
  Rb  Rb2  1  0.33333337  0.66666667  0.79269599  1
  O  O3  1  0.66666670  0.33333334  0.29269600  1
  O  O4  1  0.33333337  0.66666667  0.19078500  1
  O  O5  1  0.66666670  0.33333334  0.69078499  1
