# generated using pymatgen
data_Rb2EuO7
_symmetry_space_group_name_H-M   'P 1'
_cell_length_a   3.70056200
_cell_length_b   5.60295582
_cell_length_c   6.99325705
_cell_angle_alpha   90.00000000
_cell_angle_beta   90.00000000
_cell_angle_gamma   109.28292084
_symmetry_Int_Tables_number   1
_chemical_formula_structural   Rb2EuO7
_chemical_formula_sum   'Rb2 Eu1 O7'
_cell_volume   136.86427432
_cell_formula_units_Z   1
loop_
 _symmetry_equiv_pos_site_id
 _symmetry_equiv_pos_as_xyz
  1  'x, y, z'
loop_
 _atom_site_type_symbol
 _atom_site_label
 _atom_site_symmetry_multiplicity
 _atom_site_fract_x
 _atom_site_fract_y
 _atom_site_fract_z
 _atom_site_occupancy
  Rb  Rb0  1  0.45599005  0.91198003  0.75000000  1
  O  O1  1  0.54401001  0.08802000  0.25000000  1
  O  O2  1  0.16811302  0.33622601  0.93844199  1
  O  O3  1  0.83188704  0.66377402  0.06155800  1
  O  O4  1  0.83188704  0.66377402  0.43844200  1
  O  O5  1  0.16811302  0.33622601  0.56155800  1
  O  O6  1  0.73547303  0.47094602  0.75000000  1
  Eu  Eu7  1  0.26452703  0.52905402  0.25000000  1
  Rb  Rb8  1  0.00000000  0.00000000  0.00000000  1
  O  O9  1  0.00000000  0.00000000  0.50000000  1
