# generated using pymatgen
data_Mn5Te3
_symmetry_space_group_name_H-M   'P 1'
_cell_length_a   4.42644691
_cell_length_b   5.55321980
_cell_length_c   5.55321932
_cell_angle_alpha   120.00000000
_cell_angle_beta   90.00000000
_cell_angle_gamma   90.00000000
_symmetry_Int_Tables_number   1
_chemical_formula_structural   Mn5Te3
_chemical_formula_sum   'Mn5 Te3'
_cell_volume   118.21581503
_cell_formula_units_Z   1
loop_
 _symmetry_equiv_pos_site_id
 _symmetry_equiv_pos_as_xyz
  1  'x, y, z'
loop_
 _atom_site_type_symbol
 _atom_site_label
 _atom_site_symmetry_multiplicity
 _atom_site_fract_x
 _atom_site_fract_y
 _atom_site_fract_z
 _atom_site_occupancy
  Mn  Mn0  1  0.75000001  0.83570701  0.16429295  1
  Te  Te1  1  0.75000001  0.32858600  0.16429298  1
  Mn  Mn2  1  0.75000001  0.83570701  0.67141397  1
  Te  Te3  1  0.25000000  0.16429300  0.83570702  1
  Mn  Mn4  1  0.25000000  0.67141400  0.83570698  1
  Mn  Mn5  1  0.25000000  0.16429300  0.32858600  1
  Te  Te6  1  0.25000000  0.66666667  0.33333330  1
  Mn  Mn7  1  0.75000001  0.33333334  0.66666667  1
