# generated using pymatgen
data_Cs3Mn2
_symmetry_space_group_name_H-M   'P 1'
_cell_length_a   9.06592464
_cell_length_b   9.06592464
_cell_length_c   9.06592464
_cell_angle_alpha   60.00000000
_cell_angle_beta   60.00000000
_cell_angle_gamma   60.00000000
_symmetry_Int_Tables_number   1
_chemical_formula_structural   Cs3Mn2
_chemical_formula_sum   'Cs6 Mn4'
_cell_volume   526.89165097
_cell_formula_units_Z   2
loop_
 _symmetry_equiv_pos_site_id
 _symmetry_equiv_pos_as_xyz
  1  'x, y, z'
loop_
 _atom_site_type_symbol
 _atom_site_label
 _atom_site_symmetry_multiplicity
 _atom_site_fract_x
 _atom_site_fract_y
 _atom_site_fract_z
 _atom_site_occupancy
  Cs  Cs0  1  0.25000001  0.25000001  0.25000001  1
  Mn  Mn1  1  0.75000002  0.75000002  0.75000002  1
  Mn  Mn2  1  0.50000002  0.50000002  0.50000002  1
  Mn  Mn3  1  0.00000000  0.00000000  0.00000000  1
  Mn  Mn4  1  0.23603201  0.76396802  0.23603201  1
  Cs  Cs5  1  0.23603201  0.23603201  0.76396802  1
  Cs  Cs6  1  0.76396802  0.23603201  0.76396802  1
  Cs  Cs7  1  0.23603201  0.76396802  0.76396802  1
  Cs  Cs8  1  0.76396802  0.23603201  0.23603201  1
  Cs  Cs9  1  0.76396802  0.76396802  0.23603201  1
