# generated using pymatgen
data_Pr5Nd5HoEr2Mn
_symmetry_space_group_name_H-M   'P 1'
_cell_length_a   3.95928788
_cell_length_b   8.29141521
_cell_length_c   8.29141521
_cell_angle_alpha   108.69091034
_cell_angle_beta   90.00000000
_cell_angle_gamma   90.00000000
_symmetry_Int_Tables_number   1
_chemical_formula_structural   Pr5Nd5HoEr2Mn
_chemical_formula_sum   'Pr5 Nd5 Ho1 Er2 Mn1'
_cell_volume   257.83633864
_cell_formula_units_Z   1
loop_
 _symmetry_equiv_pos_site_id
 _symmetry_equiv_pos_as_xyz
  1  'x, y, z'
loop_
 _atom_site_type_symbol
 _atom_site_label
 _atom_site_symmetry_multiplicity
 _atom_site_fract_x
 _atom_site_fract_y
 _atom_site_fract_z
 _atom_site_occupancy
  Nd  Nd0  1  0.50000001  0.78733998  0.78733998  1
  Nd  Nd1  1  1.00000003  0.36218199  0.63781798  1
  Pr  Pr2  1  0.50000001  0.21266000  0.21265999  1
  Pr  Pr3  1  -0.00000000  0.63781799  0.36218198  1
  Mn  Mn4  1  0.50000001  0.49999999  -0.00000001  1
  Nd  Nd5  1  0.50000001  0.00000000  0.49999999  1
  Nd  Nd6  1  -0.00000000  0.34431299  0.34431299  1
  Er  Er7  1  -0.00000000  0.65568699  0.65568698  1
  Ho  Ho8  1  0.50000001  0.50528299  0.15061699  1
  Pr  Pr9  1  0.50000001  0.49471699  0.84938298  1
  Er  Er10  1  0.50000001  0.84938298  0.49471698  1
  Nd  Nd11  1  0.50000001  0.15061700  0.50528299  1
  Pr  Pr12  1  -0.00000000  0.87812498  0.12187499  1
  Pr  Pr13  1  -0.00000000  0.12187500  0.87812498  1
