# generated using pymatgen
data_Cs5Mn7O2
_symmetry_space_group_name_H-M   'P 1'
_cell_length_a   7.40789366
_cell_length_b   7.40856743
_cell_length_c   7.40913582
_cell_angle_alpha   119.48234558
_cell_angle_beta   91.25778961
_cell_angle_gamma   119.06364441
_symmetry_Int_Tables_number   1
_chemical_formula_structural   Cs5Mn7O2
_chemical_formula_sum   'Cs5 Mn7 O2'
_cell_volume   290.62397298
_cell_formula_units_Z   1
loop_
 _symmetry_equiv_pos_site_id
 _symmetry_equiv_pos_as_xyz
  1  'x, y, z'
loop_
 _atom_site_type_symbol
 _atom_site_label
 _atom_site_symmetry_multiplicity
 _atom_site_fract_x
 _atom_site_fract_y
 _atom_site_fract_z
 _atom_site_occupancy
  Cs  Cs0  1  0.37499000  0.24993999  0.12486797  1
  Mn  Mn1  1  0.62504001  0.75004498  0.87509995  1
  Mn  Mn2  1  0.49996999  0.00016700  0.50009998  1
  Mn  Mn3  1  0.00014801  0.50004199  0.50003999  1
  Cs  Cs4  1  0.99994400  0.49984499  0.00000193  1
  Cs  Cs5  1  0.99980901  0.99987998  0.49991492  1
  O  O6  1  0.77935800  0.52697099  0.25232994  1
  Mn  Mn7  1  0.76585699  0.01344900  0.27925296  1
  Mn  Mn8  1  0.76606500  0.48661699  0.75258195  1
  Mn  Mn9  1  0.77446699  0.02687000  0.74765296  1
  O  O10  1  0.23410301  0.51349599  0.24746998  1
  Cs  Cs11  1  0.22553201  0.97309398  0.25236696  1
  Mn  Mn12  1  0.22066901  0.47303399  0.74767798  1
  Cs  Cs13  1  0.23404901  0.98654598  0.72064097  1
