# generated using pymatgen
data_Cs7Mn2O
_symmetry_space_group_name_H-M   'P 1'
_cell_length_a   7.90091705
_cell_length_b   7.90091705
_cell_length_c   7.90091705
_cell_angle_alpha   60.00000000
_cell_angle_beta   60.00000000
_cell_angle_gamma   60.00000000
_symmetry_Int_Tables_number   1
_chemical_formula_structural   Cs7Mn2O
_chemical_formula_sum   'Cs7 Mn2 O1'
_cell_volume   348.75264453
_cell_formula_units_Z   1
loop_
 _symmetry_equiv_pos_site_id
 _symmetry_equiv_pos_as_xyz
  1  'x, y, z'
loop_
 _atom_site_type_symbol
 _atom_site_label
 _atom_site_symmetry_multiplicity
 _atom_site_fract_x
 _atom_site_fract_y
 _atom_site_fract_z
 _atom_site_occupancy
  Mn  Mn0  1  0.25000000  0.25000000  0.25000000  1
  Cs  Cs1  1  0.75000000  0.75000000  0.75000000  1
  O  O2  1  0.50000000  0.50000000  0.50000000  1
  Mn  Mn3  1  0.00000000  0.00000000  0.00000000  1
  Cs  Cs4  1  0.25575800  0.74424200  0.25575800  1
  Cs  Cs5  1  0.25575800  0.25575800  0.74424200  1
  Cs  Cs6  1  0.74424200  0.25575800  0.74424200  1
  Cs  Cs7  1  0.25575800  0.74424200  0.74424200  1
  Cs  Cs8  1  0.74424200  0.25575800  0.25575800  1
  Cs  Cs9  1  0.74424200  0.74424200  0.25575800  1
