# generated using pymatgen
data_Mn7O3
_symmetry_space_group_name_H-M   'P 1'
_cell_length_a   3.04174995
_cell_length_b   5.28494167
_cell_length_c   7.46034002
_cell_angle_alpha   90.00000000
_cell_angle_beta   90.00000000
_cell_angle_gamma   106.72480774
_symmetry_Int_Tables_number   1
_chemical_formula_structural   Mn7O3
_chemical_formula_sum   'Mn7 O3'
_cell_volume   114.85526396
_cell_formula_units_Z   1
loop_
 _symmetry_equiv_pos_site_id
 _symmetry_equiv_pos_as_xyz
  1  'x, y, z'
loop_
 _atom_site_type_symbol
 _atom_site_label
 _atom_site_symmetry_multiplicity
 _atom_site_fract_x
 _atom_site_fract_y
 _atom_site_fract_z
 _atom_site_occupancy
  Mn  Mn0  1  0.25705704  0.51411300  0.25000000  1
  Mn  Mn1  1  0.74294404  0.48588700  0.75000000  1
  O  O2  1  0.00000000  0.00000000  0.50000000  1
  Mn  Mn3  1  0.00000000  0.00000000  0.00000000  1
  Mn  Mn4  1  0.37354905  0.74709800  0.55692900  1
  O  O5  1  0.62645103  0.25290200  0.05692900  1
  Mn  Mn6  1  0.37354905  0.74709800  0.94307100  1
  Mn  Mn7  1  0.62645103  0.25290200  0.44307100  1
  O  O8  1  0.92880307  0.85760600  0.25000000  1
  Mn  Mn9  1  0.07119701  0.14239400  0.75000000  1
