# generated using pymatgen
data_K2BaPrMn7O5
_symmetry_space_group_name_H-M   'P 1'
_cell_length_a   3.75971198
_cell_length_b   5.25951099
_cell_length_c   10.12874222
_cell_angle_alpha   90.00000000
_cell_angle_beta   90.00000000
_cell_angle_gamma   110.94184875
_symmetry_Int_Tables_number   1
_chemical_formula_structural   K2BaPrMn7O5
_chemical_formula_sum   'K2 Ba1 Pr1 Mn7 O5'
_cell_volume   187.05793774
_cell_formula_units_Z   1
loop_
 _symmetry_equiv_pos_site_id
 _symmetry_equiv_pos_as_xyz
  1  'x, y, z'
loop_
 _atom_site_type_symbol
 _atom_site_label
 _atom_site_symmetry_multiplicity
 _atom_site_fract_x
 _atom_site_fract_y
 _atom_site_fract_z
 _atom_site_occupancy
  Mn  Mn0  1  0.19563497  0.39127000  0.24999999  1
  O  O1  1  0.80436496  0.60873000  0.74999998  1
  O  O2  1  0.86725295  0.73450601  0.43260599  1
  Mn  Mn3  1  0.13274698  0.26549400  0.56739399  1
  Ba  Ba4  1  0.86725295  0.73450601  0.06739400  1
  O  O5  1  0.13274698  0.26549400  0.93260598  1
  Mn  Mn6  1  0.31348996  0.62698000  0.43747299  1
  O  O7  1  0.68650998  0.37302000  0.56252699  1
  O  O8  1  0.68650998  0.37302000  0.93747298  1
  Pr  Pr9  1  0.31348996  0.62698000  0.06252700  1
  Mn  Mn10  1  0.04608099  0.09216200  0.38709499  1
  Mn  Mn11  1  0.95391894  0.90783801  0.61290499  1
  Mn  Mn12  1  0.78354996  0.56710000  0.24999999  1
  Mn  Mn13  1  0.21644997  0.43290000  0.74999998  1
  K  K14  1  0.04608099  0.09216200  0.11290500  1
  K  K15  1  0.95391894  0.90783801  0.88709498  1
