# generated using pymatgen
data_RbMn5O6
_symmetry_space_group_name_H-M   'P 1'
_cell_length_a   5.78935623
_cell_length_b   5.78935623
_cell_length_c   5.78935623
_cell_angle_alpha   90.00000000
_cell_angle_beta   90.00000000
_cell_angle_gamma   90.00000000
_symmetry_Int_Tables_number   1
_chemical_formula_structural   RbMn5O6
_chemical_formula_sum   'Rb1 Mn5 O6'
_cell_volume   194.03980094
_cell_formula_units_Z   1
loop_
 _symmetry_equiv_pos_site_id
 _symmetry_equiv_pos_as_xyz
  1  'x, y, z'
loop_
 _atom_site_type_symbol
 _atom_site_label
 _atom_site_symmetry_multiplicity
 _atom_site_fract_x
 _atom_site_fract_y
 _atom_site_fract_z
 _atom_site_occupancy
  O  O0  1  0.51049698  0.48950298  0.98950296  1
  O  O1  1  0.48950298  0.98950296  0.51049698  1
  O  O2  1  0.98950296  0.51049698  0.48950298  1
  Rb  Rb3  1  0.01049700  0.01049700  0.01049700  1
  O  O4  1  0.88201196  0.11798800  0.61798798  1
  Mn  Mn5  1  0.11798800  0.61798798  0.88201196  1
  O  O6  1  0.61798798  0.88201196  0.11798800  1
  O  O7  1  0.38201198  0.38201198  0.38201198  1
  Mn  Mn8  1  0.11317200  0.88682796  0.38682798  1
  Mn  Mn9  1  0.88682796  0.38682798  0.11317200  1
  Mn  Mn10  1  0.38682798  0.11317200  0.88682796  1
  Mn  Mn11  1  0.61317198  0.61317198  0.61317198  1
