# generated using pymatgen
data_Cs5Mn13
_symmetry_space_group_name_H-M   'P 1'
_cell_length_a   6.07312012
_cell_length_b   7.39579105
_cell_length_c   8.67338085
_cell_angle_alpha   106.95955658
_cell_angle_beta   90.00000000
_cell_angle_gamma   114.24124146
_symmetry_Int_Tables_number   1
_chemical_formula_structural   Cs5Mn13
_chemical_formula_sum   'Cs5 Mn13'
_cell_volume   336.55231201
_cell_formula_units_Z   1
loop_
 _symmetry_equiv_pos_site_id
 _symmetry_equiv_pos_as_xyz
  1  'x, y, z'
loop_
 _atom_site_type_symbol
 _atom_site_label
 _atom_site_symmetry_multiplicity
 _atom_site_fract_x
 _atom_site_fract_y
 _atom_site_fract_z
 _atom_site_occupancy
  Cs  Cs0  1  0.41473000  0.33367901  0.08503601  1
  Mn  Mn1  1  0.74765099  0.00000000  0.75000002  1
  Mn  Mn2  1  0.41103600  0.32837801  0.57944202  1
  Mn  Mn3  1  0.08105101  0.66632102  0.41496402  1
  Mn  Mn4  1  0.58896400  0.67162202  0.42055802  1
  Mn  Mn5  1  0.25234900  0.00000000  0.25000001  1
  Mn  Mn6  1  0.91734199  0.32837801  0.07944201  1
  Cs  Cs7  1  0.08265801  0.67162202  0.92055804  1
  Mn  Mn8  1  0.58527000  0.66632102  0.91496404  1
  Mn  Mn9  1  0.91894899  0.33367901  0.58503602  1
  Cs  Cs10  1  0.76503899  0.00000000  0.25000001  1
  Mn  Mn11  1  0.23496100  0.00000000  0.75000002  1
  Mn  Mn12  1  0.85365899  0.67802902  0.67200103  1
  Mn  Mn13  1  0.14634100  0.32197101  0.32799901  1
  Cs  Cs14  1  0.82436999  0.67802902  0.17200102  1
  Cs  Cs15  1  0.50000000  1.00000003  0.00000002  1
  Mn  Mn16  1  0.17563000  0.32197101  0.82799903  1
  Mn  Mn17  1  0.50000000  1.00000003  0.50000003  1
