# generated using pymatgen
data_Cs3Mn5
_symmetry_space_group_name_H-M   'P 1'
_cell_length_a   6.07658911
_cell_length_b   7.66407108
_cell_length_c   10.58522606
_cell_angle_alpha   110.14884949
_cell_angle_beta   90.00000000
_cell_angle_gamma   90.00000000
_symmetry_Int_Tables_number   1
_chemical_formula_structural   Cs3Mn5
_chemical_formula_sum   'Cs6 Mn10'
_cell_volume   462.79966401
_cell_formula_units_Z   2
loop_
 _symmetry_equiv_pos_site_id
 _symmetry_equiv_pos_as_xyz
  1  'x, y, z'
loop_
 _atom_site_type_symbol
 _atom_site_label
 _atom_site_symmetry_multiplicity
 _atom_site_fract_x
 _atom_site_fract_y
 _atom_site_fract_z
 _atom_site_occupancy
  Mn  Mn0  1  0.74999999  0.56707598  0.42702099  1
  Cs  Cs1  1  0.25000000  0.87349197  0.92241599  1
  Cs  Cs2  1  0.25000000  0.52360098  0.14964698  1
  Cs  Cs3  1  0.74999999  0.47639899  0.85035301  1
  Mn  Mn4  1  0.25000000  0.43292399  0.57297900  1
  Mn  Mn5  1  0.74999999  0.12650800  0.07758400  1
  Mn  Mn6  1  0.00053000  0.97203797  0.34281297  1
  Mn  Mn7  1  0.50052999  0.02796200  0.65718702  1
  Mn  Mn8  1  0.49946999  0.97203797  0.34281297  1
  Cs  Cs9  1  0.99946998  0.02796200  0.65718702  1
  Mn  Mn10  1  0.74999999  0.18829599  0.52937201  1
  Mn  Mn11  1  0.25000000  0.81170398  0.47062798  1
  Mn  Mn12  1  0.74999999  0.74663598  0.18178698  1
  Cs  Cs13  1  0.25000000  0.25336399  0.81821302  1
  Mn  Mn14  1  0.74999999  0.84614297  0.74809199  1
  Cs  Cs15  1  0.25000000  0.15385700  0.25190800  1
