# generated using pymatgen
data_LiFeHS2O
_symmetry_space_group_name_H-M   'P 1'
_cell_length_a   3.63424611
_cell_length_b   3.63424611
_cell_length_c   5.60676432
_cell_angle_alpha   108.91074371
_cell_angle_beta   108.91074371
_cell_angle_gamma   90.00000000
_symmetry_Int_Tables_number   1
_chemical_formula_structural   LiFeHS2O
_chemical_formula_sum   'Li1 Fe1 H1 S2 O1'
_cell_volume   65.81637010
_cell_formula_units_Z   1
loop_
 _symmetry_equiv_pos_site_id
 _symmetry_equiv_pos_as_xyz
  1  'x, y, z'
loop_
 _atom_site_type_symbol
 _atom_site_label
 _atom_site_symmetry_multiplicity
 _atom_site_fract_x
 _atom_site_fract_y
 _atom_site_fract_z
 _atom_site_occupancy
  Li  Li0  1  0.50000001  0.49999999  0.00000003  1
  Fe  Fe1  1  0.75000000  0.25000000  0.50000003  1
  O  O2  1  0.25000002  0.74999999  0.50000003  1
  H  H3  1  0.15259000  0.15259000  0.30518001  1
  S  S4  1  0.84741002  0.84740999  0.69482005  1
  S  S5  1  0.00000000  0.00000000  0.00000000  1
