# generated using pymatgen
data_LiPmHfBO2
_symmetry_space_group_name_H-M   'P 1'
_cell_length_a   3.63424611
_cell_length_b   3.63424611
_cell_length_c   5.60676432
_cell_angle_alpha   108.91074371
_cell_angle_beta   108.91074371
_cell_angle_gamma   90.00000000
_symmetry_Int_Tables_number   1
_chemical_formula_structural   LiPmHfBO2
_chemical_formula_sum   'Li1 Pm1 Hf1 B1 O2'
_cell_volume   65.81637010
_cell_formula_units_Z   1
loop_
 _symmetry_equiv_pos_site_id
 _symmetry_equiv_pos_as_xyz
  1  'x, y, z'
loop_
 _atom_site_type_symbol
 _atom_site_label
 _atom_site_symmetry_multiplicity
 _atom_site_fract_x
 _atom_site_fract_y
 _atom_site_fract_z
 _atom_site_occupancy
  Pm  Pm0  1  0.50000001  0.49999999  0.00000003  1
  O  O1  1  0.75000000  0.25000000  0.50000003  1
  O  O2  1  0.25000002  0.74999999  0.50000003  1
  Li  Li3  1  0.15259000  0.15259000  0.30518001  1
  Hf  Hf4  1  0.84741002  0.84740999  0.69482005  1
  B  B5  1  0.00000000  0.00000000  0.00000000  1
