# generated using pymatgen
data_Mn7O5
_symmetry_space_group_name_H-M   'P 1'
_cell_length_a   4.97134304
_cell_length_b   5.23964405
_cell_length_c   8.24597073
_cell_angle_alpha   90.00000000
_cell_angle_beta   90.00000000
_cell_angle_gamma   90.00000000
_symmetry_Int_Tables_number   1
_chemical_formula_structural   Mn7O5
_chemical_formula_sum   'Mn7 O5'
_cell_volume   214.79160608
_cell_formula_units_Z   1
loop_
 _symmetry_equiv_pos_site_id
 _symmetry_equiv_pos_as_xyz
  1  'x, y, z'
loop_
 _atom_site_type_symbol
 _atom_site_label
 _atom_site_symmetry_multiplicity
 _atom_site_fract_x
 _atom_site_fract_y
 _atom_site_fract_z
 _atom_site_occupancy
  O  O0  1  0.27392000  0.97467699  0.62401502  1
  O  O1  1  0.77391999  0.52532299  0.37598501  1
  O  O2  1  0.72607999  0.47467700  0.87598503  1
  O  O3  1  0.22608000  0.02532300  0.12401500  1
  Mn  Mn4  1  0.40535500  0.74619899  0.78527403  1
  Mn  Mn5  1  0.90535499  0.75380099  0.21472601  1
  Mn  Mn6  1  0.59464500  0.24619900  0.71472602  1
  Mn  Mn7  1  0.09464500  0.25380100  0.28527401  1
  O  O8  1  0.96555499  0.12701000  0.96926903  1
  Mn  Mn9  1  0.46555500  0.37299000  0.03073100  1
  Mn  Mn10  1  0.03444500  0.62700999  0.53073102  1
  Mn  Mn11  1  0.53444500  0.87298999  0.46926902  1
