# generated using pymatgen
data_KRb
_symmetry_space_group_name_H-M   'P 1'
_cell_length_a   4.06874943
_cell_length_b   4.06874943
_cell_length_c   4.06874943
_cell_angle_alpha   89.82847595
_cell_angle_beta   89.82847595
_cell_angle_gamma   89.82849121
_symmetry_Int_Tables_number   1
_chemical_formula_structural   KRb
_chemical_formula_sum   'K2 Rb2'
_cell_volume   67.35611166
_cell_formula_units_Z   2
loop_
 _symmetry_equiv_pos_site_id
 _symmetry_equiv_pos_as_xyz
  1  'x, y, z'
loop_
 _atom_site_type_symbol
 _atom_site_label
 _atom_site_symmetry_multiplicity
 _atom_site_fract_x
 _atom_site_fract_y
 _atom_site_fract_z
 _atom_site_occupancy
  K  K0  1  0.00000000  0.00000000  0.00000000  1
  Rb  Rb1  1  0.49999995  0.98843397  0.01156600  1
  K  K2  1  0.98843397  0.01156600  0.49999999  1
  Rb  Rb3  1  0.01156598  0.49999998  0.98843398  1
