# generated using pymatgen
data_Ce
_symmetry_space_group_name_H-M   'P 1'
_cell_length_a   3.28615189
_cell_length_b   3.28615284
_cell_length_c   37.44742966
_cell_angle_alpha   90.00000000
_cell_angle_beta   90.00000000
_cell_angle_gamma   119.99999237
_symmetry_Int_Tables_number   1
_chemical_formula_structural   Ce
_chemical_formula_sum   Ce12
_cell_volume   350.20961873
_cell_formula_units_Z   12
loop_
 _symmetry_equiv_pos_site_id
 _symmetry_equiv_pos_as_xyz
  1  'x, y, z'
loop_
 _atom_site_type_symbol
 _atom_site_label
 _atom_site_symmetry_multiplicity
 _atom_site_fract_x
 _atom_site_fract_y
 _atom_site_fract_z
 _atom_site_occupancy
  Ce  Ce0  1  0.66666669  0.33333333  0.90607396  1
  Ce  Ce1  1  0.66666669  0.33333333  0.53034998  1
  Ce  Ce2  1  0.33333335  0.66666665  0.71820497  1
  Ce  Ce3  1  0.33333335  0.66666665  0.34245098  1
  Ce  Ce4  1  0.66666669  0.33333333  0.29714499  1
  Ce  Ce5  1  0.33333335  0.66666665  0.95139096  1
  Ce  Ce6  1  0.33333335  0.66666665  0.57565097  1
  Ce  Ce7  1  0.33333335  0.66666665  0.86076296  1
  Ce  Ce8  1  0.33333335  0.66666665  0.48504298  1
  Ce  Ce9  1  0.66666669  0.33333333  0.38776898  1
  Ce  Ce10  1  0.66666669  0.33333333  0.67705797  1
  Ce  Ce11  1  0.66666669  0.33333333  0.75935297  1
