# generated using pymatgen
data_CsMn3
_symmetry_space_group_name_H-M   'P 1'
_cell_length_a   5.98257303
_cell_length_b   5.98257303
_cell_length_c   5.98257303
_cell_angle_alpha   90.00000000
_cell_angle_beta   90.00000000
_cell_angle_gamma   90.00000000
_symmetry_Int_Tables_number   1
_chemical_formula_structural   CsMn3
_chemical_formula_sum   'Cs2 Mn6'
_cell_volume   214.12334879
_cell_formula_units_Z   2
loop_
 _symmetry_equiv_pos_site_id
 _symmetry_equiv_pos_as_xyz
  1  'x, y, z'
loop_
 _atom_site_type_symbol
 _atom_site_label
 _atom_site_symmetry_multiplicity
 _atom_site_fract_x
 _atom_site_fract_y
 _atom_site_fract_z
 _atom_site_occupancy
  Mn  Mn0  1  0.00000000  0.00000000  0.00000000  1
  Mn  Mn1  1  0.00000000  0.00000000  0.50000000  1
  Mn  Mn2  1  -0.00000000  0.50000000  0.00000000  1
  Mn  Mn3  1  0.50000000  0.00000000  0.00000000  1
  Cs  Cs4  1  0.74198200  0.74198200  0.25801800  1
  Mn  Mn5  1  0.74198200  0.25801800  0.74198200  1
  Cs  Cs6  1  0.25801800  0.74198200  0.74198200  1
  Mn  Mn7  1  0.25801800  0.25801800  0.25801800  1
