# generated using pymatgen
data_Cs2RbNaMnO2
_symmetry_space_group_name_H-M   'P 1'
_cell_length_a   3.15767431
_cell_length_b   3.15767431
_cell_length_c   10.44535732
_cell_angle_alpha   81.30629730
_cell_angle_beta   81.30629730
_cell_angle_gamma   59.99999237
_symmetry_Int_Tables_number   1
_chemical_formula_structural   Cs2RbNaMnO2
_chemical_formula_sum   'Cs2 Rb1 Na1 Mn1 O2'
_cell_volume   88.81183488
_cell_formula_units_Z   1
loop_
 _symmetry_equiv_pos_site_id
 _symmetry_equiv_pos_as_xyz
  1  'x, y, z'
loop_
 _atom_site_type_symbol
 _atom_site_label
 _atom_site_symmetry_multiplicity
 _atom_site_fract_x
 _atom_site_fract_y
 _atom_site_fract_z
 _atom_site_occupancy
  O  O0  1  0.62304499  0.62304501  0.13086499  1
  Mn  Mn1  1  0.37695500  0.37695500  0.86913496  1
  Cs  Cs2  1  0.87575899  0.87575901  0.37272297  1
  Cs  Cs3  1  0.12424100  0.12424100  0.62727698  1
  O  O4  1  0.75257399  0.75257401  0.74227796  1
  Rb  Rb5  1  0.00000000  0.00000000  0.00000000  1
  Na  Na6  1  0.24742600  0.24742600  0.25772199  1
