# generated using pymatgen
data_TmMn3SnTe
_symmetry_space_group_name_H-M   'P 1'
_cell_length_a   3.93304396
_cell_length_b   3.93304396
_cell_length_c   8.70430565
_cell_angle_alpha   90.00000000
_cell_angle_beta   90.00000000
_cell_angle_gamma   90.00000000
_symmetry_Int_Tables_number   1
_chemical_formula_structural   TmMn3SnTe
_chemical_formula_sum   'Tm1 Mn3 Sn1 Te1'
_cell_volume   134.64546583
_cell_formula_units_Z   1
loop_
 _symmetry_equiv_pos_site_id
 _symmetry_equiv_pos_as_xyz
  1  'x, y, z'
loop_
 _atom_site_type_symbol
 _atom_site_label
 _atom_site_symmetry_multiplicity
 _atom_site_fract_x
 _atom_site_fract_y
 _atom_site_fract_z
 _atom_site_occupancy
  Mn  Mn0  1  0.50000001  0.00000000  0.73922703  1
  Mn  Mn1  1  -0.00000000  0.50000001  0.26077301  1
  Mn  Mn2  1  0.50000001  0.50000001  0.00000000  1
  Sn  Sn3  1  0.50000001  0.00000000  0.38419802  1
  Tm  Tm4  1  -0.00000000  0.50000001  0.61580202  1
  Te  Te5  1  0.00000000  0.00000000  0.00000000  1
