# generated using pymatgen
data_Mn4O5
_symmetry_space_group_name_H-M   'P 1'
_cell_length_a   5.31068420
_cell_length_b   5.56847048
_cell_length_c   7.62224579
_cell_angle_alpha   107.73633575
_cell_angle_beta   107.17041779
_cell_angle_gamma   93.90910339
_symmetry_Int_Tables_number   1
_chemical_formula_structural   Mn4O5
_chemical_formula_sum   'Mn8 O10'
_cell_volume   202.00564417
_cell_formula_units_Z   2
loop_
 _symmetry_equiv_pos_site_id
 _symmetry_equiv_pos_as_xyz
  1  'x, y, z'
loop_
 _atom_site_type_symbol
 _atom_site_label
 _atom_site_symmetry_multiplicity
 _atom_site_fract_x
 _atom_site_fract_y
 _atom_site_fract_z
 _atom_site_occupancy
  Mn  Mn0  1  0.16821995  0.54639796  0.12589396  1
  O  O1  1  0.52013296  0.18051799  0.85587395  1
  Mn  Mn2  1  0.49098690  0.91290594  0.47644892  1
  Mn  Mn3  1  0.76079592  0.44138497  0.67539893  1
  Mn  Mn4  1  0.00811792  0.99993993  0.02021294  1
  Mn  Mn5  1  0.99428787  0.99618593  0.50837189  1
  Mn  Mn6  1  0.65056894  0.34868698  0.24886095  1
  Mn  Mn7  1  0.35678693  0.66353696  0.78752293  1
  O  O8  1  0.71208095  0.19580999  0.39204595  1
  O  O9  1  0.28945492  0.83158395  0.65376692  1
  O  O10  1  0.36683795  0.38273397  0.67544495  1
  O  O11  1  0.13307294  0.66257696  0.88385193  1
  O  O12  1  0.85583693  0.32733398  0.13647795  1
  O  O13  1  0.63654390  0.78371295  0.93773491  1
  O  O14  1  0.64891592  0.62714896  0.36522693  1
  O  O15  1  0.36869396  0.24005598  0.08560897  1
  Mn  Mn16  1  0.81232595  0.11034999  0.72006195  1
  O  O17  1  0.15422092  0.88076294  0.29260593  1
