# generated using pymatgen
data_Pr5Nd
_symmetry_space_group_name_H-M   'P 1'
_cell_length_a   3.58389211
_cell_length_b   7.09414053
_cell_length_c   8.05083847
_cell_angle_alpha   104.21231842
_cell_angle_beta   90.00000000
_cell_angle_gamma   104.63113403
_symmetry_Int_Tables_number   1
_chemical_formula_structural   Pr5Nd
_chemical_formula_sum   'Pr5 Nd1'
_cell_volume   191.56998755
_cell_formula_units_Z   1
loop_
 _symmetry_equiv_pos_site_id
 _symmetry_equiv_pos_as_xyz
  1  'x, y, z'
loop_
 _atom_site_type_symbol
 _atom_site_label
 _atom_site_symmetry_multiplicity
 _atom_site_fract_x
 _atom_site_fract_y
 _atom_site_fract_z
 _atom_site_occupancy
  Pr  Pr0  1  0.39727489  0.79454997  0.27635595  1
  Nd  Nd1  1  0.66582194  0.33164399  0.36004897  1
  Pr  Pr2  1  0.71198592  0.42397199  0.91172894  1
  Pr  Pr3  1  0.00013400  0.00026800  0.99133996  1
  Pr  Pr4  1  0.04093999  0.08188000  0.61553397  1
  Pr  Pr5  1  0.35051090  0.70102198  0.67832594  1
