# generated using pymatgen
data_Rb2O2
_symmetry_space_group_name_H-M   'P 1'
_cell_length_a   6.27355623
_cell_length_b   6.27870131
_cell_length_c   6.27870131
_cell_angle_alpha   60.46602249
_cell_angle_beta   60.02710342
_cell_angle_gamma   60.02710342
_symmetry_Int_Tables_number   1
_chemical_formula_structural   Rb2O2
_chemical_formula_sum   'Rb5 O5'
_cell_volume   175.55926771
_cell_formula_units_Z   2
loop_
 _symmetry_equiv_pos_site_id
 _symmetry_equiv_pos_as_xyz
  1  'x, y, z'
loop_
 _atom_site_type_symbol
 _atom_site_label
 _atom_site_symmetry_multiplicity
 _atom_site_fract_x
 _atom_site_fract_y
 _atom_site_fract_z
 _atom_site_occupancy
  Rb  Rb0  1  0.74999998  0.23975900  0.26024098  1
  Rb  Rb1  1  0.24999997  0.76024101  0.73975901  1
  Rb  Rb2  1  0.49999999  0.00000000  0.99999999  1
  Rb  Rb3  1  -0.00000001  0.50000001  0.50000001  1
  O  O4  1  0.29575599  0.20424400  0.70424400  1
  O  O5  1  0.20424397  0.79575601  0.29575601  1
  O  O6  1  0.70424396  0.79575601  0.29575599  1
  O  O7  1  0.79575598  0.20424400  0.70424398  1
  O  O8  1  0.24999999  0.33105200  0.16894800  1
  Rb  Rb9  1  0.74999997  0.66894801  0.83105199  1
