# generated using pymatgen
data_CrB
_symmetry_space_group_name_H-M   'P 1'
_cell_length_a   3.19710636
_cell_length_b   3.19701052
_cell_length_c   5.13082409
_cell_angle_alpha   108.15258789
_cell_angle_beta   90.00338745
_cell_angle_gamma   119.99798584
_symmetry_Int_Tables_number   1
_chemical_formula_structural   CrB
_chemical_formula_sum   'Cr2 B2'
_cell_volume   42.37678894
_cell_formula_units_Z   2
loop_
 _symmetry_equiv_pos_site_id
 _symmetry_equiv_pos_as_xyz
  1  'x, y, z'
loop_
 _atom_site_type_symbol
 _atom_site_label
 _atom_site_symmetry_multiplicity
 _atom_site_fract_x
 _atom_site_fract_y
 _atom_site_fract_z
 _atom_site_occupancy
  Cr  Cr0  1  0.50000001  0.00000000  0.50000000  1
  Cr  Cr1  1  0.00000000  0.00000000  0.00000000  1
  B  B2  1  0.25000301  0.50000700  0.75001001  1
  B  B3  1  0.74999702  0.49999300  0.24999002  1
