# generated using pymatgen
data_Cs3Mn5O
_symmetry_space_group_name_H-M   'P 1'
_cell_length_a   6.20201111
_cell_length_b   6.20201111
_cell_length_c   6.20201111
_cell_angle_alpha   90.00000000
_cell_angle_beta   90.00000000
_cell_angle_gamma   90.00000000
_symmetry_Int_Tables_number   1
_chemical_formula_structural   Cs3Mn5O
_chemical_formula_sum   'Cs3 Mn5 O1'
_cell_volume   238.55999626
_cell_formula_units_Z   1
loop_
 _symmetry_equiv_pos_site_id
 _symmetry_equiv_pos_as_xyz
  1  'x, y, z'
loop_
 _atom_site_type_symbol
 _atom_site_label
 _atom_site_symmetry_multiplicity
 _atom_site_fract_x
 _atom_site_fract_y
 _atom_site_fract_z
 _atom_site_occupancy
  O  O0  1  0.49999999  0.49999999  0.49999999  1
  Mn  Mn1  1  0.00000000  0.00000000  0.00000000  1
  Mn  Mn2  1  -0.00000000  0.49999999  0.00000000  1
  Mn  Mn3  1  0.00000000  0.00000000  0.49999999  1
  Mn  Mn4  1  0.49999999  0.00000000  0.00000000  1
  Mn  Mn5  1  0.22042100  0.22042100  0.22042100  1
  Cs  Cs6  1  0.77957899  0.77957899  0.22042100  1
  Cs  Cs7  1  0.22042100  0.77957899  0.77957899  1
  Cs  Cs8  1  0.77957899  0.22042100  0.77957899  1
