# generated using pymatgen
data_RbLiVCuP2
_symmetry_space_group_name_H-M   'P 1'
_cell_length_a   4.12994099
_cell_length_b   4.12994099
_cell_length_c   6.65049696
_cell_angle_alpha   90.00000000
_cell_angle_beta   90.00000000
_cell_angle_gamma   90.00000000
_symmetry_Int_Tables_number   1
_chemical_formula_structural   RbLiVCuP2
_chemical_formula_sum   'Rb1 Li1 V1 Cu1 P2'
_cell_volume   113.43361983
_cell_formula_units_Z   1
loop_
 _symmetry_equiv_pos_site_id
 _symmetry_equiv_pos_as_xyz
  1  'x, y, z'
loop_
 _atom_site_type_symbol
 _atom_site_label
 _atom_site_symmetry_multiplicity
 _atom_site_fract_x
 _atom_site_fract_y
 _atom_site_fract_z
 _atom_site_occupancy
  Rb  Rb0  1  0.50000000  0.00000000  0.64254200  1
  Li  Li1  1  0.00000000  0.50000000  0.35745800  1
  P  P2  1  0.00000000  0.00000000  0.00000000  1
  P  P3  1  0.50000000  0.50000000  0.00000000  1
  Cu  Cu4  1  0.00000000  0.50000000  0.80535300  1
  V  V5  1  0.50000000  0.00000000  0.19464700  1
