# generated using pymatgen
data_RbAuF4
_symmetry_space_group_name_H-M   'P 1'
_cell_length_a   4.12994099
_cell_length_b   4.12994099
_cell_length_c   6.65049696
_cell_angle_alpha   90.00000000
_cell_angle_beta   90.00000000
_cell_angle_gamma   90.00000000
_symmetry_Int_Tables_number   1
_chemical_formula_structural   RbAuF4
_chemical_formula_sum   'Rb1 Au1 F4'
_cell_volume   113.43361983
_cell_formula_units_Z   1
loop_
 _symmetry_equiv_pos_site_id
 _symmetry_equiv_pos_as_xyz
  1  'x, y, z'
loop_
 _atom_site_type_symbol
 _atom_site_label
 _atom_site_symmetry_multiplicity
 _atom_site_fract_x
 _atom_site_fract_y
 _atom_site_fract_z
 _atom_site_occupancy
  F  F0  1  0.50000000  0.00000000  0.64254200  1
  F  F1  1  0.00000000  0.50000000  0.35745800  1
  F  F2  1  0.00000000  0.00000000  0.00000000  1
  F  F3  1  0.50000000  0.50000000  0.00000000  1
  Rb  Rb4  1  0.00000000  0.50000000  0.80535300  1
  Au  Au5  1  0.50000000  0.00000000  0.19464700  1
