# generated using pymatgen
data_CsHO3
_symmetry_space_group_name_H-M   'P 1'
_cell_length_a   4.89529324
_cell_length_b   5.27070904
_cell_length_c   5.27070904
_cell_angle_alpha   116.51544952
_cell_angle_beta   90.00000000
_cell_angle_gamma   90.00000000
_symmetry_Int_Tables_number   1
_chemical_formula_structural   CsHO3
_chemical_formula_sum   'Cs2 H2 O6'
_cell_volume   121.68851000
_cell_formula_units_Z   2
loop_
 _symmetry_equiv_pos_site_id
 _symmetry_equiv_pos_as_xyz
  1  'x, y, z'
loop_
 _atom_site_type_symbol
 _atom_site_label
 _atom_site_symmetry_multiplicity
 _atom_site_fract_x
 _atom_site_fract_y
 _atom_site_fract_z
 _atom_site_occupancy
  H  H0  1  0.27081699  0.02670200  0.67247898  1
  O  O1  1  0.77081696  0.97329795  0.32752094  1
  O  O2  1  0.77081696  0.32752098  0.97329796  1
  O  O3  1  0.27081699  0.67247897  0.02670196  1
  O  O4  1  0.61489497  0.09616700  0.65707998  1
  O  O5  1  0.11489499  0.90383295  0.34291994  1
  O  O6  1  0.11489499  0.34291998  0.90383296  1
  H  H7  1  0.61489497  0.65707997  0.09616696  1
  Cs  Cs8  1  0.22129699  0.79067996  0.79067993  1
  Cs  Cs9  1  0.72129697  0.20931999  0.20931998  1
