# generated using pymatgen
data_Mn3O
_symmetry_space_group_name_H-M   'P 1'
_cell_length_a   6.06215191
_cell_length_b   6.09071016
_cell_length_c   7.30380058
_cell_angle_alpha   114.64247894
_cell_angle_beta   114.51930237
_cell_angle_gamma   90.00000000
_symmetry_Int_Tables_number   1
_chemical_formula_structural   Mn3O
_chemical_formula_sum   'Mn6 O2'
_cell_volume   218.07569184
_cell_formula_units_Z   2
loop_
 _symmetry_equiv_pos_site_id
 _symmetry_equiv_pos_as_xyz
  1  'x, y, z'
loop_
 _atom_site_type_symbol
 _atom_site_label
 _atom_site_symmetry_multiplicity
 _atom_site_fract_x
 _atom_site_fract_y
 _atom_site_fract_z
 _atom_site_occupancy
  Mn  Mn0  1  0.11969894  0.86969894  0.23939793  1
  Mn  Mn1  1  0.38030096  0.63030096  0.76060194  1
  O  O2  1  0.61678497  0.36678498  0.23356994  1
  Mn  Mn3  1  0.88321498  0.13321499  0.76642995  1
  Mn  Mn4  1  0.00346395  0.74999995  0.49999995  1
  O  O5  1  0.49653598  0.24999998  0.49999996  1
  Mn  Mn6  1  0.24999996  0.51276297  -0.00000005  1
  Mn  Mn7  1  0.74999993  0.98723694  -0.00000012  1
