# generated using pymatgen
data_NiBH2O
_symmetry_space_group_name_H-M   'P 1'
_cell_length_a   3.15264630
_cell_length_b   3.15267563
_cell_length_c   4.66302013
_cell_angle_alpha   90.49968719
_cell_angle_beta   90.49995422
_cell_angle_gamma   60.01449585
_symmetry_Int_Tables_number   1
_chemical_formula_structural   NiBH2O
_chemical_formula_sum   'Ni1 B1 H2 O1'
_cell_volume   40.14152278
_cell_formula_units_Z   1
loop_
 _symmetry_equiv_pos_site_id
 _symmetry_equiv_pos_as_xyz
  1  'x, y, z'
loop_
 _atom_site_type_symbol
 _atom_site_label
 _atom_site_symmetry_multiplicity
 _atom_site_fract_x
 _atom_site_fract_y
 _atom_site_fract_z
 _atom_site_occupancy
  Ni  Ni0  1  0.07123399  0.92891404  0.00008803  1
  H  H1  1  0.72118198  0.61438602  0.42862705  1
  H  H2  1  0.38557299  0.27877301  0.57131504  1
  B  B3  1  0.73723598  0.59824302  0.22038504  1
  O  O4  1  0.40172699  0.26273201  0.77958505  1
