# generated using pymatgen
data_CsRb3PuIn2
_symmetry_space_group_name_H-M   'P 1'
_cell_length_a   4.00364685
_cell_length_b   4.10628414
_cell_length_c   7.85941410
_cell_angle_alpha   105.14326477
_cell_angle_beta   90.00000000
_cell_angle_gamma   90.00000000
_symmetry_Int_Tables_number   1
_chemical_formula_structural   CsRb3PuIn2
_chemical_formula_sum   'Cs1 Rb3 Pu1 In2'
_cell_volume   124.72292317
_cell_formula_units_Z   1
loop_
 _symmetry_equiv_pos_site_id
 _symmetry_equiv_pos_as_xyz
  1  'x, y, z'
loop_
 _atom_site_type_symbol
 _atom_site_label
 _atom_site_symmetry_multiplicity
 _atom_site_fract_x
 _atom_site_fract_y
 _atom_site_fract_z
 _atom_site_occupancy
  Rb  Rb0  1  0.25000001  0.10279800  0.20559700  1
  Rb  Rb1  1  0.75000003  0.90088797  0.80177600  1
  Pu  Pu2  1  0.25000001  0.30654499  0.61309000  1
  Rb  Rb3  1  0.25000001  0.45568399  0.91136800  1
  Cs  Cs4  1  0.75000003  0.55915298  0.11830600  1
  In  In5  1  0.25000001  0.74574698  0.49149500  1
  In  In6  1  0.75000003  0.24518399  0.49036700  1
