# generated using pymatgen
data_LiLuTlO9
_symmetry_space_group_name_H-M   'P 1'
_cell_length_a   4.98776007
_cell_length_b   5.09870481
_cell_length_c   5.21102810
_cell_angle_alpha   102.20097351
_cell_angle_beta   90.00000000
_cell_angle_gamma   90.00000000
_symmetry_Int_Tables_number   1
_chemical_formula_structural   LiLuTlO9
_chemical_formula_sum   'Li1 Lu1 Tl1 O9'
_cell_volume   129.52888885
_cell_formula_units_Z   1
loop_
 _symmetry_equiv_pos_site_id
 _symmetry_equiv_pos_as_xyz
  1  'x, y, z'
loop_
 _atom_site_type_symbol
 _atom_site_label
 _atom_site_symmetry_multiplicity
 _atom_site_fract_x
 _atom_site_fract_y
 _atom_site_fract_z
 _atom_site_occupancy
  Li  Li0  1  0.46157999  0.31423801  0.70655700  1
  Tl  Tl1  1  0.03842000  0.31423801  0.20655700  1
  O  O2  1  0.96157999  0.68576202  0.79344300  1
  Lu  Lu3  1  0.53841999  0.68576202  0.29344300  1
  O  O4  1  0.74607299  0.44447102  0.98864600  1
  O  O5  1  0.75392699  0.44447102  0.48864600  1
  O  O6  1  0.24607300  0.55552902  0.51135400  1
  O  O7  1  0.25392700  0.55552902  0.01135400  1
  O  O8  1  0.18022600  0.05551700  0.85052700  1
  O  O9  1  0.31977400  0.05551700  0.35052700  1
  O  O10  1  0.68022599  0.94448303  0.64947300  1
  O  O11  1  0.81977399  0.94448303  0.14947300  1
