# generated using pymatgen
data_KRb2NaAcMnPbO
_symmetry_space_group_name_H-M   'P 1'
_cell_length_a   4.38303280
_cell_length_b   4.38303280
_cell_length_c   10.22410870
_cell_angle_alpha   90.00000000
_cell_angle_beta   90.00000000
_cell_angle_gamma   90.00000000
_symmetry_Int_Tables_number   1
_chemical_formula_structural   KRb2NaAcMnPbO
_chemical_formula_sum   'Rb2 K1 Na1 Ac1 Mn1 Pb1 O1'
_cell_volume   196.41511205
_cell_formula_units_Z   1
loop_
 _symmetry_equiv_pos_site_id
 _symmetry_equiv_pos_as_xyz
  1  'x, y, z'
loop_
 _atom_site_type_symbol
 _atom_site_label
 _atom_site_symmetry_multiplicity
 _atom_site_fract_x
 _atom_site_fract_y
 _atom_site_fract_z
 _atom_site_occupancy
  Rb  Rb0  1  0.00000000  0.50000002  0.74995302  1
  K  K1  1  0.50000002  0.00000000  0.25004701  1
  Rb  Rb2  1  0.50000002  0.50000002  0.50000001  1
  Na  Na3  1  0.00000000  0.00000000  0.50000001  1
  Pb  Pb4  1  0.50000002  0.50000002  0.00000000  1
  Mn  Mn5  1  0.00000000  0.00000000  0.00000000  1
  Ac  Ac6  1  0.00000000  0.50000002  0.34743901  1
  O  O7  1  0.50000002  0.00000000  0.65256102  1
