# generated using pymatgen
data_Ce
_symmetry_space_group_name_H-M   'P 1'
_cell_length_a   3.29153800
_cell_length_b   3.29153752
_cell_length_c   37.63743591
_cell_angle_alpha   90.00000000
_cell_angle_beta   90.00000000
_cell_angle_gamma   120.00000763
_symmetry_Int_Tables_number   1
_chemical_formula_structural   Ce
_chemical_formula_sum   Ce12
_cell_volume   353.14113703
_cell_formula_units_Z   12
loop_
 _symmetry_equiv_pos_site_id
 _symmetry_equiv_pos_as_xyz
  1  'x, y, z'
loop_
 _atom_site_type_symbol
 _atom_site_label
 _atom_site_symmetry_multiplicity
 _atom_site_fract_x
 _atom_site_fract_y
 _atom_site_fract_z
 _atom_site_occupancy
  Ce  Ce0  1  0.66666669  0.33333335  0.90665500  1
  Ce  Ce1  1  0.66666669  0.33333335  0.53116800  1
  Ce  Ce2  1  0.33333337  0.66666669  0.71814800  1
  Ce  Ce3  1  0.33333337  0.66666669  0.34109300  1
  Ce  Ce4  1  0.66666669  0.33333335  0.29609200  1
  Ce  Ce5  1  0.33333337  0.66666669  0.95142700  1
  Ce  Ce6  1  0.33333337  0.66666669  0.57595900  1
  Ce  Ce7  1  0.33333337  0.66666669  0.86189000  1
  Ce  Ce8  1  0.33333337  0.66666669  0.48640700  1
  Ce  Ce9  1  0.66666669  0.33333335  0.38609200  1
  Ce  Ce10  1  0.66666669  0.33333335  0.67743200  1
  Ce  Ce11  1  0.66666669  0.33333335  0.75888800  1
