# generated using pymatgen
data_Pr4Er
_symmetry_space_group_name_H-M   'P 1'
_cell_length_a   3.88105202
_cell_length_b   3.88105202
_cell_length_c   6.42551136
_cell_angle_alpha   107.57797241
_cell_angle_beta   107.57797241
_cell_angle_gamma   90.00000000
_symmetry_Int_Tables_number   1
_chemical_formula_structural   Pr4Er
_chemical_formula_sum   'Pr4 Er1'
_cell_volume   87.51325659
_cell_formula_units_Z   1
loop_
 _symmetry_equiv_pos_site_id
 _symmetry_equiv_pos_as_xyz
  1  'x, y, z'
loop_
 _atom_site_type_symbol
 _atom_site_label
 _atom_site_symmetry_multiplicity
 _atom_site_fract_x
 _atom_site_fract_y
 _atom_site_fract_z
 _atom_site_occupancy
  Er  Er0  1  0.00379300  0.00379300  0.00758600  1
  Pr  Pr1  1  0.24359403  0.74359401  0.48718904  1
  Pr  Pr2  1  0.74359502  0.24359500  0.48718904  1
  Pr  Pr3  1  0.35374902  0.35374901  0.70749803  1
  Pr  Pr4  1  0.65526904  0.65526901  0.31053805  1
