# generated using pymatgen
data_KTm(Mn4Sn)2
_symmetry_space_group_name_H-M   'P 1'
_cell_length_a   5.11294889
_cell_length_b   5.11294889
_cell_length_c   8.58841991
_cell_angle_alpha   90.00000000
_cell_angle_beta   90.00000000
_cell_angle_gamma   115.72463226
_symmetry_Int_Tables_number   1
_chemical_formula_structural   KTm(Mn4Sn)2
_chemical_formula_sum   'K1 Tm1 Mn8 Sn2'
_cell_volume   202.26846662
_cell_formula_units_Z   1
loop_
 _symmetry_equiv_pos_site_id
 _symmetry_equiv_pos_as_xyz
  1  'x, y, z'
loop_
 _atom_site_type_symbol
 _atom_site_label
 _atom_site_symmetry_multiplicity
 _atom_site_fract_x
 _atom_site_fract_y
 _atom_site_fract_z
 _atom_site_occupancy
  Mn  Mn0  1  0.32721004  0.67279001  0.93377301  1
  Mn  Mn1  1  0.67279001  0.32721000  0.06622700  1
  K  K2  1  0.67279001  0.32721000  0.43377300  1
  Tm  Tm3  1  0.32721004  0.67279001  0.56622701  1
  Sn  Sn4  1  0.15795305  0.84204701  0.25000000  1
  Mn  Mn5  1  0.84204700  0.15795300  0.75000001  1
  Mn  Mn6  1  0.64583004  0.82843201  0.25000000  1
  Mn  Mn7  1  0.35417001  0.17156800  0.75000001  1
  Mn  Mn8  1  0.17156802  0.35417000  0.25000000  1
  Mn  Mn9  1  0.82843203  0.64583001  0.75000001  1
  Sn  Sn10  1  0.00000000  0.00000000  0.50000000  1
  Mn  Mn11  1  0.00000000  0.00000000  0.00000000  1
