# generated using pymatgen
data_K3Rb
_symmetry_space_group_name_H-M   'P 1'
_cell_length_a   4.77613401
_cell_length_b   4.77613401
_cell_length_c   5.78501987
_cell_angle_alpha   114.38096619
_cell_angle_beta   114.38096619
_cell_angle_gamma   90.00000000
_symmetry_Int_Tables_number   1
_chemical_formula_structural   K3Rb
_chemical_formula_sum   'K3 Rb1'
_cell_volume   107.14278059
_cell_formula_units_Z   1
loop_
 _symmetry_equiv_pos_site_id
 _symmetry_equiv_pos_as_xyz
  1  'x, y, z'
loop_
 _atom_site_type_symbol
 _atom_site_label
 _atom_site_symmetry_multiplicity
 _atom_site_fract_x
 _atom_site_fract_y
 _atom_site_fract_z
 _atom_site_occupancy
  K  K0  1  0.00000000  0.00000000  0.00000000  1
  Rb  Rb1  1  0.75000001  0.25000000  0.50000004  1
  K  K2  1  0.25000002  0.75000001  0.50000004  1
  K  K3  1  0.50000002  0.50000001  0.00000003  1
