# generated using pymatgen
data_RbAu2O5
_symmetry_space_group_name_H-M   'P 1'
_cell_length_a   3.39655805
_cell_length_b   5.88375616
_cell_length_c   6.41243696
_cell_angle_alpha   90.00000000
_cell_angle_beta   90.00000000
_cell_angle_gamma   90.00000000
_symmetry_Int_Tables_number   1
_chemical_formula_structural   RbAu2O5
_chemical_formula_sum   'Rb1 Au2 O5'
_cell_volume   128.14947042
_cell_formula_units_Z   1
loop_
 _symmetry_equiv_pos_site_id
 _symmetry_equiv_pos_as_xyz
  1  'x, y, z'
loop_
 _atom_site_type_symbol
 _atom_site_label
 _atom_site_symmetry_multiplicity
 _atom_site_fract_x
 _atom_site_fract_y
 _atom_site_fract_z
 _atom_site_occupancy
  O  O0  1  0.49999999  0.24936399  0.69082400  1
  Rb  Rb1  1  0.00000000  0.75063598  0.19082400  1
  O  O2  1  0.49999999  0.74440298  0.80691300  1
  O  O3  1  0.00000000  0.25559699  0.30691300  1
  Au  Au4  1  0.49999999  0.04655800  0.07551200  1
  O  O5  1  0.49999999  0.55901398  0.42675000  1
  Au  Au6  1  -0.00000000  0.44098599  0.92675001  1
  O  O7  1  -0.00000000  0.95344197  0.57551200  1
