# generated using pymatgen
data_Mn8SnO
_symmetry_space_group_name_H-M   'P 1'
_cell_length_a   6.02406788
_cell_length_b   6.02406788
_cell_length_c   6.02406788
_cell_angle_alpha   60.99923325
_cell_angle_beta   60.99923325
_cell_angle_gamma   60.99923706
_symmetry_Int_Tables_number   1
_chemical_formula_structural   Mn8SnO
_chemical_formula_sum   'Mn8 Sn1 O1'
_cell_volume   158.05970986
_cell_formula_units_Z   1
loop_
 _symmetry_equiv_pos_site_id
 _symmetry_equiv_pos_as_xyz
  1  'x, y, z'
loop_
 _atom_site_type_symbol
 _atom_site_label
 _atom_site_symmetry_multiplicity
 _atom_site_fract_x
 _atom_site_fract_y
 _atom_site_fract_z
 _atom_site_occupancy
  Mn  Mn0  1  0.25023701  0.25023700  0.25023700  1
  Sn  Sn1  1  0.73975103  0.73975101  0.73975099  1
  Mn  Mn2  1  0.99928104  0.99928101  0.99928099  1
  O  O3  1  0.49946102  0.49946101  0.49946099  1
  Mn  Mn4  1  0.72311402  0.18850200  0.35280300  1
  Mn  Mn5  1  0.35280302  0.72311401  0.18850199  1
  Mn  Mn6  1  0.18850201  0.35280300  0.72311400  1
  Mn  Mn7  1  0.28108102  0.79287901  0.67289099  1
  Mn  Mn8  1  0.67289102  0.28108100  0.79287900  1
  Mn  Mn9  1  0.79287903  0.67289101  0.28108099  1
