# generated using pymatgen
data_PrO5
_symmetry_space_group_name_H-M   'P 1'
_cell_length_a   5.04781580
_cell_length_b   5.16875935
_cell_length_c   5.16875935
_cell_angle_alpha   61.54133224
_cell_angle_beta   60.77105713
_cell_angle_gamma   60.77105713
_symmetry_Int_Tables_number   1
_chemical_formula_structural   PrO5
_chemical_formula_sum   'Pr1 O5'
_cell_volume   97.55469525
_cell_formula_units_Z   1
loop_
 _symmetry_equiv_pos_site_id
 _symmetry_equiv_pos_as_xyz
  1  'x, y, z'
loop_
 _atom_site_type_symbol
 _atom_site_label
 _atom_site_symmetry_multiplicity
 _atom_site_fract_x
 _atom_site_fract_y
 _atom_site_fract_z
 _atom_site_occupancy
  O  O0  1  0.13010098  0.83976803  0.16023203  1
  O  O1  1  0.13010100  0.16023200  0.83976803  1
  O  O2  1  0.77734104  0.11671700  0.11671698  1
  O  O3  1  0.01077497  0.88328203  0.88328305  1
  Pr  Pr4  1  0.49158501  0.50000002  0.50000002  1
  O  O5  1  0.00909797  1.00000003  1.00000006  1
