# generated using pymatgen
data_Mn4SnTePb
_symmetry_space_group_name_H-M   'P 1'
_cell_length_a   4.01917887
_cell_length_b   4.02649689
_cell_length_c   8.39389420
_cell_angle_alpha   103.87749481
_cell_angle_beta   90.00000000
_cell_angle_gamma   90.00000000
_symmetry_Int_Tables_number   1
_chemical_formula_structural   Mn4SnTePb
_chemical_formula_sum   'Mn4 Sn1 Te1 Pb1'
_cell_volume   131.87509222
_cell_formula_units_Z   1
loop_
 _symmetry_equiv_pos_site_id
 _symmetry_equiv_pos_as_xyz
  1  'x, y, z'
loop_
 _atom_site_type_symbol
 _atom_site_label
 _atom_site_symmetry_multiplicity
 _atom_site_fract_x
 _atom_site_fract_y
 _atom_site_fract_z
 _atom_site_occupancy
  Te  Te0  1  0.25000001  0.10731900  0.21463800  1
  Mn  Mn1  1  0.75000002  0.89622003  0.79244002  1
  Mn  Mn2  1  0.25000001  0.31707501  0.63415001  1
  Mn  Mn3  1  0.25000001  0.45817202  0.91634402  1
  Pb  Pb4  1  0.75000002  0.55588102  0.11176201  1
  Sn  Sn5  1  0.25000001  0.74031802  0.48063501  1
  Mn  Mn6  1  0.75000002  0.24201601  0.48403101  1
