# generated using pymatgen
data_LiTlCuIO3
_symmetry_space_group_name_H-M   'P 1'
_cell_length_a   3.35538197
_cell_length_b   5.47934341
_cell_length_c   5.55061483
_cell_angle_alpha   105.18858337
_cell_angle_beta   90.00000000
_cell_angle_gamma   107.82945251
_symmetry_Int_Tables_number   1
_chemical_formula_structural   LiTlCuIO3
_chemical_formula_sum   'Li1 Tl1 Cu1 I1 O3'
_cell_volume   93.39682915
_cell_formula_units_Z   1
loop_
 _symmetry_equiv_pos_site_id
 _symmetry_equiv_pos_as_xyz
  1  'x, y, z'
loop_
 _atom_site_type_symbol
 _atom_site_label
 _atom_site_symmetry_multiplicity
 _atom_site_fract_x
 _atom_site_fract_y
 _atom_site_fract_z
 _atom_site_occupancy
  I  I0  1  0.39352501  0.78704996  0.18344995  1
  O  O1  1  0.60647501  0.21294999  0.81654995  1
  O  O2  1  0.15636400  0.31272798  0.38954197  1
  O  O3  1  0.84363602  0.68727196  0.61045794  1
  Cu  Cu4  1  0.71603301  0.43206598  0.26844196  1
  Li  Li5  1  0.28396701  0.56793397  0.73155794  1
  Tl  Tl6  1  0.00000000  0.00000000  0.49999998  1
