# generated using pymatgen
data_CsKMn5Sn
_symmetry_space_group_name_H-M   'P 1'
_cell_length_a   6.39092112
_cell_length_b   6.39092112
_cell_length_c   6.39092112
_cell_angle_alpha   109.47122192
_cell_angle_beta   109.47122192
_cell_angle_gamma   109.47122192
_symmetry_Int_Tables_number   1
_chemical_formula_structural   CsKMn5Sn
_chemical_formula_sum   'Cs1 K1 Mn5 Sn1'
_cell_volume   200.94095389
_cell_formula_units_Z   1
loop_
 _symmetry_equiv_pos_site_id
 _symmetry_equiv_pos_as_xyz
  1  'x, y, z'
loop_
 _atom_site_type_symbol
 _atom_site_label
 _atom_site_symmetry_multiplicity
 _atom_site_fract_x
 _atom_site_fract_y
 _atom_site_fract_z
 _atom_site_occupancy
  Mn  Mn0  1  0.50000000  0.00000000  0.50000001  1
  Mn  Mn1  1  0.50000003  0.50000002  0.00000004  1
  Mn  Mn2  1  0.00000003  0.50000002  0.50000002  1
  Cs  Cs3  1  0.00000000  0.00000000  0.00000000  1
  Mn  Mn4  1  1.00000006  1.00000003  0.35178008  1
  Sn  Sn5  1  0.00000002  0.35178001  0.00000002  1
  K  K6  1  0.64822004  0.64822002  0.64822005  1
  Mn  Mn7  1  0.35178000  0.00000000  0.00000001  1
