# generated using pymatgen
data_Mn3Te
_symmetry_space_group_name_H-M   'P 1'
_cell_length_a   3.05944204
_cell_length_b   4.55387783
_cell_length_c   6.04776716
_cell_angle_alpha   89.63020325
_cell_angle_beta   90.00000000
_cell_angle_gamma   90.00000000
_symmetry_Int_Tables_number   1
_chemical_formula_structural   Mn3Te
_chemical_formula_sum   'Mn6 Te2'
_cell_volume   84.25770445
_cell_formula_units_Z   2
loop_
 _symmetry_equiv_pos_site_id
 _symmetry_equiv_pos_as_xyz
  1  'x, y, z'
loop_
 _atom_site_type_symbol
 _atom_site_label
 _atom_site_symmetry_multiplicity
 _atom_site_fract_x
 _atom_site_fract_y
 _atom_site_fract_z
 _atom_site_occupancy
  Te  Te0  1  0.49999999  0.87490703  0.17577499  1
  Mn  Mn1  1  -0.00000000  0.37868401  0.32710499  1
  Te  Te2  1  0.00000000  0.11891900  0.82153097  1
  Mn  Mn3  1  0.49999999  0.10224700  0.52901798  1
  Mn  Mn4  1  0.49999999  0.39968901  0.02891000  1
  Mn  Mn5  1  0.00000000  0.90038803  0.46980798  1
  Mn  Mn6  1  0.00000000  0.60238102  0.96895896  1
  Mn  Mn7  1  0.49999999  0.62278502  0.67889397  1
