# generated using pymatgen
data_Ce
_symmetry_space_group_name_H-M   'P 1'
_cell_length_a   3.32354593
_cell_length_b   3.32354569
_cell_length_c   37.82531357
_cell_angle_alpha   90.00000000
_cell_angle_beta   90.00000000
_cell_angle_gamma   120.00000000
_symmetry_Int_Tables_number   1
_chemical_formula_structural   Ce
_chemical_formula_sum   Ce12
_cell_volume   361.83994445
_cell_formula_units_Z   12
loop_
 _symmetry_equiv_pos_site_id
 _symmetry_equiv_pos_as_xyz
  1  'x, y, z'
loop_
 _atom_site_type_symbol
 _atom_site_label
 _atom_site_symmetry_multiplicity
 _atom_site_fract_x
 _atom_site_fract_y
 _atom_site_fract_z
 _atom_site_occupancy
  Ce  Ce0  1  0.00000000  0.00000000  0.90607903  1
  Ce  Ce1  1  0.66666666  0.33333333  0.71820003  1
  Ce  Ce2  1  0.66666666  0.33333333  0.34245901  1
  Ce  Ce3  1  0.00000000  0.00000000  0.53034002  1
  Ce  Ce4  1  0.00000000  0.00000000  0.67388703  1
  Ce  Ce5  1  0.00000000  0.00000000  0.29815901  1
  Ce  Ce6  1  0.66666666  0.33333333  0.95037704  1
  Ce  Ce7  1  0.66666666  0.33333333  0.57486202  1
  Ce  Ce8  1  0.66666666  0.33333333  0.86177003  1
  Ce  Ce9  1  0.66666666  0.33333333  0.48582302  1
  Ce  Ce10  1  0.00000000  0.00000000  0.76251803  1
  Ce  Ce11  1  0.00000000  0.00000000  0.38677701  1
