# generated using pymatgen
data_KLa(MnPb)3
_symmetry_space_group_name_H-M   'P 1'
_cell_length_a   5.23346710
_cell_length_b   6.60310793
_cell_length_c   6.60310841
_cell_angle_alpha   60.00000381
_cell_angle_beta   90.00000000
_cell_angle_gamma   90.00000000
_symmetry_Int_Tables_number   1
_chemical_formula_structural   KLa(MnPb)3
_chemical_formula_sum   'K1 La1 Mn3 Pb3'
_cell_volume   197.61366382
_cell_formula_units_Z   1
loop_
 _symmetry_equiv_pos_site_id
 _symmetry_equiv_pos_as_xyz
  1  'x, y, z'
loop_
 _atom_site_type_symbol
 _atom_site_label
 _atom_site_symmetry_multiplicity
 _atom_site_fract_x
 _atom_site_fract_y
 _atom_site_fract_z
 _atom_site_occupancy
  Mn  Mn0  1  0.25000000  0.33333333  0.33333335  1
  Pb  Pb1  1  0.74999999  0.66666667  0.66666670  1
  Mn  Mn2  1  0.74999999  0.67230100  0.16385001  1
  Mn  Mn3  1  0.74999999  0.16384900  0.16385001  1
  K  K4  1  0.74999999  0.16384900  0.67230202  1
  Pb  Pb5  1  0.25000000  0.32769900  0.83615003  1
  Pb  Pb6  1  0.25000000  0.83615100  0.83615004  1
  La  La7  1  0.25000000  0.83615100  0.32769802  1
