# generated using pymatgen
data_Rb2CuAg4
_symmetry_space_group_name_H-M   'P 1'
_cell_length_a   4.49552917
_cell_length_b   4.49955893
_cell_length_c   8.88309669
_cell_angle_alpha   90.00000000
_cell_angle_beta   104.65737915
_cell_angle_gamma   90.00000000
_symmetry_Int_Tables_number   1
_chemical_formula_structural   Rb2CuAg4
_chemical_formula_sum   'Rb2 Cu1 Ag4'
_cell_volume   173.83870892
_cell_formula_units_Z   1
loop_
 _symmetry_equiv_pos_site_id
 _symmetry_equiv_pos_as_xyz
  1  'x, y, z'
loop_
 _atom_site_type_symbol
 _atom_site_label
 _atom_site_symmetry_multiplicity
 _atom_site_fract_x
 _atom_site_fract_y
 _atom_site_fract_z
 _atom_site_occupancy
  Ag  Ag0  1  0.89570097  0.75000001  0.79140296  1
  Rb  Rb1  1  0.10212200  0.25000000  0.20424499  1
  Cu  Cu2  1  0.68834497  0.75000001  0.37668998  1
  Ag  Ag3  1  0.25744199  0.75000001  0.51488398  1
  Ag  Ag4  1  0.75812897  0.25000000  0.51625798  1
  Ag  Ag5  1  0.54528098  0.75000001  0.09056200  1
  Rb  Rb6  1  0.43297898  0.25000000  0.86595796  1
