# generated using pymatgen
data_Pr5Nd
_symmetry_space_group_name_H-M   'P 1'
_cell_length_a   3.14226007
_cell_length_b   6.46039248
_cell_length_c   7.99955797
_cell_angle_alpha   102.65017700
_cell_angle_beta   90.00000000
_cell_angle_gamma   104.07514191
_symmetry_Int_Tables_number   1
_chemical_formula_structural   Pr5Nd
_chemical_formula_sum   'Pr5 Nd1'
_cell_volume   153.45024580
_cell_formula_units_Z   1
loop_
 _symmetry_equiv_pos_site_id
 _symmetry_equiv_pos_as_xyz
  1  'x, y, z'
loop_
 _atom_site_type_symbol
 _atom_site_label
 _atom_site_symmetry_multiplicity
 _atom_site_fract_x
 _atom_site_fract_y
 _atom_site_fract_z
 _atom_site_occupancy
  Pr  Pr0  1  0.38090899  0.76181800  0.29937603  1
  Pr  Pr1  1  0.67746798  0.35493600  0.34398001  1
  Pr  Pr2  1  0.05181800  0.10363600  0.57210099  1
  Nd  Nd3  1  0.99978598  0.99957200  0.98665803  1
  Pr  Pr4  1  0.33482599  0.66965200  0.68966102  1
  Pr  Pr5  1  0.72186098  0.44372200  0.94155800  1
