# generated using pymatgen
data_Cs2Mn3
_symmetry_space_group_name_H-M   'P 1'
_cell_length_a   4.55417919
_cell_length_b   7.46295977
_cell_length_c   7.46295977
_cell_angle_alpha   90.00000000
_cell_angle_beta   90.00000000
_cell_angle_gamma   90.00000000
_symmetry_Int_Tables_number   1
_chemical_formula_structural   Cs2Mn3
_chemical_formula_sum   'Cs4 Mn6'
_cell_volume   253.64850985
_cell_formula_units_Z   2
loop_
 _symmetry_equiv_pos_site_id
 _symmetry_equiv_pos_as_xyz
  1  'x, y, z'
loop_
 _atom_site_type_symbol
 _atom_site_label
 _atom_site_symmetry_multiplicity
 _atom_site_fract_x
 _atom_site_fract_y
 _atom_site_fract_z
 _atom_site_occupancy
  Mn  Mn0  1  0.49999998  0.67847802  0.17847801  1
  Mn  Mn1  1  0.49999998  0.32152201  0.82152203  1
  Cs  Cs2  1  0.49999998  0.17847801  0.32152201  1
  Cs  Cs3  1  0.49999998  0.82152203  0.67847802  1
  Mn  Mn4  1  0.00000000  0.00000000  0.00000000  1
  Cs  Cs5  1  0.99999996  0.50000002  0.50000002  1
  Cs  Cs6  1  0.00000000  0.11675000  0.61675002  1
  Mn  Mn7  1  0.99999996  0.88325003  0.38325001  1
  Mn  Mn8  1  0.99999996  0.61675002  0.88325003  1
  Mn  Mn9  1  -0.00000000  0.38325001  0.11675000  1
