# generated using pymatgen
data_KRb2O2
_symmetry_space_group_name_H-M   'P 1'
_cell_length_a   4.69317198
_cell_length_b   4.69317293
_cell_length_c   7.34825611
_cell_angle_alpha   90.00000000
_cell_angle_beta   90.00000000
_cell_angle_gamma   119.99999237
_symmetry_Int_Tables_number   1
_chemical_formula_structural   KRb2O2
_chemical_formula_sum   'Rb2 K1 O2'
_cell_volume   140.16770922
_cell_formula_units_Z   1
loop_
 _symmetry_equiv_pos_site_id
 _symmetry_equiv_pos_as_xyz
  1  'x, y, z'
loop_
 _atom_site_type_symbol
 _atom_site_label
 _atom_site_symmetry_multiplicity
 _atom_site_fract_x
 _atom_site_fract_y
 _atom_site_fract_z
 _atom_site_occupancy
  Rb  Rb0  1  0.00000000  0.00000000  0.00000000  1
  O  O1  1  0.33333330  0.66666662  0.63891799  1
  O  O2  1  0.66666665  0.33333331  0.36108199  1
  K  K3  1  0.33333330  0.66666662  0.24321700  1
  Rb  Rb4  1  0.66666665  0.33333331  0.75678299  1
