# generated using pymatgen
data_TmAg2
_symmetry_space_group_name_H-M   'P 1'
_cell_length_a   4.24679804
_cell_length_b   5.73869228
_cell_length_c   5.73869228
_cell_angle_alpha   73.54903412
_cell_angle_beta   68.28349304
_cell_angle_gamma   68.28349304
_symmetry_Int_Tables_number   1
_chemical_formula_structural   TmAg2
_chemical_formula_sum   'Tm2 Ag4'
_cell_volume   118.96357502
_cell_formula_units_Z   2
loop_
 _symmetry_equiv_pos_site_id
 _symmetry_equiv_pos_as_xyz
  1  'x, y, z'
loop_
 _atom_site_type_symbol
 _atom_site_label
 _atom_site_symmetry_multiplicity
 _atom_site_fract_x
 _atom_site_fract_y
 _atom_site_fract_z
 _atom_site_occupancy
  Tm  Tm0  1  0.44369799  0.30630201  0.80630205  1
  Tm  Tm1  1  0.55630197  0.69369802  0.19369806  1
  Ag  Ag2  1  0.83890797  0.71123802  0.61094607  1
  Ag  Ag3  1  0.16109199  0.28876201  0.38905403  1
  Ag  Ag4  1  0.16109197  0.88905402  0.78876209  1
  Ag  Ag5  1  0.83890799  0.11094600  0.21123801  1
