# generated using pymatgen
data_CsCoNiAs2
_symmetry_space_group_name_H-M   'P 1'
_cell_length_a   3.97298002
_cell_length_b   3.97298002
_cell_length_c   6.45523310
_cell_angle_alpha   107.92267609
_cell_angle_beta   107.92267609
_cell_angle_gamma   90.00000000
_symmetry_Int_Tables_number   1
_chemical_formula_structural   CsCoNiAs2
_chemical_formula_sum   'Cs1 Co1 Ni1 As2'
_cell_volume   91.73776122
_cell_formula_units_Z   1
loop_
 _symmetry_equiv_pos_site_id
 _symmetry_equiv_pos_as_xyz
  1  'x, y, z'
loop_
 _atom_site_type_symbol
 _atom_site_label
 _atom_site_symmetry_multiplicity
 _atom_site_fract_x
 _atom_site_fract_y
 _atom_site_fract_z
 _atom_site_occupancy
  Cs  Cs0  1  0.00000000  0.00000000  0.00000000  1
  Ni  Ni1  1  0.24999996  0.74999998  0.49999997  1
  Co  Co2  1  0.74999997  0.24999999  0.49999997  1
  As  As3  1  0.64725796  0.64725798  0.29451595  1
  As  As4  1  0.35274198  0.35274199  0.70548399  1
