# generated using pymatgen
data_Rb3Mn2O5
_symmetry_space_group_name_H-M   'P 1'
_cell_length_a   5.44917488
_cell_length_b   5.48673105
_cell_length_c   5.48770428
_cell_angle_alpha   61.51467896
_cell_angle_beta   61.93949509
_cell_angle_gamma   61.43686295
_symmetry_Int_Tables_number   1
_chemical_formula_structural   Rb3Mn2O5
_chemical_formula_sum   'Rb3 Mn2 O5'
_cell_volume   120.25344812
_cell_formula_units_Z   1
loop_
 _symmetry_equiv_pos_site_id
 _symmetry_equiv_pos_as_xyz
  1  'x, y, z'
loop_
 _atom_site_type_symbol
 _atom_site_label
 _atom_site_symmetry_multiplicity
 _atom_site_fract_x
 _atom_site_fract_y
 _atom_site_fract_z
 _atom_site_occupancy
  O  O0  1  0.25047000  0.74947198  0.74974299  1
  O  O1  1  0.74953001  0.25052899  0.25025600  1
  Mn  Mn2  1  0.50000001  0.00000000  0.00000000  1
  O  O3  1  -0.00000000  0.49999999  0.49999999  1
  Mn  Mn4  1  0.31095300  0.25407799  0.67917800  1
  Rb  Rb5  1  0.68904701  0.74592198  0.32082300  1
  O  O6  1  0.18315700  0.82204398  0.25292000  1
  Rb  Rb7  1  0.81684301  0.17795599  0.74708100  1
  Rb  Rb8  1  0.74467001  0.68247498  0.82249500  1
  O  O9  1  0.25532800  0.31752499  0.17750500  1
