# generated using pymatgen
data_KSmCu3Ni2Ag2H6F
_symmetry_space_group_name_H-M   'P 1'
_cell_length_a   4.90985584
_cell_length_b   4.90985584
_cell_length_c   5.35010481
_cell_angle_alpha   90.00000000
_cell_angle_beta   90.00000000
_cell_angle_gamma   90.00000000
_symmetry_Int_Tables_number   1
_chemical_formula_structural   KSmCu3Ni2Ag2H6F
_chemical_formula_sum   'K1 Sm1 Cu3 Ni2 Ag2 H6 F1'
_cell_volume   128.97328811
_cell_formula_units_Z   1
loop_
 _symmetry_equiv_pos_site_id
 _symmetry_equiv_pos_as_xyz
  1  'x, y, z'
loop_
 _atom_site_type_symbol
 _atom_site_label
 _atom_site_symmetry_multiplicity
 _atom_site_fract_x
 _atom_site_fract_y
 _atom_site_fract_z
 _atom_site_occupancy
  Sm  Sm0  1  0.00000000  0.00000000  0.50192502  1
  K  K1  1  0.00000000  0.00000000  0.00192500  1
  Ag  Ag2  1  0.50000002  0.50000002  0.50870102  1
  F  F3  1  0.50000002  0.50000002  0.00870100  1
  Cu  Cu4  1  0.50000002  0.00000000  0.47118102  1
  Ag  Ag5  1  0.00000000  0.50000002  0.97118103  1
  Cu  Cu6  1  0.50000002  0.00000000  0.04580300  1
  Cu  Cu7  1  0.00000000  0.50000002  0.54580302  1
  H  H8  1  0.22800001  0.46064501  0.25666101  1
  H  H9  1  0.77200002  0.53935502  0.25666101  1
  H  H10  1  0.46064501  0.77200002  0.75666103  1
  H  H11  1  0.53935502  0.22800001  0.75666103  1
  H  H12  1  0.25018801  0.74457902  0.75763503  1
  Ni  Ni13  1  0.74981202  0.25542101  0.75763503  1
  H  H14  1  0.74457902  0.74981202  0.25763501  1
  Ni  Ni15  1  0.25542101  0.25018801  0.25763501  1
