# generated using pymatgen
data_CoCu2As3
_symmetry_space_group_name_H-M   'P 1'
_cell_length_a   3.51205397
_cell_length_b   3.51205397
_cell_length_c   5.90399599
_cell_angle_alpha   90.00000000
_cell_angle_beta   90.00000000
_cell_angle_gamma   90.00000000
_symmetry_Int_Tables_number   1
_chemical_formula_structural   CoCu2As3
_chemical_formula_sum   'Co1 Cu2 As3'
_cell_volume   72.82297472
_cell_formula_units_Z   1
loop_
 _symmetry_equiv_pos_site_id
 _symmetry_equiv_pos_as_xyz
  1  'x, y, z'
loop_
 _atom_site_type_symbol
 _atom_site_label
 _atom_site_symmetry_multiplicity
 _atom_site_fract_x
 _atom_site_fract_y
 _atom_site_fract_z
 _atom_site_occupancy
  As  As0  1  0.00000000  0.00000000  0.00000000  1
  Cu  Cu1  1  0.50000000  0.50000000  0.00000000  1
  As  As2  1  0.00000000  0.50000000  0.75265000  1
  Co  Co3  1  0.50000000  0.00000000  0.24735000  1
  Cu  Cu4  1  0.00000000  0.50000000  0.36691500  1
  As  As5  1  0.50000000  0.00000000  0.63308500  1
