# generated using pymatgen
data_RbNa2Mn2O
_symmetry_space_group_name_H-M   'P 1'
_cell_length_a   4.43370819
_cell_length_b   4.43370724
_cell_length_c   10.91073418
_cell_angle_alpha   90.00000000
_cell_angle_beta   90.00000000
_cell_angle_gamma   120.00000763
_symmetry_Int_Tables_number   1
_chemical_formula_structural   RbNa2Mn2O
_chemical_formula_sum   'Rb1 Na2 Mn2 O1'
_cell_volume   185.74566731
_cell_formula_units_Z   1
loop_
 _symmetry_equiv_pos_site_id
 _symmetry_equiv_pos_as_xyz
  1  'x, y, z'
loop_
 _atom_site_type_symbol
 _atom_site_label
 _atom_site_symmetry_multiplicity
 _atom_site_fract_x
 _atom_site_fract_y
 _atom_site_fract_z
 _atom_site_occupancy
  Rb  Rb0  1  0.00000000  0.00000000  0.49999999  1
  Mn  Mn1  1  0.66666666  0.33333335  0.84506199  1
  Na  Na2  1  0.33333336  0.66666670  0.15493800  1
  O  O3  1  0.66666666  0.33333335  0.32832799  1
  Na  Na4  1  0.33333336  0.66666670  0.67167199  1
  Mn  Mn5  1  0.00000000  0.00000000  0.00000000  1
