# generated using pymatgen
data_BaNd2Ho5(PbO)2
_symmetry_space_group_name_H-M   'P 1'
_cell_length_a   5.54768181
_cell_length_b   5.54768181
_cell_length_c   7.20792580
_cell_angle_alpha   112.63331604
_cell_angle_beta   112.63331604
_cell_angle_gamma   90.00000000
_symmetry_Int_Tables_number   1
_chemical_formula_structural   BaNd2Ho5(PbO)2
_chemical_formula_sum   'Ba1 Nd2 Ho5 Pb2 O2'
_cell_volume   186.10612240
_cell_formula_units_Z   1
loop_
 _symmetry_equiv_pos_site_id
 _symmetry_equiv_pos_as_xyz
  1  'x, y, z'
loop_
 _atom_site_type_symbol
 _atom_site_label
 _atom_site_symmetry_multiplicity
 _atom_site_fract_x
 _atom_site_fract_y
 _atom_site_fract_z
 _atom_site_occupancy
  O  O0  1  0.75000004  0.25000001  0.50000004  1
  Pb  Pb1  1  0.50000004  0.50000002  0.00000003  1
  Nd  Nd2  1  0.25000003  0.75000004  0.50000004  1
  Ho  Ho3  1  0.00000000  0.00000000  0.00000000  1
  Ho  Ho4  1  0.76903005  0.68550303  0.84398907  1
  Ho  Ho5  1  0.07495901  0.15848601  0.84398903  1
  Ho  Ho6  1  0.92373306  0.78571604  0.32484706  1
  Ho  Ho7  1  0.40111403  0.53913103  0.32484704  1
  Nd  Nd8  1  0.46086902  0.07626800  0.67515403  1
  Ba  Ba9  1  0.21428403  0.59888503  0.67515205  1
  O  O10  1  0.31449704  0.92504105  0.15601104  1
  Pb  Pb11  1  0.84151404  0.23097001  0.15601103  1
