# generated using pymatgen
data_PrNd4Gd6O
_symmetry_space_group_name_H-M   'P 1'
_cell_length_a   5.55590200
_cell_length_b   5.55590200
_cell_length_c   10.08405972
_cell_angle_alpha   90.00000000
_cell_angle_beta   90.00000000
_cell_angle_gamma   90.00000000
_symmetry_Int_Tables_number   1
_chemical_formula_structural   PrNd4Gd6O
_chemical_formula_sum   'Pr1 Nd4 Gd6 O1'
_cell_volume   311.27523006
_cell_formula_units_Z   1
loop_
 _symmetry_equiv_pos_site_id
 _symmetry_equiv_pos_as_xyz
  1  'x, y, z'
loop_
 _atom_site_type_symbol
 _atom_site_label
 _atom_site_symmetry_multiplicity
 _atom_site_fract_x
 _atom_site_fract_y
 _atom_site_fract_z
 _atom_site_occupancy
  Gd  Gd0  1  0.00000000  0.50000000  0.25000001  1
  Gd  Gd1  1  0.50000000  0.00000000  0.75000002  1
  Pr  Pr2  1  0.00000000  0.00000000  0.00000000  1
  Gd  Gd3  1  0.00000000  0.00000000  0.50000001  1
  Nd  Nd4  1  0.27298800  0.22647900  0.87254702  1
  Nd  Nd5  1  0.72701200  0.77352100  0.87254702  1
  O  O6  1  0.22647900  0.27298800  0.37254701  1
  Gd  Gd7  1  0.27298800  0.77352100  0.62745302  1
  Gd  Gd8  1  0.72701200  0.22647900  0.62745302  1
  Nd  Nd9  1  0.22647900  0.72701200  0.12745300  1
  Nd  Nd10  1  0.77352100  0.27298800  0.12745300  1
  Gd  Gd11  1  0.77352100  0.72701200  0.37254701  1
