# generated using pymatgen
data_KMn2O5
_symmetry_space_group_name_H-M   'P 1'
_cell_length_a   5.59664440
_cell_length_b   5.59664440
_cell_length_c   5.59664440
_cell_angle_alpha   97.97737122
_cell_angle_beta   115.50621033
_cell_angle_gamma   115.50621033
_symmetry_Int_Tables_number   1
_chemical_formula_structural   KMn2O5
_chemical_formula_sum   'K1 Mn2 O5'
_cell_volume   130.99820534
_cell_formula_units_Z   1
loop_
 _symmetry_equiv_pos_site_id
 _symmetry_equiv_pos_as_xyz
  1  'x, y, z'
loop_
 _atom_site_type_symbol
 _atom_site_label
 _atom_site_symmetry_multiplicity
 _atom_site_fract_x
 _atom_site_fract_y
 _atom_site_fract_z
 _atom_site_occupancy
  Mn  Mn0  1  -0.00000014  0.74999992  0.74999989  1
  K  K1  1  -0.00000005  0.24999997  0.24999996  1
  O  O2  1  0.49999989  0.49999995  -0.00000010  1
  O  O3  1  0.49999980  0.99999990  0.49999982  1
  O  O4  1  0.77289486  0.63644793  0.13644786  1
  Mn  Mn5  1  0.49999996  0.13644699  0.36355294  1
  O  O6  1  0.22710493  0.36355196  0.86355193  1
  O  O7  1  0.49999982  0.86355291  0.63644684  1
