# generated using pymatgen
data_Pr5Er
_symmetry_space_group_name_H-M   'P 1'
_cell_length_a   3.60185409
_cell_length_b   4.77327061
_cell_length_c   8.30298710
_cell_angle_alpha   90.00416565
_cell_angle_beta   90.00000000
_cell_angle_gamma   90.00000000
_symmetry_Int_Tables_number   1
_chemical_formula_structural   Pr5Er
_chemical_formula_sum   'Pr5 Er1'
_cell_volume   142.75013687
_cell_formula_units_Z   1
loop_
 _symmetry_equiv_pos_site_id
 _symmetry_equiv_pos_as_xyz
  1  'x, y, z'
loop_
 _atom_site_type_symbol
 _atom_site_label
 _atom_site_symmetry_multiplicity
 _atom_site_fract_x
 _atom_site_fract_y
 _atom_site_fract_z
 _atom_site_occupancy
  Pr  Pr0  1  0.00000000  0.99996104  0.00860703  1
  Pr  Pr1  1  0.00000000  0.49995902  0.49648400  1
  Pr  Pr2  1  0.49999999  0.49996602  0.83793000  1
  Er  Er3  1  0.49999999  0.49992702  0.18401701  1
  Pr  Pr4  1  0.49999999  0.00001700  0.64503999  1
  Pr  Pr5  1  0.49999999  0.99997104  0.32792102  1
