# generated using pymatgen
data_Mn3O
_symmetry_space_group_name_H-M   'P 1'
_cell_length_a   3.14574194
_cell_length_b   3.14574194
_cell_length_c   8.80738831
_cell_angle_alpha   100.28737640
_cell_angle_beta   100.28737640
_cell_angle_gamma   90.00000000
_symmetry_Int_Tables_number   1
_chemical_formula_structural   Mn3O
_chemical_formula_sum   'Mn6 O2'
_cell_volume   84.32978765
_cell_formula_units_Z   2
loop_
 _symmetry_equiv_pos_site_id
 _symmetry_equiv_pos_as_xyz
  1  'x, y, z'
loop_
 _atom_site_type_symbol
 _atom_site_label
 _atom_site_symmetry_multiplicity
 _atom_site_fract_x
 _atom_site_fract_y
 _atom_site_fract_z
 _atom_site_occupancy
  Mn  Mn0  1  0.90620103  0.40620101  0.81240197  1
  O  O1  1  0.15620101  0.15620100  0.31240199  1
  O  O2  1  0.84379903  0.84379902  0.68759798  1
  Mn  Mn3  1  0.59379901  0.09379900  0.18759800  1
  Mn  Mn4  1  0.05313901  0.55313901  0.10627800  1
  Mn  Mn5  1  0.30313901  0.30313901  0.60627797  1
  Mn  Mn6  1  0.69686102  0.69686102  0.39372199  1
  Mn  Mn7  1  0.44686102  0.94686102  0.89372197  1
