# generated using pymatgen
data_GdO2F
_symmetry_space_group_name_H-M   'P 1'
_cell_length_a   3.40725803
_cell_length_b   4.49232006
_cell_length_c   6.76032829
_cell_angle_alpha   109.40576935
_cell_angle_beta   104.59612274
_cell_angle_gamma   90.00000000
_symmetry_Int_Tables_number   1
_chemical_formula_structural   GdO2F
_chemical_formula_sum   'Gd2 O4 F2'
_cell_volume   94.05021514
_cell_formula_units_Z   2
loop_
 _symmetry_equiv_pos_site_id
 _symmetry_equiv_pos_as_xyz
  1  'x, y, z'
loop_
 _atom_site_type_symbol
 _atom_site_label
 _atom_site_symmetry_multiplicity
 _atom_site_fract_x
 _atom_site_fract_y
 _atom_site_fract_z
 _atom_site_occupancy
  F  F0  1  0.50000000  0.50000000  0.00000001  1
  Gd  Gd1  1  0.68903499  0.18903500  0.37806999  1
  Gd  Gd2  1  0.31096500  0.81096500  0.62193001  1
  F  F3  1  0.00000000  0.00000000  0.00000000  1
  O  O4  1  0.12879700  0.78925100  0.25759402  1
  O  O5  1  0.87120299  0.21074900  0.74240598  1
  O  O6  1  0.87120399  0.53165800  0.74240699  1
  O  O7  1  0.12879600  0.46834200  0.25759301  1
