# generated using pymatgen
data_BaPuTlNi3
_symmetry_space_group_name_H-M   'P 1'
_cell_length_a   3.94447494
_cell_length_b   4.97345018
_cell_length_c   4.97344923
_cell_angle_alpha   120.00000763
_cell_angle_beta   90.00000000
_cell_angle_gamma   90.00000000
_symmetry_Int_Tables_number   1
_chemical_formula_structural   BaPuTlNi3
_chemical_formula_sum   'Ba1 Pu1 Tl1 Ni3'
_cell_volume   84.49582686
_cell_formula_units_Z   1
loop_
 _symmetry_equiv_pos_site_id
 _symmetry_equiv_pos_as_xyz
  1  'x, y, z'
loop_
 _atom_site_type_symbol
 _atom_site_label
 _atom_site_symmetry_multiplicity
 _atom_site_fract_x
 _atom_site_fract_y
 _atom_site_fract_z
 _atom_site_occupancy
  Ba  Ba0  1  -0.00000000  0.33333333  0.66666666  1
  Pu  Pu1  1  0.00000000  0.00000000  0.00000000  1
  Ni  Ni2  1  -0.00000000  0.66666665  0.33333335  1
  Ni  Ni3  1  0.50000001  0.33390199  0.16695101  1
  Ni  Ni4  1  0.50000001  0.83304898  0.66609801  1
  Tl  Tl5  1  0.50000001  0.83304898  0.16695102  1
