# generated using pymatgen
data_KRb2TmV2O8
_symmetry_space_group_name_H-M   'P 1'
_cell_length_a   5.97245598
_cell_length_b   5.97245550
_cell_length_c   7.81177998
_cell_angle_alpha   90.00000000
_cell_angle_beta   90.00000000
_cell_angle_gamma   120.00000000
_symmetry_Int_Tables_number   1
_chemical_formula_structural   KRb2TmV2O8
_chemical_formula_sum   'Rb2 K1 Tm1 V2 O8'
_cell_volume   241.31622024
_cell_formula_units_Z   1
loop_
 _symmetry_equiv_pos_site_id
 _symmetry_equiv_pos_as_xyz
  1  'x, y, z'
loop_
 _atom_site_type_symbol
 _atom_site_label
 _atom_site_symmetry_multiplicity
 _atom_site_fract_x
 _atom_site_fract_y
 _atom_site_fract_z
 _atom_site_occupancy
  Rb  Rb0  1  0.66666665  0.33333332  0.29749000  1
  K  K1  1  0.33333329  0.66666664  0.70251000  1
  Rb  Rb2  1  0.00000000  0.00000000  0.00000000  1
  Tm  Tm3  1  0.00000000  0.00000000  0.50000000  1
  V  V4  1  0.66666665  0.33333332  0.74599300  1
  V  V5  1  0.33333329  0.66666664  0.25400700  1
  O  O6  1  0.66666665  0.33333332  0.96191700  1
  O  O7  1  0.33333329  0.66666664  0.03808300  1
  O  O8  1  0.82739496  0.65478998  0.67001500  1
  O  O9  1  0.17260498  0.34520999  0.32998500  1
  O  O10  1  0.82739499  0.17260499  0.67001500  1
  O  O11  1  0.17260495  0.82739497  0.32998500  1
  O  O12  1  0.34520999  0.17260499  0.67001500  1
  O  O13  1  0.65478995  0.82739497  0.32998500  1
