# generated using pymatgen
data_Na2UI6
_symmetry_space_group_name_H-M   'P 1'
_cell_length_a   8.04570293
_cell_length_b   8.04570293
_cell_length_c   9.46689606
_cell_angle_alpha   109.59742737
_cell_angle_beta   109.59742737
_cell_angle_gamma   102.16268158
_symmetry_Int_Tables_number   1
_chemical_formula_structural   Na2UI6
_chemical_formula_sum   'Na2 U1 I6'
_cell_volume   506.53774003
_cell_formula_units_Z   1
loop_
 _symmetry_equiv_pos_site_id
 _symmetry_equiv_pos_as_xyz
  1  'x, y, z'
loop_
 _atom_site_type_symbol
 _atom_site_label
 _atom_site_symmetry_multiplicity
 _atom_site_fract_x
 _atom_site_fract_y
 _atom_site_fract_z
 _atom_site_occupancy
  Na  Na0  1  0.00000005  0.50000000  0.00000003  1
  Na  Na1  1  0.49999998  0.00000000  0.00000001  1
  U  U2  1  0.00000000  0.00000000  0.00000000  1
  I  I3  1  0.05023106  0.69406999  0.74430104  1
  I  I4  1  0.30593008  0.94976899  0.25569906  1
  I  I5  1  0.69828704  0.69828699  0.00000006  1
  I  I6  1  0.94976899  0.30593000  0.25569904  1
  I  I7  1  0.69406997  0.05023100  0.74430101  1
  I  I8  1  0.30171302  0.30171300  1.00000002  1
