# generated using pymatgen
data_Cs2Mg3ScF12
_symmetry_space_group_name_H-M   'P 1'
_cell_length_a   7.41220379
_cell_length_b   7.45682573
_cell_length_c   7.45682573
_cell_angle_alpha   60.21019363
_cell_angle_beta   60.19775391
_cell_angle_gamma   60.19775391
_symmetry_Int_Tables_number   1
_chemical_formula_structural   Cs2Mg3ScF12
_chemical_formula_sum   'Cs2 Mg3 Sc1 F12'
_cell_volume   292.76643079
_cell_formula_units_Z   1
loop_
 _symmetry_equiv_pos_site_id
 _symmetry_equiv_pos_as_xyz
  1  'x, y, z'
loop_
 _atom_site_type_symbol
 _atom_site_label
 _atom_site_symmetry_multiplicity
 _atom_site_fract_x
 _atom_site_fract_y
 _atom_site_fract_z
 _atom_site_occupancy
  Cs  Cs0  1  0.87393903  0.87606099  0.37606102  1
  Cs  Cs1  1  0.12606100  0.12393900  0.62393900  1
  Mg  Mg2  1  0.50000002  0.49999999  0.50000001  1
  Mg  Mg3  1  0.50000003  0.99999999  0.00000001  1
  Sc  Sc4  1  1.00000002  0.49999999  0.00000002  1
  Mg  Mg5  1  0.50000002  0.49999999  0.00000001  1
  F  F6  1  0.80896502  0.44103499  0.94103501  1
  F  F7  1  0.43631802  0.81368199  0.31368201  1
  F  F8  1  0.43685602  0.80529099  0.94027500  1
  F  F9  1  0.81757802  0.44027499  0.30529102  1
  F  F10  1  0.43685601  0.44027499  0.30529101  1
  F  F11  1  0.81757803  0.80529099  0.94027501  1
  F  F12  1  0.19103501  0.55896499  0.05896500  1
  F  F13  1  0.56368201  0.18631800  0.68631801  1
  F  F14  1  0.56314401  0.19470900  0.05972501  1
  F  F15  1  0.18242201  0.55972499  0.69470900  1
  F  F16  1  0.56314402  0.55972499  0.69470901  1
  F  F17  1  0.18242201  0.19470900  0.05972500  1
