# generated using pymatgen
data_Li3Cr(SiO3)4
_symmetry_space_group_name_H-M   'P 1'
_cell_length_a   5.05995798
_cell_length_b   6.53392172
_cell_length_c   6.53392172
_cell_angle_alpha   86.48673248
_cell_angle_beta   80.58817291
_cell_angle_gamma   80.58817291
_symmetry_Int_Tables_number   1
_chemical_formula_structural   Li3Cr(SiO3)4
_chemical_formula_sum   'Li3 Cr1 Si4 O12'
_cell_volume   210.11117387
_cell_formula_units_Z   1
loop_
 _symmetry_equiv_pos_site_id
 _symmetry_equiv_pos_as_xyz
  1  'x, y, z'
loop_
 _atom_site_type_symbol
 _atom_site_label
 _atom_site_symmetry_multiplicity
 _atom_site_fract_x
 _atom_site_fract_y
 _atom_site_fract_z
 _atom_site_occupancy
  Li  Li0  1  0.25000001  0.09696800  0.90303199  1
  Li  Li1  1  0.75000009  0.90303198  0.09696797  1
  Li  Li2  1  0.25000006  0.72956398  0.27043596  1
  Cr  Cr3  1  0.75000004  0.27043599  0.72956400  1
  Si  Si4  1  0.21721305  0.61230598  0.79274396  1
  Si  Si5  1  0.28278702  0.20725599  0.38769399  1
  Si  Si6  1  0.78278705  0.38769399  0.20725600  1
  Si  Si7  1  0.71721308  0.79274398  0.61230597  1
  O  O8  1  0.42626406  0.70510498  0.59172696  1
  O  O9  1  0.07373603  0.40827299  0.29489497  1
  O  O10  1  0.57373604  0.29489499  0.40827300  1
  O  O11  1  0.92626407  0.59172698  0.70510499  1
  O  O12  1  0.86807109  0.85430898  0.38701098  1
  O  O13  1  0.63192906  0.61298898  0.14569099  1
  O  O14  1  0.13192901  0.14569100  0.61298898  1
  O  O15  1  0.36807104  0.38701099  0.85430897  1
  O  O16  1  0.14166506  0.78697998  0.97082694  1
  O  O17  1  0.35833501  0.02917300  0.21302001  1
  O  O18  1  0.85833504  0.21301999  0.02917302  1
  O  O19  1  0.64166509  0.97082697  0.78697995  1
