# generated using pymatgen
data_CsBaI3
_symmetry_space_group_name_H-M   'P 1'
_cell_length_a   5.26961088
_cell_length_b   10.77526855
_cell_length_c   18.81991768
_cell_angle_alpha   90.00000000
_cell_angle_beta   90.00000000
_cell_angle_gamma   90.00000000
_symmetry_Int_Tables_number   1
_chemical_formula_structural   CsBaI3
_chemical_formula_sum   'Cs4 Ba4 I12'
_cell_volume   1068.62263682
_cell_formula_units_Z   4
loop_
 _symmetry_equiv_pos_site_id
 _symmetry_equiv_pos_as_xyz
  1  'x, y, z'
loop_
 _atom_site_type_symbol
 _atom_site_label
 _atom_site_symmetry_multiplicity
 _atom_site_fract_x
 _atom_site_fract_y
 _atom_site_fract_z
 _atom_site_occupancy
  Cs  Cs0  1  0.75000002  0.58033802  0.17623500  1
  Cs  Cs1  1  0.25000001  0.41966202  0.82376501  1
  Cs  Cs2  1  0.75000002  0.08033800  0.32376501  1
  Cs  Cs3  1  0.25000001  0.91966204  0.67623501  1
  Ba  Ba4  1  0.25000001  0.67112103  0.43820601  1
  Ba  Ba5  1  0.75000002  0.32887901  0.56179401  1
  Ba  Ba6  1  0.25000001  0.17112101  0.06179400  1
  Ba  Ba7  1  0.75000002  0.82887903  0.93820602  1
  I  I8  1  0.75000002  0.84103303  0.50834301  1
  I  I9  1  0.25000001  0.15896701  0.49165701  1
  I  I10  1  0.75000002  0.34103301  0.99165702  1
  I  I11  1  0.25000001  0.65896703  0.00834300  1
  I  I12  1  0.25000001  0.52992302  0.60639201  1
  I  I13  1  0.75000002  0.47007702  0.39360801  1
  I  I14  1  0.25000001  0.02992300  0.89360802  1
  I  I15  1  0.75000002  0.97007704  0.10639200  1
  I  I16  1  0.25000001  0.80732403  0.27717300  1
  I  I17  1  0.75000002  0.19267601  0.72282701  1
  I  I18  1  0.25000001  0.30732401  0.22282700  1
  I  I19  1  0.75000002  0.69267603  0.77717301  1
