# generated using pymatgen
data_Li3CrF4
_symmetry_space_group_name_H-M   'P 1'
_cell_length_a   5.11948204
_cell_length_b   5.64062500
_cell_length_c   6.31614590
_cell_angle_alpha   90.00000000
_cell_angle_beta   90.00000000
_cell_angle_gamma   90.00000000
_symmetry_Int_Tables_number   1
_chemical_formula_structural   Li3CrF4
_chemical_formula_sum   'Li6 Cr2 F8'
_cell_volume   182.39184015
_cell_formula_units_Z   2
loop_
 _symmetry_equiv_pos_site_id
 _symmetry_equiv_pos_as_xyz
  1  'x, y, z'
loop_
 _atom_site_type_symbol
 _atom_site_label
 _atom_site_symmetry_multiplicity
 _atom_site_fract_x
 _atom_site_fract_y
 _atom_site_fract_z
 _atom_site_occupancy
  Li  Li0  1  0.10429000  0.41944600  0.88242601  1
  Li  Li1  1  0.59829100  0.07795300  0.86593601  1
  Li  Li2  1  0.10429000  0.91944600  0.61757401  1
  Li  Li3  1  0.59829100  0.57795300  0.63406401  1
  Li  Li4  1  0.09829100  0.42204700  0.36593601  1
  Li  Li5  1  0.60429000  0.08055400  0.38242601  1
  Cr  Cr6  1  0.09829100  0.92204700  0.13406400  1
  Cr  Cr7  1  0.60429000  0.58055400  0.11757400  1
  F  F8  1  0.48275200  0.39962600  0.87643001  1
  F  F9  1  0.48275200  0.89962600  0.62357001  1
  F  F10  1  0.98275199  0.10037400  0.37643001  1
  F  F11  1  0.98275199  0.60037400  0.12357000  1
  F  F12  1  0.98066499  0.07939700  0.87608401  1
  F  F13  1  0.98066499  0.57939700  0.62391601  1
  F  F14  1  0.48066500  0.42060300  0.37608401  1
  F  F15  1  0.48066500  0.92060300  0.12391600  1
