# generated using pymatgen
data_AlSiP4
_symmetry_space_group_name_H-M   'P 1'
_cell_length_a   4.82006693
_cell_length_b   5.80453110
_cell_length_c   7.53230429
_cell_angle_alpha   112.64072418
_cell_angle_beta   90.00000000
_cell_angle_gamma   90.00000000
_symmetry_Int_Tables_number   1
_chemical_formula_structural   AlSiP4
_chemical_formula_sum   'Al2 Si2 P8'
_cell_volume   194.50019799
_cell_formula_units_Z   2
loop_
 _symmetry_equiv_pos_site_id
 _symmetry_equiv_pos_as_xyz
  1  'x, y, z'
loop_
 _atom_site_type_symbol
 _atom_site_label
 _atom_site_symmetry_multiplicity
 _atom_site_fract_x
 _atom_site_fract_y
 _atom_site_fract_z
 _atom_site_occupancy
  Al  Al0  1  0.96239501  0.22787000  0.08182700  1
  Al  Al1  1  0.46239501  0.27213000  0.41817300  1
  Si  Si2  1  0.03760500  0.77212999  0.91817299  1
  Si  Si3  1  0.53760501  0.72786999  0.58182700  1
  P  P4  1  0.61563401  0.32612000  0.91983198  1
  P  P5  1  0.11563400  0.17388000  0.58016799  1
  P  P6  1  0.38436601  0.67387999  0.08016801  1
  P  P7  1  0.88436601  0.82611999  0.41983200  1
  P  P8  1  0.22243700  0.54730100  0.30126400  1
  P  P9  1  0.72243701  0.95269899  0.19873601  1
  P  P10  1  0.77756301  0.45269900  0.69873599  1
  P  P11  1  0.27756300  0.04730100  0.80126398  1
