# generated using pymatgen
data_Ca4Ti(GeN4)3
_symmetry_space_group_name_H-M   'P 1'
_cell_length_a   6.23824215
_cell_length_b   7.80752325
_cell_length_c   7.80752325
_cell_angle_alpha   73.26248932
_cell_angle_beta   66.61730957
_cell_angle_gamma   66.61730957
_symmetry_Int_Tables_number   1
_chemical_formula_structural   Ca4Ti(GeN4)3
_chemical_formula_sum   'Ca4 Ti1 Ge3 N12'
_cell_volume   316.50708375
_cell_formula_units_Z   1
loop_
 _symmetry_equiv_pos_site_id
 _symmetry_equiv_pos_as_xyz
  1  'x, y, z'
loop_
 _atom_site_type_symbol
 _atom_site_label
 _atom_site_symmetry_multiplicity
 _atom_site_fract_x
 _atom_site_fract_y
 _atom_site_fract_z
 _atom_site_occupancy
  Ca  Ca0  1  0.76277901  0.28180801  0.69753100  1
  Ca  Ca1  1  0.75855599  0.70122402  0.28239801  1
  Ca  Ca2  1  0.26277897  0.69753102  0.28180802  1
  Ca  Ca3  1  0.25855599  0.28239801  0.70122402  1
  Ge  Ge4  1  0.29005799  0.29675501  0.12677301  1
  Ti  Ti5  1  0.79005802  0.12677300  0.29675499  1
  Ge  Ge6  1  0.23207796  0.85426002  0.68544204  1
  Ge  Ge7  1  0.73207799  0.68544202  0.85426002  1
  N  N8  1  0.58806601  0.15773600  0.16444499  1
  N  N9  1  0.08806599  0.16444500  0.15773601  1
  N  N10  1  0.16137200  0.08347200  0.59039501  1
  N  N11  1  0.13628598  0.47258601  0.25715202  1
  N  N12  1  0.66137199  0.59039502  0.08347200  1
  N  N13  1  0.63628601  0.25715201  0.47258600  1
  N  N14  1  0.38478797  0.72177202  0.51133603  1
  N  N15  1  0.36277399  0.38974701  0.89711402  1
  N  N16  1  0.88478800  0.51133601  0.72177201  1
  N  N17  1  0.86277398  0.89711403  0.38974702  1
  N  N18  1  0.93424399  0.81692202  0.82513202  1
  N  N19  1  0.43424397  0.82513202  0.81692204  1
