# generated using pymatgen
data_Mg2NiO4
_symmetry_space_group_name_H-M   'P 1'
_cell_length_a   5.99243784
_cell_length_b   5.99243784
_cell_length_c   5.99243784
_cell_angle_alpha   61.61836243
_cell_angle_beta   61.61836243
_cell_angle_gamma   61.61836624
_symmetry_Int_Tables_number   1
_chemical_formula_structural   Mg2NiO4
_chemical_formula_sum   'Mg4 Ni2 O8'
_cell_volume   157.68131077
_cell_formula_units_Z   2
loop_
 _symmetry_equiv_pos_site_id
 _symmetry_equiv_pos_as_xyz
  1  'x, y, z'
loop_
 _atom_site_type_symbol
 _atom_site_label
 _atom_site_symmetry_multiplicity
 _atom_site_fract_x
 _atom_site_fract_y
 _atom_site_fract_z
 _atom_site_occupancy
  Mg  Mg0  1  0.75289004  0.75289001  0.75288994  1
  Mg  Mg1  1  0.37739602  0.37739601  0.37739597  1
  Mg  Mg2  1  0.99623905  0.99623901  0.99623892  1
  Mg  Mg3  1  0.37663002  0.37663001  0.86983096  1
  Ni  Ni4  1  0.37663003  0.86983101  0.37662995  1
  Ni  Ni5  1  0.86983103  0.37663001  0.37662996  1
  O  O6  1  0.61251603  0.61251601  0.61251595  1
  O  O7  1  0.61300403  0.61300401  0.15845396  1
  O  O8  1  0.61300402  0.15845400  0.61300397  1
  O  O9  1  0.15845402  0.61300401  0.61300396  1
  O  O10  1  0.13236201  0.13236200  0.13236199  1
  O  O11  1  0.13242501  0.13242500  0.60619398  1
  O  O12  1  0.13242502  0.60619401  0.13242497  1
  O  O13  1  0.60619402  0.13242500  0.13242498  1
