# generated using pymatgen
data_AlGa3Ge2TeP2
_symmetry_space_group_name_H-M   'P 1'
_cell_length_a   4.41025400
_cell_length_b   4.41025305
_cell_length_c   6.37054920
_cell_angle_alpha   90.00000000
_cell_angle_beta   90.00000000
_cell_angle_gamma   120.00000763
_symmetry_Int_Tables_number   1
_chemical_formula_structural   AlGa3Ge2TeP2
_chemical_formula_sum   'Al1 Ga3 Ge2 Te1 P2'
_cell_volume   107.30861363
_cell_formula_units_Z   1
loop_
 _symmetry_equiv_pos_site_id
 _symmetry_equiv_pos_as_xyz
  1  'x, y, z'
loop_
 _atom_site_type_symbol
 _atom_site_label
 _atom_site_symmetry_multiplicity
 _atom_site_fract_x
 _atom_site_fract_y
 _atom_site_fract_z
 _atom_site_occupancy
  Al  Al0  1  1.00000001  0.50000001  0.66666665  1
  Ga  Ga1  1  0.50000000  0.00000000  0.33333332  1
  Ga  Ga2  1  0.50000001  0.50000001  0.99999997  1
  Te  Te3  1  0.16616302  0.83383702  -0.00000000  1
  Ge  Ge4  1  0.83383701  0.66767402  0.33333332  1
  Ge  Ge5  1  0.33232600  0.16616300  0.66666665  1
  Ga  Ga6  1  0.83383700  0.16616300  -0.00000000  1
  P  P7  1  0.16616301  0.33232601  0.33333332  1
  P  P8  1  0.66767402  0.83383702  0.66666665  1
