# generated using pymatgen
data_Na2Cl3
_symmetry_space_group_name_H-M   'P 1'
_cell_length_a   7.85369778
_cell_length_b   8.04464912
_cell_length_c   9.11777306
_cell_angle_alpha   90.00000000
_cell_angle_beta   90.00000000
_cell_angle_gamma   118.40766144
_symmetry_Int_Tables_number   1
_chemical_formula_structural   Na2Cl3
_chemical_formula_sum   'Na8 Cl12'
_cell_volume   506.69645686
_cell_formula_units_Z   4
loop_
 _symmetry_equiv_pos_site_id
 _symmetry_equiv_pos_as_xyz
  1  'x, y, z'
loop_
 _atom_site_type_symbol
 _atom_site_label
 _atom_site_symmetry_multiplicity
 _atom_site_fract_x
 _atom_site_fract_y
 _atom_site_fract_z
 _atom_site_occupancy
  Na  Na0  1  0.69872003  0.26804602  0.41918400  1
  Na  Na1  1  0.80128003  0.23195402  0.91918399  1
  Na  Na2  1  0.30128005  0.73195406  0.58081600  1
  Na  Na3  1  0.19872004  0.76804606  0.08081600  1
  Na  Na4  1  0.17784902  0.20908502  0.29513000  1
  Na  Na5  1  0.32215102  0.29091502  0.79513000  1
  Na  Na6  1  0.82215106  0.79091506  0.70487000  1
  Na  Na7  1  0.67784906  0.70908506  0.20487000  1
  Cl  Cl8  1  0.98993503  0.05526600  0.89136799  1
  Cl  Cl9  1  0.01006505  0.94473408  0.10863200  1
  Cl  Cl10  1  0.48993504  0.55526605  0.60863200  1
  Cl  Cl11  1  0.51006504  0.44473404  0.39136800  1
  Cl  Cl12  1  0.54881403  0.30555502  0.02670100  1
  Cl  Cl13  1  0.04881404  0.80555507  0.47329900  1
  Cl  Cl14  1  0.95118604  0.19444502  0.52670100  1
  Cl  Cl15  1  0.45118605  0.69444506  0.97329899  1
  Cl  Cl16  1  0.00113902  0.42229203  0.19597100  1
  Cl  Cl17  1  0.49886102  0.07770801  0.69597100  1
  Cl  Cl18  1  0.99886106  0.57770805  0.80402900  1
  Cl  Cl19  1  0.50113906  0.92229208  0.30402900  1
