# generated using pymatgen
data_Sr2CoRuO6
_symmetry_space_group_name_H-M   'P 1'
_cell_length_a   5.59311581
_cell_length_b   5.59367657
_cell_length_c   8.00479984
_cell_angle_alpha   89.96416473
_cell_angle_beta   90.04115295
_cell_angle_gamma   89.61294556
_symmetry_Int_Tables_number   1
_chemical_formula_structural   Sr2CoRuO6
_chemical_formula_sum   'Sr4 Co2 Ru2 O12'
_cell_volume   250.43298614
_cell_formula_units_Z   2
loop_
 _symmetry_equiv_pos_site_id
 _symmetry_equiv_pos_as_xyz
  1  'x, y, z'
loop_
 _atom_site_type_symbol
 _atom_site_label
 _atom_site_symmetry_multiplicity
 _atom_site_fract_x
 _atom_site_fract_y
 _atom_site_fract_z
 _atom_site_occupancy
  Sr  Sr0  1  0.49902500  0.99566001  0.23539197  1
  Sr  Sr1  1  0.49920400  0.99944501  0.76357796  1
  Sr  Sr2  1  0.99541103  0.49632501  0.75854500  1
  Sr  Sr3  1  0.99831803  0.49330901  0.23282601  1
  Co  Co4  1  0.48798001  0.49980001  0.99961297  1
  Co  Co5  1  0.49960501  0.49632101  0.48681999  1
  Ru  Ru6  1  0.00216698  0.98582201  0.99676193  1
  Ru  Ru7  1  0.99737602  0.99889301  0.49996699  1
  O  O8  1  0.70506501  0.80662401  0.00131399  1
  O  O9  1  0.50542201  0.49758001  0.25575299  1
  O  O10  1  0.30233701  0.20272100  0.00216000  1
  O  O11  1  0.20321200  0.70573801  0.99710095  1
  O  O12  1  0.80289302  0.70380101  0.50427999  1
  O  O13  1  0.81191702  0.30954800  0.99727800  1
  O  O14  1  0.70164002  0.19738300  0.50485301  1
  O  O15  1  0.51156101  0.49303401  0.74846298  1
  O  O16  1  0.29316000  0.80016801  0.50713997  1
  O  O17  1  0.19643200  0.29846400  0.50480998  1
  O  O18  1  0.99371303  0.01011300  0.25712404  1
  O  O19  1  0.99344403  0.00925000  0.74622202  1
