# generated using pymatgen
data_ZnGaSe2
_symmetry_space_group_name_H-M   'P 1'
_cell_length_a   4.05858326
_cell_length_b   4.05858326
_cell_length_c   7.02668285
_cell_angle_alpha   73.21398926
_cell_angle_beta   73.21398926
_cell_angle_gamma   60.00001144
_symmetry_Int_Tables_number   1
_chemical_formula_structural   ZnGaSe2
_chemical_formula_sum   'Zn1 Ga1 Se2'
_cell_volume   94.49973007
_cell_formula_units_Z   1
loop_
 _symmetry_equiv_pos_site_id
 _symmetry_equiv_pos_as_xyz
  1  'x, y, z'
loop_
 _atom_site_type_symbol
 _atom_site_label
 _atom_site_symmetry_multiplicity
 _atom_site_fract_x
 _atom_site_fract_y
 _atom_site_fract_z
 _atom_site_occupancy
  Zn  Zn0  1  0.99988498  0.99988501  0.00034494  1
  Ga  Ga1  1  0.50006699  0.50006700  0.49979897  1
  Se  Se2  1  0.12479700  0.12479700  0.62560899  1
  Se  Se3  1  0.62525199  0.62525200  0.12424396  1
