# generated using pymatgen
data_Sr2Cl3
_symmetry_space_group_name_H-M   'P 1'
_cell_length_a   7.28436279
_cell_length_b   8.43994808
_cell_length_c   11.12683201
_cell_angle_alpha   73.59294128
_cell_angle_beta   70.89608002
_cell_angle_gamma   81.73702240
_symmetry_Int_Tables_number   1
_chemical_formula_structural   Sr2Cl3
_chemical_formula_sum   'Sr8 Cl12'
_cell_volume   619.08467150
_cell_formula_units_Z   4
loop_
 _symmetry_equiv_pos_site_id
 _symmetry_equiv_pos_as_xyz
  1  'x, y, z'
loop_
 _atom_site_type_symbol
 _atom_site_label
 _atom_site_symmetry_multiplicity
 _atom_site_fract_x
 _atom_site_fract_y
 _atom_site_fract_z
 _atom_site_occupancy
  Sr  Sr0  1  0.24899401  0.31854301  0.73351002  1
  Sr  Sr1  1  0.64078602  0.31793601  0.93611902  1
  Sr  Sr2  1  0.44569501  0.31394101  0.33722800  1
  Sr  Sr3  1  0.84607102  0.31443001  0.53758801  1
  Sr  Sr4  1  0.04615100  0.31934201  0.13870100  1
  Sr  Sr5  1  0.55430501  0.68605902  0.66277200  1
  Sr  Sr6  1  0.95384902  0.68065802  0.86129901  1
  Sr  Sr7  1  0.75100602  0.68145702  0.26648999  1
  Cl  Cl8  1  0.15392900  0.68557002  0.46241200  1
  Cl  Cl9  1  0.35921401  0.68206402  0.06388098  1
  Cl  Cl10  1  0.00000000  0.00000000  0.00000000  1
  Cl  Cl11  1  0.39992100  0.99999303  0.20024098  1
  Cl  Cl12  1  0.79980302  0.99995903  0.40038598  1
  Cl  Cl13  1  0.20019701  0.00004100  0.59961402  1
  Cl  Cl14  1  0.60007902  0.00000700  0.79975903  1
  Cl  Cl15  1  0.89953102  0.50009802  0.69916001  1
  Cl  Cl16  1  0.30032801  0.50059902  0.89947702  1
  Cl  Cl17  1  0.10046900  0.49990202  0.30084000  1
  Cl  Cl18  1  0.50000001  0.50000002  0.50000000  1
  Cl  Cl19  1  0.69967202  0.49940102  0.10052299  1
