# generated using pymatgen
data_LiAg3F6
_symmetry_space_group_name_H-M   'P 1'
_cell_length_a   5.40074682
_cell_length_b   5.52300882
_cell_length_c   7.69216299
_cell_angle_alpha   90.00000000
_cell_angle_beta   90.00000000
_cell_angle_gamma   90.00000000
_symmetry_Int_Tables_number   1
_chemical_formula_structural   LiAg3F6
_chemical_formula_sum   'Li2 Ag6 F12'
_cell_volume   229.44470188
_cell_formula_units_Z   2
loop_
 _symmetry_equiv_pos_site_id
 _symmetry_equiv_pos_as_xyz
  1  'x, y, z'
loop_
 _atom_site_type_symbol
 _atom_site_label
 _atom_site_symmetry_multiplicity
 _atom_site_fract_x
 _atom_site_fract_y
 _atom_site_fract_z
 _atom_site_occupancy
  Li  Li0  1  0.75657102  0.66841202  0.25074900  1
  Li  Li1  1  0.24342901  0.16841201  0.74925100  1
  Ag  Ag2  1  0.24342901  0.16841201  0.25074900  1
  Ag  Ag3  1  0.75657102  0.66841202  0.74925100  1
  Ag  Ag4  1  0.26100301  0.69459502  0.50000000  1
  Ag  Ag5  1  0.73899702  0.19459501  0.50000000  1
  Ag  Ag6  1  0.75025902  0.11669600  -0.00000000  1
  Ag  Ag7  1  0.24974101  0.61669602  -0.00000000  1
  F  F8  1  0.04985000  0.84138403  0.79524000  1
  F  F9  1  0.95015003  0.34138401  0.20476000  1
  F  F10  1  0.95015003  0.34138401  0.79524000  1
  F  F11  1  0.04985000  0.84138403  0.20476000  1
  F  F12  1  0.44457501  0.43941101  0.70249400  1
  F  F13  1  0.55542502  0.93941103  0.29750600  1
  F  F14  1  0.55542502  0.93941103  0.70249400  1
  F  F15  1  0.44457501  0.43941101  0.29750600  1
  F  F16  1  0.16199301  0.11098400  0.50000000  1
  F  F17  1  0.83800703  0.61098402  0.50000000  1
  F  F18  1  0.33673801  0.16941101  -0.00000000  1
  F  F19  1  0.66326202  0.66941102  -0.00000000  1
