# generated using pymatgen
data_Yb3GeO
_symmetry_space_group_name_H-M   'P 1'
_cell_length_a   6.56514645
_cell_length_b   6.56514645
_cell_length_c   6.57013893
_cell_angle_alpha   60.20897675
_cell_angle_beta   60.20897675
_cell_angle_gamma   60.28464508
_symmetry_Int_Tables_number   1
_chemical_formula_structural   Yb3GeO
_chemical_formula_sum   'Yb6 Ge2 O2'
_cell_volume   201.30030530
_cell_formula_units_Z   2
loop_
 _symmetry_equiv_pos_site_id
 _symmetry_equiv_pos_as_xyz
  1  'x, y, z'
loop_
 _atom_site_type_symbol
 _atom_site_label
 _atom_site_symmetry_multiplicity
 _atom_site_fract_x
 _atom_site_fract_y
 _atom_site_fract_z
 _atom_site_occupancy
  Yb  Yb0  1  0.78556296  0.21443699  0.25000003  1
  Yb  Yb1  1  0.21443696  0.78556298  0.75000002  1
  Yb  Yb2  1  0.27846498  0.25731799  0.22286602  1
  Yb  Yb3  1  0.74268294  0.72153498  0.27713405  1
  Yb  Yb4  1  0.72153494  0.74268198  0.77713404  1
  Yb  Yb5  1  0.25731798  0.27846499  0.72286600  1
  Ge  Ge6  1  0.74952396  0.25047599  0.75000001  1
  Ge  Ge7  1  0.25047596  0.74952398  0.25000004  1
  O  O8  1  -0.00000002  0.49999998  0.99999999  1
  O  O9  1  0.49999998  0.00000000  0.50000000  1
