# generated using pymatgen
data_Li5FeNi2F12
_symmetry_space_group_name_H-M   'P 1'
_cell_length_a   6.47999191
_cell_length_b   6.49815893
_cell_length_c   6.49868822
_cell_angle_alpha   70.47050476
_cell_angle_beta   70.59047699
_cell_angle_gamma   109.40498352
_symmetry_Int_Tables_number   1
_chemical_formula_structural   Li5FeNi2F12
_chemical_formula_sum   'Li5 Fe1 Ni2 F12'
_cell_volume   210.83412742
_cell_formula_units_Z   1
loop_
 _symmetry_equiv_pos_site_id
 _symmetry_equiv_pos_as_xyz
  1  'x, y, z'
loop_
 _atom_site_type_symbol
 _atom_site_label
 _atom_site_symmetry_multiplicity
 _atom_site_fract_x
 _atom_site_fract_y
 _atom_site_fract_z
 _atom_site_occupancy
  Li  Li0  1  0.00005389  0.99999895  0.00007007  1
  Li  Li1  1  0.49888687  0.99902995  0.50001709  1
  Li  Li2  1  0.00005494  0.49967198  0.50041202  1
  Li  Li3  1  0.50018393  0.50142098  0.99855604  1
  Fe  Fe4  1  0.99981691  0.49988298  0.00024009  1
  Li  Li5  1  0.50020893  0.49997398  0.49978505  1
  Ni  Ni6  1  0.00011900  0.00015300  0.49986799  1
  Ni  Ni7  1  0.50007398  0.00018600  0.99993000  1
  F  F8  1  0.69448396  0.18848699  0.10641205  1
  F  F9  1  0.71041189  0.81022596  0.49790708  1
  F  F10  1  0.28937697  0.18974699  0.50244602  1
  F  F11  1  0.30564590  0.81140196  0.89365705  1
  F  F12  1  0.80077396  0.10647299  0.70516004  1
  F  F13  1  0.20833494  0.49795098  0.69202403  1
  F  F14  1  0.79199192  0.50217398  0.30822507  1
  F  F15  1  0.19920289  0.89314496  0.29526507  1
  F  F16  1  0.50628790  0.70514197  0.18821907  1
  F  F17  1  0.90029589  0.69230797  0.81045708  1
  F  F18  1  0.09998996  0.30781799  0.18951202  1
  F  F19  1  0.49380195  0.29480599  0.81183803  1
