# generated using pymatgen
data_V4CrPO10
_symmetry_space_group_name_H-M   'P 1'
_cell_length_a   5.21209621
_cell_length_b   5.26148224
_cell_length_c   9.34178352
_cell_angle_alpha   74.97388458
_cell_angle_beta   74.66598511
_cell_angle_gamma   60.70708084
_symmetry_Int_Tables_number   1
_chemical_formula_structural   V4CrPO10
_chemical_formula_sum   'V4 Cr1 P1 O10'
_cell_volume   212.88681384
_cell_formula_units_Z   1
loop_
 _symmetry_equiv_pos_site_id
 _symmetry_equiv_pos_as_xyz
  1  'x, y, z'
loop_
 _atom_site_type_symbol
 _atom_site_label
 _atom_site_symmetry_multiplicity
 _atom_site_fract_x
 _atom_site_fract_y
 _atom_site_fract_z
 _atom_site_occupancy
  V  V0  1  0.99717396  0.00352100  0.00210200  1
  V  V1  1  0.22260800  0.25812499  0.24610600  1
  V  V2  1  0.53155999  0.51727899  0.50034399  1
  V  V3  1  0.77376299  0.74921398  0.75630499  1
  Cr  Cr4  1  0.05864700  0.20403100  0.13019499  1
  P  P5  1  0.55012200  0.68596198  0.62308499  1
  O  O6  1  0.94026198  0.80281998  0.86941399  1
  O  O7  1  0.85632298  0.45775999  0.38069199  1
  O  O8  1  0.28492701  0.86576098  0.37970898  1
  O  O9  1  0.36790301  0.97013798  0.86790198  1
  O  O10  1  0.21998001  0.62445399  0.12598998  1
  O  O11  1  0.13573601  0.52877099  0.62107699  1
  O  O12  1  0.44347599  0.29573699  0.37524000  1
  O  O13  1  0.77883898  0.38053099  0.87548901  1
  O  O14  1  0.62758997  0.03472200  0.13348900  1
  O  O15  1  0.71109197  0.12117700  0.61286001  1
