# generated using pymatgen
data_LiNbO3
_symmetry_space_group_name_H-M   'P 1'
_cell_length_a   5.30931473
_cell_length_b   5.30931473
_cell_length_c   5.37719870
_cell_angle_alpha   101.46725464
_cell_angle_beta   101.46725464
_cell_angle_gamma   119.27521515
_symmetry_Int_Tables_number   1
_chemical_formula_structural   LiNbO3
_chemical_formula_sum   'Li2 Nb2 O6'
_cell_volume   121.56140353
_cell_formula_units_Z   2
loop_
 _symmetry_equiv_pos_site_id
 _symmetry_equiv_pos_as_xyz
  1  'x, y, z'
loop_
 _atom_site_type_symbol
 _atom_site_label
 _atom_site_symmetry_multiplicity
 _atom_site_fract_x
 _atom_site_fract_y
 _atom_site_fract_z
 _atom_site_occupancy
  Li  Li0  1  0.15310199  0.15310199  0.35160598  1
  Li  Li1  1  0.84689792  0.84689795  0.64839394  1
  Nb  Nb2  1  0.33100895  0.66899096  0.99999994  1
  Nb  Nb3  1  0.66899096  0.33100898  0.99999995  1
  O  O4  1  0.28224697  0.28224698  0.76592896  1
  O  O5  1  0.71775293  0.71775296  0.23407096  1
  O  O6  1  0.55569692  0.91174195  0.78369494  1
  O  O7  1  0.08825797  0.44430297  0.21630498  1
  O  O8  1  0.44430298  0.08825799  0.21630498  1
  O  O9  1  0.91174194  0.55569697  0.78369495  1
