# generated using pymatgen
data_Li3V5O12
_symmetry_space_group_name_H-M   'P 1'
_cell_length_a   5.03536510
_cell_length_b   5.07010460
_cell_length_c   9.16571903
_cell_angle_alpha   94.18246460
_cell_angle_beta   92.17115021
_cell_angle_gamma   112.45423889
_symmetry_Int_Tables_number   1
_chemical_formula_structural   Li3V5O12
_chemical_formula_sum   'Li3 V5 O12'
_cell_volume   215.13331758
_cell_formula_units_Z   1
loop_
 _symmetry_equiv_pos_site_id
 _symmetry_equiv_pos_as_xyz
  1  'x, y, z'
loop_
 _atom_site_type_symbol
 _atom_site_label
 _atom_site_symmetry_multiplicity
 _atom_site_fract_x
 _atom_site_fract_y
 _atom_site_fract_z
 _atom_site_occupancy
  Li  Li0  1  0.67308399  0.15125500  0.68765899  1
  Li  Li1  1  0.85312902  0.62286000  0.99601299  1
  Li  Li2  1  0.07761005  0.94466700  0.75261001  1
  V  V3  1  0.92913698  0.06486500  0.24562300  1
  V  V4  1  0.51222799  0.00920800  0.98102798  1
  V  V5  1  0.01478603  0.53714000  0.50850700  1
  V  V6  1  0.56584901  0.44374700  0.26915301  1
  V  V7  1  0.41713402  0.55648400  0.74070700  1
  O  O8  1  0.72010400  0.21282400  0.38932900  1
  O  O9  1  0.23738400  0.08529200  0.14525900  1
  O  O10  1  0.78526700  0.30102000  0.12083601  1
  O  O11  1  0.47177401  0.27391300  0.87330599  1
  O  O12  1  0.71705302  0.55611000  0.63936900  1
  O  O13  1  0.08290601  0.28102700  0.64906599  1
  O  O14  1  0.26147802  0.43268700  0.36607500  1
  O  O15  1  0.89833702  0.74986500  0.36570401  1
  O  O16  1  0.20851903  0.70122400  0.89854800  1
  O  O17  1  0.61663803  0.76276000  0.13688302  1
  O  O18  1  0.74253303  0.91671600  0.86583200  1
  O  O19  1  0.31757304  0.81348600  0.61397501  1
