# generated using pymatgen
data_Cs3BaS3
_symmetry_space_group_name_H-M   'P 1'
_cell_length_a   7.52691603
_cell_length_b   7.52691603
_cell_length_c   9.64487076
_cell_angle_alpha   90.00000000
_cell_angle_beta   90.00000000
_cell_angle_gamma   89.93685913
_symmetry_Int_Tables_number   1
_chemical_formula_structural   Cs3BaS3
_chemical_formula_sum   'Cs6 Ba2 S6'
_cell_volume   546.42465982
_cell_formula_units_Z   2
loop_
 _symmetry_equiv_pos_site_id
 _symmetry_equiv_pos_as_xyz
  1  'x, y, z'
loop_
 _atom_site_type_symbol
 _atom_site_label
 _atom_site_symmetry_multiplicity
 _atom_site_fract_x
 _atom_site_fract_y
 _atom_site_fract_z
 _atom_site_occupancy
  Cs  Cs0  1  0.49479599  0.00568900  0.75000002  1
  Cs  Cs1  1  0.99431096  0.50520399  0.25000001  1
  Cs  Cs2  1  0.50520394  0.99431099  0.25000001  1
  Cs  Cs3  1  0.00568897  0.49479599  0.75000002  1
  Ba  Ba4  1  0.00000000  0.00000000  0.50000001  1
  Ba  Ba5  1  0.00000000  0.00000000  0.00000000  1
  Cs  Cs6  1  0.21875299  0.21875300  0.49242501  1
  Cs  Cs7  1  0.21875299  0.21875300  0.00757500  1
  S  S8  1  0.78085198  0.21914800  1.00000003  1
  S  S9  1  0.21914795  0.78085199  0.50000001  1
  S  S10  1  0.21914795  0.78085199  -0.00000000  1
  S  S11  1  0.78124695  0.78124699  0.50757501  1
  S  S12  1  0.78124695  0.78124699  0.99242502  1
  S  S13  1  0.78085198  0.21914800  0.50000001  1
