# generated using pymatgen
data_NaCu2PH3O8
_symmetry_space_group_name_H-M   'P 1'
_cell_length_a   5.40406275
_cell_length_b   5.40406275
_cell_length_c   7.64366961
_cell_angle_alpha   101.83456421
_cell_angle_beta   103.85405731
_cell_angle_gamma   111.79178619
_symmetry_Int_Tables_number   1
_chemical_formula_structural   NaCu2PH3O8
_chemical_formula_sum   'Na1 Cu2 P1 H3 O8'
_cell_volume   190.24304630
_cell_formula_units_Z   1
loop_
 _symmetry_equiv_pos_site_id
 _symmetry_equiv_pos_as_xyz
  1  'x, y, z'
loop_
 _atom_site_type_symbol
 _atom_site_label
 _atom_site_symmetry_multiplicity
 _atom_site_fract_x
 _atom_site_fract_y
 _atom_site_fract_z
 _atom_site_occupancy
  Na  Na0  1  -0.00000002  0.50000000  0.49999999  1
  Cu  Cu1  1  0.50000002  0.00000000  0.00000002  1
  Cu  Cu2  1  -0.00000002  0.50000000  -0.00000000  1
  P  P3  1  0.78942899  0.91755200  0.70698102  1
  H  H4  1  0.21057100  0.08244800  0.29301900  1
  H  H5  1  0.98592200  0.82087700  0.80679902  1
  O  O6  1  0.01407799  0.17912300  0.19320100  1
  H  H7  1  0.69927899  0.80188300  0.50116202  1
  O  O8  1  0.30072100  0.19811700  0.49883801  1
  O  O9  1  0.93333802  0.23939500  0.76079803  1
  O  O10  1  0.52140298  0.82746000  0.76079801  1
  O  O11  1  0.06666197  0.76060500  0.23920199  1
  O  O12  1  0.47859701  0.17254000  0.23920201  1
  O  O13  1  0.62513801  0.33231900  0.95745701  1
  O  O14  1  0.37486198  0.66768100  0.04254301  1
