# generated using pymatgen
data_Cs3Y2(ScBr4)3
_symmetry_space_group_name_H-M   'P 1'
_cell_length_a   7.84951019
_cell_length_b   7.91933584
_cell_length_c   11.22331619
_cell_angle_alpha   90.00000000
_cell_angle_beta   90.00000000
_cell_angle_gamma   89.54064941
_symmetry_Int_Tables_number   1
_chemical_formula_structural   Cs3Y2(ScBr4)3
_chemical_formula_sum   'Cs3 Y2 Sc3 Br12'
_cell_volume   697.65154392
_cell_formula_units_Z   1
loop_
 _symmetry_equiv_pos_site_id
 _symmetry_equiv_pos_as_xyz
  1  'x, y, z'
loop_
 _atom_site_type_symbol
 _atom_site_label
 _atom_site_symmetry_multiplicity
 _atom_site_fract_x
 _atom_site_fract_y
 _atom_site_fract_z
 _atom_site_occupancy
  Sc  Sc0  1  0.02579899  0.51025501  0.74999999  1
  Cs  Cs1  1  0.97420096  0.48974500  0.25000000  1
  Cs  Cs2  1  0.52490396  0.99284601  0.74999999  1
  Cs  Cs3  1  0.47509599  0.00715400  0.25000000  1
  Sc  Sc4  1  0.49999997  0.50000001  0.00000000  1
  Sc  Sc5  1  0.49999997  0.50000001  0.49999999  1
  Y  Y6  1  0.00000000  0.00000000  0.00000000  1
  Y  Y7  1  0.00000000  0.00000000  0.49999999  1
  Br  Br8  1  0.80342597  0.30238800  0.95044698  1
  Br  Br9  1  0.19657398  0.69761201  0.04955300  1
  Br  Br10  1  0.19657398  0.69761201  0.45044699  1
  Br  Br11  1  0.80342597  0.30238800  0.54955299  1
  Br  Br12  1  0.69032496  0.80829301  0.47520799  1
  Br  Br13  1  0.30967499  0.19170700  0.52479199  1
  Br  Br14  1  0.30967499  0.19170700  0.97520798  1
  Br  Br15  1  0.69032496  0.80829301  0.02479200  1
  Br  Br16  1  0.45434497  0.57075601  0.74999999  1
  Br  Br17  1  0.54565497  0.42924400  0.25000000  1
  Br  Br18  1  0.00194398  0.92228301  0.74999999  1
  Br  Br19  1  0.99805597  0.07771700  0.25000000  1
