# generated using pymatgen
data_Cs2H2SeBrO8
_symmetry_space_group_name_H-M   'P 1'
_cell_length_a   6.42977619
_cell_length_b   6.42977619
_cell_length_c   8.68068600
_cell_angle_alpha   71.30743408
_cell_angle_beta   71.30743408
_cell_angle_gamma   60.85276413
_symmetry_Int_Tables_number   1
_chemical_formula_structural   Cs2H2SeBrO8
_chemical_formula_sum   'Cs2 H2 Se1 Br1 O8'
_cell_volume   290.97915192
_cell_formula_units_Z   1
loop_
 _symmetry_equiv_pos_site_id
 _symmetry_equiv_pos_as_xyz
  1  'x, y, z'
loop_
 _atom_site_type_symbol
 _atom_site_label
 _atom_site_symmetry_multiplicity
 _atom_site_fract_x
 _atom_site_fract_y
 _atom_site_fract_z
 _atom_site_occupancy
  Cs  Cs0  1  0.19797201  0.19797200  0.39005097  1
  Cs  Cs1  1  0.80202803  0.80202799  0.60994890  1
  Br  Br2  1  0.00000000  0.00000000  0.00000000  1
  H  H3  1  0.50000002  0.49999999  0.99999992  1
  Se  Se4  1  0.42892601  0.42892599  0.76590093  1
  H  H5  1  0.57107402  0.57107399  0.23409894  1
  O  O6  1  0.28707701  0.28707700  0.74239395  1
  O  O7  1  0.71292302  0.71292299  0.25760592  1
  O  O8  1  0.39698901  0.39698899  0.97785793  1
  O  O9  1  0.60301102  0.60301099  0.02214194  1
  O  O10  1  0.30260902  0.72718399  0.69065393  1
  O  O11  1  0.27281602  0.69739099  0.30934594  1
  O  O12  1  0.69739101  0.27281600  0.30934594  1
  O  O13  1  0.72718401  0.30260900  0.69065393  1
