# generated using pymatgen
data_BaH4(IO)2
_symmetry_space_group_name_H-M   'P 1'
_cell_length_a   6.74771786
_cell_length_b   6.74771786
_cell_length_c   8.80088234
_cell_angle_alpha   72.87090302
_cell_angle_beta   72.87090302
_cell_angle_gamma   69.16496277
_symmetry_Int_Tables_number   1
_chemical_formula_structural   BaH4(IO)2
_chemical_formula_sum   'Ba2 H8 I4 O4'
_cell_volume   349.73135953
_cell_formula_units_Z   2
loop_
 _symmetry_equiv_pos_site_id
 _symmetry_equiv_pos_as_xyz
  1  'x, y, z'
loop_
 _atom_site_type_symbol
 _atom_site_label
 _atom_site_symmetry_multiplicity
 _atom_site_fract_x
 _atom_site_fract_y
 _atom_site_fract_z
 _atom_site_occupancy
  Ba  Ba0  1  0.59566295  0.40433700  0.75000001  1
  Ba  Ba1  1  0.40433694  0.59566299  0.25000002  1
  H  H2  1  0.86053595  0.28660800  0.38666502  1
  H  H3  1  0.71339197  0.13946400  0.11333501  1
  H  H4  1  0.13946394  0.71339199  0.61333501  1
  H  H5  1  0.28660792  0.86053599  0.88666502  1
  H  H6  1  0.71978597  0.12748500  0.44809601  1
  H  H7  1  0.87251495  0.28021400  0.05190402  1
  H  H8  1  0.12748494  0.71978599  0.94809601  1
  H  H9  1  0.28021392  0.87251499  0.55190402  1
  I  I10  1  0.77386391  0.80982699  0.85078402  1
  I  I11  1  0.19017298  0.22613600  0.64921600  1
  I  I12  1  0.80982691  0.77386399  0.35078403  1
  I  I13  1  0.22613598  0.19017300  0.14921601  1
  O  O14  1  0.72227595  0.28652400  0.05523802  1
  O  O15  1  0.71347595  0.27772400  0.44476201  1
  O  O16  1  0.27772393  0.71347599  0.94476201  1
  O  O17  1  0.28652393  0.72227599  0.55523802  1
