# generated using pymatgen
data_Li6CrCu2Ag3S8
_symmetry_space_group_name_H-M   'P 1'
_cell_length_a   5.53436995
_cell_length_b   7.46468496
_cell_length_c   7.70607901
_cell_angle_alpha   90.00000000
_cell_angle_beta   90.00000000
_cell_angle_gamma   90.00000000
_symmetry_Int_Tables_number   1
_chemical_formula_structural   Li6CrCu2Ag3S8
_chemical_formula_sum   'Li6 Cr1 Cu2 Ag3 S8'
_cell_volume   318.35606437
_cell_formula_units_Z   1
loop_
 _symmetry_equiv_pos_site_id
 _symmetry_equiv_pos_as_xyz
  1  'x, y, z'
loop_
 _atom_site_type_symbol
 _atom_site_label
 _atom_site_symmetry_multiplicity
 _atom_site_fract_x
 _atom_site_fract_y
 _atom_site_fract_z
 _atom_site_occupancy
  Li  Li0  1  0.25533600  0.73956800  0.69419600  1
  Li  Li1  1  0.74466401  0.23956800  0.80580400  1
  Li  Li2  1  0.80356901  0.00000000  0.50000000  1
  Li  Li3  1  0.19643100  0.50000000  -0.00000000  1
  Li  Li4  1  0.25533600  0.26043200  0.69419600  1
  Cu  Cu5  1  0.25533600  0.73956800  0.30580400  1
  Cr  Cr6  1  0.74466401  0.76043200  0.80580400  1
  Li  Li7  1  0.74466401  0.23956800  0.19419600  1
  Ag  Ag8  1  0.74466401  0.76043200  0.19419600  1
  Ag  Ag9  1  0.25533600  0.26043200  0.30580400  1
  Ag  Ag10  1  0.22161600  0.00000000  0.00000000  1
  Cu  Cu11  1  0.77838401  0.50000000  0.50000000  1
  S  S12  1  0.01811100  0.00000000  0.23266800  1
  S  S13  1  0.01811100  0.00000000  0.76733200  1
  S  S14  1  0.42217700  0.76168000  -0.00000000  1
  S  S15  1  0.42217700  0.23832000  -0.00000000  1
  S  S16  1  0.57782301  0.26168000  0.50000000  1
  S  S17  1  0.57782301  0.73832000  0.50000000  1
  S  S18  1  0.98188901  0.50000000  0.26733200  1
  S  S19  1  0.98188901  0.50000000  0.73266800  1
