# generated using pymatgen
data_NaLiLa2Nb2(RuO6)2
_symmetry_space_group_name_H-M   'P 1'
_cell_length_a   6.03295898
_cell_length_b   6.31559181
_cell_length_c   7.44761038
_cell_angle_alpha   90.00000000
_cell_angle_beta   89.98693848
_cell_angle_gamma   90.00000000
_symmetry_Int_Tables_number   1
_chemical_formula_structural   NaLiLa2Nb2(RuO6)2
_chemical_formula_sum   'Na1 Li1 La2 Nb2 Ru2 O12'
_cell_volume   283.76665638
_cell_formula_units_Z   1
loop_
 _symmetry_equiv_pos_site_id
 _symmetry_equiv_pos_as_xyz
  1  'x, y, z'
loop_
 _atom_site_type_symbol
 _atom_site_label
 _atom_site_symmetry_multiplicity
 _atom_site_fract_x
 _atom_site_fract_y
 _atom_site_fract_z
 _atom_site_occupancy
  Li  Li0  1  0.48921600  0.84302303  0.70223599  1
  Na  Na1  1  0.98921600  0.15697700  0.20223602  1
  La  La2  1  0.98362300  0.14515700  0.70155100  1
  La  La3  1  0.48362300  0.85484303  0.20155101  1
  Nb  Nb4  1  0.98853100  0.68356102  0.45263601  1
  Nb  Nb5  1  0.48853100  0.31643901  0.95263599  1
  Ru  Ru6  1  0.54098700  0.30047001  0.44950700  1
  Ru  Ru7  1  0.04098700  0.69953002  0.94950698  1
  O  O8  1  0.74552300  0.92798903  0.45984700  1
  O  O9  1  0.91033700  0.42923701  0.94710000  1
  O  O10  1  0.87090900  0.37906501  0.45386701  1
  O  O11  1  0.78335600  0.89556703  0.93446799  1
  O  O12  1  0.58191000  0.22172601  0.70124199  1
  O  O13  1  0.60560700  0.22145901  0.19754701  1
  O  O14  1  0.24552300  0.07201100  0.95984698  1
  O  O15  1  0.41033700  0.57076302  0.44710000  1
  O  O16  1  0.37090900  0.62093502  0.95386698  1
  O  O17  1  0.28335600  0.10443300  0.43446800  1
  O  O18  1  0.08191000  0.77827402  0.20124200  1
  O  O19  1  0.10560700  0.77854102  0.69754699  1
