# generated using pymatgen
data_Ga4Te3Se13
_symmetry_space_group_name_H-M   'P 1'
_cell_length_a   5.82337284
_cell_length_b   5.82337284
_cell_length_c   9.37394905
_cell_angle_alpha   90.00000000
_cell_angle_beta   90.00000000
_cell_angle_gamma   90.00000000
_symmetry_Int_Tables_number   1
_chemical_formula_structural   Ga4Te3Se13
_chemical_formula_sum   'Ga4 Te3 Se13'
_cell_volume   317.88627847
_cell_formula_units_Z   1
loop_
 _symmetry_equiv_pos_site_id
 _symmetry_equiv_pos_as_xyz
  1  'x, y, z'
loop_
 _atom_site_type_symbol
 _atom_site_label
 _atom_site_symmetry_multiplicity
 _atom_site_fract_x
 _atom_site_fract_y
 _atom_site_fract_z
 _atom_site_occupancy
  Ga  Ga0  1  0.21755101  0.35034201  0.08491200  1
  Ga  Ga1  1  0.35034201  0.78244902  0.91508800  1
  Ga  Ga2  1  0.64965802  0.21755101  0.91508800  1
  Ga  Ga3  1  0.78244902  0.64965802  0.08491200  1
  Te  Te4  1  0.35034201  0.21755101  0.41508800  1
  Te  Te5  1  0.64965802  0.78244902  0.41508800  1
  Se  Se6  1  0.78244902  0.35034201  0.58491200  1
  Se  Se7  1  0.21755101  0.64965802  0.58491200  1
  Se  Se8  1  0.17111600  0.17111600  0.75000000  1
  Se  Se9  1  0.17111600  0.82888402  0.25000000  1
  Se  Se10  1  0.82888402  0.17111600  0.25000000  1
  Se  Se11  1  0.82888402  0.82888402  0.75000000  1
  Se  Se12  1  0.00000000  0.50000001  0.37575700  1
  Se  Se13  1  0.50000001  0.00000000  0.62424300  1
  Se  Se14  1  0.50000001  0.00000000  0.12424300  1
  Se  Se15  1  0.00000000  0.50000001  0.87575700  1
  Te  Te16  1  0.50000001  0.50000001  0.25000000  1
  Se  Se17  1  0.50000001  0.50000001  0.75000000  1
  Se  Se18  1  0.00000000  0.00000000  0.00000000  1
  Se  Se19  1  0.00000000  0.00000000  0.50000000  1
