# generated using pymatgen
data_LiCrO2
_symmetry_space_group_name_H-M   'P 1'
_cell_length_a   2.88336086
_cell_length_b   2.88336086
_cell_length_c   5.05234528
_cell_angle_alpha   73.42028809
_cell_angle_beta   73.42028809
_cell_angle_gamma   59.99997711
_symmetry_Int_Tables_number   1
_chemical_formula_structural   LiCrO2
_chemical_formula_sum   'Li1 Cr1 O2'
_cell_volume   34.34521971
_cell_formula_units_Z   1
loop_
 _symmetry_equiv_pos_site_id
 _symmetry_equiv_pos_as_xyz
  1  'x, y, z'
loop_
 _atom_site_type_symbol
 _atom_site_label
 _atom_site_symmetry_multiplicity
 _atom_site_fract_x
 _atom_site_fract_y
 _atom_site_fract_z
 _atom_site_occupancy
  Li  Li0  1  0.00000000  0.00000000  0.00000000  1
  Cr  Cr1  1  0.50000000  0.50000002  0.49999999  1
  O  O2  1  0.24042000  0.24042001  0.27874000  1
  O  O3  1  0.75958000  0.75958003  0.72125999  1
