# generated using pymatgen
data_In2AgS4
_symmetry_space_group_name_H-M   'P 1'
_cell_length_a   3.60183692
_cell_length_b   6.09858370
_cell_length_c   12.89091110
_cell_angle_alpha   90.85569000
_cell_angle_beta   90.00000000
_cell_angle_gamma   90.00000000
_symmetry_Int_Tables_number   1
_chemical_formula_structural   In2AgS4
_chemical_formula_sum   'In4 Ag2 S8'
_cell_volume   283.13151482
_cell_formula_units_Z   2
loop_
 _symmetry_equiv_pos_site_id
 _symmetry_equiv_pos_as_xyz
  1  'x, y, z'
loop_
 _atom_site_type_symbol
 _atom_site_label
 _atom_site_symmetry_multiplicity
 _atom_site_fract_x
 _atom_site_fract_y
 _atom_site_fract_z
 _atom_site_occupancy
  In  In0  1  0.00000000  0.98597404  0.75325904  1
  In  In1  1  0.50000001  0.48597402  0.25325902  1
  In  In2  1  0.00000000  0.01366100  0.24618401  1
  In  In3  1  0.50000001  0.51366102  0.74618403  1
  Ag  Ag4  1  0.50000001  0.48231102  0.00165101  1
  Ag  Ag5  1  0.00000000  0.98231104  0.50165104  1
  S  S6  1  0.50000001  0.15216301  0.13806301  1
  S  S7  1  0.50000001  0.83230003  0.86648904  1
  S  S8  1  0.00000000  0.65216302  0.63806303  1
  S  S9  1  0.00000000  0.33230001  0.36648902  1
  S  S10  1  0.00000000  0.67566103  0.14334002  1
  S  S11  1  0.00000000  0.35793001  0.85101403  1
  S  S12  1  0.50000001  0.17566101  0.64334002  1
  S  S13  1  0.50000001  0.85793003  0.35101403  1
