# generated using pymatgen
data_NaGaTe2
_symmetry_space_group_name_H-M   'P 1'
_cell_length_a   6.79904890
_cell_length_b   6.79904890
_cell_length_c   6.79904890
_cell_angle_alpha   104.86807251
_cell_angle_beta   104.86807251
_cell_angle_gamma   119.13122559
_symmetry_Int_Tables_number   1
_chemical_formula_structural   NaGaTe2
_chemical_formula_sum   'Na2 Ga2 Te4'
_cell_volume   236.71395620
_cell_formula_units_Z   2
loop_
 _symmetry_equiv_pos_site_id
 _symmetry_equiv_pos_as_xyz
  1  'x, y, z'
loop_
 _atom_site_type_symbol
 _atom_site_label
 _atom_site_symmetry_multiplicity
 _atom_site_fract_x
 _atom_site_fract_y
 _atom_site_fract_z
 _atom_site_occupancy
  Na  Na0  1  0.74999995  0.74999996  0.99999999  1
  Na  Na1  1  0.24999998  0.24999999  0.99999998  1
  Ga  Ga2  1  0.24999997  0.74999996  0.50000000  1
  Ga  Ga3  1  0.74999997  0.24999999  0.50000001  1
  Te  Te4  1  0.82458395  0.67541597  0.50000001  1
  Te  Te5  1  0.32458396  0.82458396  0.14916801  1
  Te  Te6  1  0.67541598  0.17541599  0.85083199  1
  Te  Te7  1  0.17541598  0.32458398  0.49999999  1
