# generated using pymatgen
data_Li8HfO6
_symmetry_space_group_name_H-M   'P 1'
_cell_length_a   5.51506042
_cell_length_b   5.51506042
_cell_length_c   6.07981634
_cell_angle_alpha   63.02799988
_cell_angle_beta   63.02799988
_cell_angle_gamma   59.99999237
_symmetry_Int_Tables_number   1
_chemical_formula_structural   Li8HfO6
_chemical_formula_sum   'Li8 Hf1 O6'
_cell_volume   136.42856183
_cell_formula_units_Z   1
loop_
 _symmetry_equiv_pos_site_id
 _symmetry_equiv_pos_as_xyz
  1  'x, y, z'
loop_
 _atom_site_type_symbol
 _atom_site_label
 _atom_site_symmetry_multiplicity
 _atom_site_fract_x
 _atom_site_fract_y
 _atom_site_fract_z
 _atom_site_occupancy
  Li  Li0  1  0.50467203  0.23436101  0.36397098  1
  Li  Li1  1  0.76563904  0.10300400  0.63602898  1
  Li  Li2  1  0.10300401  0.49532802  0.63602898  1
  Li  Li3  1  0.65538404  0.65538403  0.03384798  1
  Li  Li4  1  0.34461602  0.34461601  0.96615198  1
  Li  Li5  1  0.89699605  0.50467202  0.36397097  1
  Li  Li6  1  0.23436102  0.89699604  0.36397098  1
  Li  Li7  1  0.49532803  0.76563903  0.63602897  1
  Hf  Hf8  1  0.00000000  0.00000000  0.00000000  1
  O  O9  1  0.38414402  0.09188800  0.75801999  1
  O  O10  1  0.90811204  0.23405201  0.24197998  1
  O  O11  1  0.23405202  0.61585603  0.24197998  1
  O  O12  1  0.76594804  0.38414402  0.75801997  1
  O  O13  1  0.09188801  0.76594803  0.75801998  1
  O  O14  1  0.61585604  0.90811204  0.24197997  1
