# generated using pymatgen
data_LiV(SiO3)2
_symmetry_space_group_name_H-M   'P 1'
_cell_length_a   5.36607790
_cell_length_b   6.62470579
_cell_length_c   6.62470579
_cell_angle_alpha   83.73455048
_cell_angle_beta   74.41921997
_cell_angle_gamma   74.41921997
_symmetry_Int_Tables_number   1
_chemical_formula_structural   LiV(SiO3)2
_chemical_formula_sum   'Li2 V2 Si4 O12'
_cell_volume   218.33595142
_cell_formula_units_Z   2
loop_
 _symmetry_equiv_pos_site_id
 _symmetry_equiv_pos_as_xyz
  1  'x, y, z'
loop_
 _atom_site_type_symbol
 _atom_site_label
 _atom_site_symmetry_multiplicity
 _atom_site_fract_x
 _atom_site_fract_y
 _atom_site_fract_z
 _atom_site_occupancy
  Li  Li0  1  0.24999995  0.74362799  0.25637201  1
  Li  Li1  1  0.75000001  0.25637200  0.74362795  1
  V  V2  1  0.25000000  0.09785900  0.90214096  1
  V  V3  1  0.74999995  0.90214098  0.09785900  1
  Si  Si4  1  0.26918096  0.61286099  0.79159499  1
  Si  Si5  1  0.73081900  0.38713899  0.20840497  1
  Si  Si6  1  0.76918096  0.79159499  0.61286097  1
  Si  Si7  1  0.23081899  0.20840500  0.38713898  1
  O  O8  1  0.64911294  0.96799098  0.79730698  1
  O  O9  1  0.93393301  0.35031499  0.35884496  1
  O  O10  1  0.56606697  0.64115499  0.64968498  1
  O  O11  1  0.06606695  0.64968499  0.64115500  1
  O  O12  1  0.43393299  0.35884499  0.35031498  1
  O  O13  1  0.66686997  0.62572699  0.11513799  1
  O  O14  1  0.35088701  0.03200900  0.20269298  1
  O  O15  1  0.14911294  0.79730699  0.96799099  1
  O  O16  1  0.83312996  0.88486198  0.37427298  1
  O  O17  1  0.33312998  0.37427299  0.88486197  1
  O  O18  1  0.16687000  0.11513800  0.62572698  1
  O  O19  1  0.85088702  0.20269300  0.03200896  1
