# generated using pymatgen
data_Al5In3(AsBr2)4
_symmetry_space_group_name_H-M   'P 1'
_cell_length_a   3.98378110
_cell_length_b   10.10298538
_cell_length_c   13.01489258
_cell_angle_alpha   90.00000000
_cell_angle_beta   90.00000000
_cell_angle_gamma   90.00000000
_symmetry_Int_Tables_number   1
_chemical_formula_structural   Al5In3(AsBr2)4
_chemical_formula_sum   'Al5 In3 As4 Br8'
_cell_volume   523.82446646
_cell_formula_units_Z   1
loop_
 _symmetry_equiv_pos_site_id
 _symmetry_equiv_pos_as_xyz
  1  'x, y, z'
loop_
 _atom_site_type_symbol
 _atom_site_label
 _atom_site_symmetry_multiplicity
 _atom_site_fract_x
 _atom_site_fract_y
 _atom_site_fract_z
 _atom_site_occupancy
  Al  Al0  1  0.74999998  0.99265396  0.26284401  1
  Al  Al1  1  0.74999998  0.49265398  0.23715601  1
  Al  Al2  1  0.24999999  0.50734598  0.76284402  1
  Al  Al3  1  0.24999999  0.00734600  0.73715602  1
  Al  Al4  1  0.24999999  0.31467899  0.46206101  1
  In  In5  1  0.74999998  0.18532099  0.96206103  1
  In  In6  1  0.24999999  0.81467897  0.03793900  1
  In  In7  1  0.74999998  0.68532097  0.53793902  1
  As  As8  1  0.24999999  0.05402400  0.11931900  1
  As  As9  1  0.74999998  0.75166597  0.17652401  1
  As  As10  1  0.74999998  0.25166599  0.32347601  1
  Br  Br11  1  0.24999999  0.74833397  0.67652402  1
  As  As12  1  0.74999998  0.44597598  0.61931902  1
  Br  Br13  1  0.24999999  0.24833399  0.82347603  1
  Br  Br14  1  0.24999999  0.55402398  0.38068101  1
  Br  Br15  1  0.74999998  0.94597596  0.88068103  1
  Br  Br16  1  0.24999999  0.93094596  0.38728601  1
  Br  Br17  1  0.74999998  0.56905398  0.88728603  1
  Br  Br18  1  0.24999999  0.43094598  0.11271400  1
  Br  Br19  1  0.74999998  0.06905400  0.61271402  1
