# generated using pymatgen
data_Ag2Bi2TeSe6S
_symmetry_space_group_name_H-M   'P 1'
_cell_length_a   4.04843998
_cell_length_b   4.04844093
_cell_length_c   19.11027718
_cell_angle_alpha   90.00000000
_cell_angle_beta   90.00000000
_cell_angle_gamma   119.99999237
_symmetry_Int_Tables_number   1
_chemical_formula_structural   Ag2Bi2TeSe6S
_chemical_formula_sum   'Ag2 Bi2 Te1 Se6 S1'
_cell_volume   271.25213396
_cell_formula_units_Z   1
loop_
 _symmetry_equiv_pos_site_id
 _symmetry_equiv_pos_as_xyz
  1  'x, y, z'
loop_
 _atom_site_type_symbol
 _atom_site_label
 _atom_site_symmetry_multiplicity
 _atom_site_fract_x
 _atom_site_fract_y
 _atom_site_fract_z
 _atom_site_occupancy
  Ag  Ag0  1  0.66666667  0.33333334  0.33129700  1
  Bi  Bi1  1  0.33333334  0.66666667  0.66870299  1
  Ag  Ag2  1  0.00000000  0.00000000  0.00000000  1
  Bi  Bi3  1  0.33333334  0.66666667  0.16507100  1
  Se  Se4  1  0.66666667  0.33333334  0.83492899  1
  Se  Se5  1  0.00000000  0.00000000  0.50000000  1
  Se  Se6  1  0.33333334  0.66666667  0.41354500  1
  Se  Se7  1  0.00000000  0.00000000  0.25078100  1
  Se  Se8  1  0.66666667  0.33333334  0.07928500  1
  S  S9  1  0.00000000  0.00000000  0.74921899  1
  Te  Te10  1  0.33333334  0.66666667  0.92071499  1
  Se  Se11  1  0.66666667  0.33333334  0.58645499  1
