# generated using pymatgen
data_GaCuSe3
_symmetry_space_group_name_H-M   'P 1'
_cell_length_a   6.84680414
_cell_length_b   6.89017916
_cell_length_c   7.43510628
_cell_angle_alpha   116.56580353
_cell_angle_beta   90.00000000
_cell_angle_gamma   119.79197693
_symmetry_Int_Tables_number   1
_chemical_formula_structural   GaCuSe3
_chemical_formula_sum   'Ga2 Cu2 Se6'
_cell_volume   260.86636446
_cell_formula_units_Z   2
loop_
 _symmetry_equiv_pos_site_id
 _symmetry_equiv_pos_as_xyz
  1  'x, y, z'
loop_
 _atom_site_type_symbol
 _atom_site_label
 _atom_site_symmetry_multiplicity
 _atom_site_fract_x
 _atom_site_fract_y
 _atom_site_fract_z
 _atom_site_occupancy
  Ga  Ga0  1  0.36226204  0.91752200  0.87058997  1
  Ga  Ga1  1  0.55526004  0.91752200  0.37058997  1
  Cu  Cu2  1  0.73520302  0.59922300  0.88345198  1
  Cu  Cu3  1  0.86402001  0.59922300  0.38345198  1
  Se  Se4  1  0.09102500  0.00304900  0.01328800  1
  Se  Se5  1  0.91202398  0.00304900  0.51328800  1
  Se  Se6  1  0.41482203  0.65666200  0.98509697  1
  Se  Se7  1  0.24184003  0.65666200  0.48509698  1
  Se  Se8  1  0.75188200  0.32374400  0.99757298  1
  Se  Se9  1  0.57186201  0.32374400  0.49757299  1
