# generated using pymatgen
data_BeF2
_symmetry_space_group_name_H-M   'P 1'
_cell_length_a   4.80803823
_cell_length_b   4.80803776
_cell_length_c   5.26246691
_cell_angle_alpha   90.00000000
_cell_angle_beta   90.00000000
_cell_angle_gamma   120.00000000
_symmetry_Int_Tables_number   1
_chemical_formula_structural   BeF2
_chemical_formula_sum   'Be3 F6'
_cell_volume   105.35515532
_cell_formula_units_Z   3
loop_
 _symmetry_equiv_pos_site_id
 _symmetry_equiv_pos_as_xyz
  1  'x, y, z'
loop_
 _atom_site_type_symbol
 _atom_site_label
 _atom_site_symmetry_multiplicity
 _atom_site_fract_x
 _atom_site_fract_y
 _atom_site_fract_z
 _atom_site_occupancy
  Be  Be0  1  0.52837697  0.52837702  0.66666668  1
  Be  Be1  1  0.99999995  0.47162302  0.33333334  1
  Be  Be2  1  0.47162298  0.00000000  0.00000000  1
  F  F3  1  0.58354997  0.84781103  0.78916801  1
  F  F4  1  0.26426098  0.41645002  0.45583501  1
  F  F5  1  0.15218899  0.73573903  0.12250100  1
  F  F6  1  0.84781096  0.58355002  0.54416501  1
  F  F7  1  0.41644998  0.26426101  0.87749902  1
  F  F8  1  0.73573896  0.15218901  0.21083200  1
