# generated using pymatgen
data_NaTlO2
_symmetry_space_group_name_H-M   'P 1'
_cell_length_a   4.88793612
_cell_length_b   4.88793612
_cell_length_c   5.86693907
_cell_angle_alpha   114.61798096
_cell_angle_beta   114.61798096
_cell_angle_gamma   90.00000000
_symmetry_Int_Tables_number   1
_chemical_formula_structural   NaTlO2
_chemical_formula_sum   'Na2 Tl2 O4'
_cell_volume   113.26638370
_cell_formula_units_Z   2
loop_
 _symmetry_equiv_pos_site_id
 _symmetry_equiv_pos_as_xyz
  1  'x, y, z'
loop_
 _atom_site_type_symbol
 _atom_site_label
 _atom_site_symmetry_multiplicity
 _atom_site_fract_x
 _atom_site_fract_y
 _atom_site_fract_z
 _atom_site_occupancy
  Na  Na0  1  0.24999999  0.74999998  0.49999999  1
  Na  Na1  1  0.49999998  0.49999999  0.99999998  1
  Tl  Tl2  1  0.00000000  0.00000000  0.00000000  1
  Tl  Tl3  1  0.74999998  0.24999999  0.49999999  1
  O  O4  1  0.97883197  0.47883199  0.95766398  1
  O  O5  1  0.77116798  0.77116798  0.54233599  1
  O  O6  1  0.52116799  0.02116800  0.04233600  1
  O  O7  1  0.22883199  0.22883199  0.45766399  1
