# generated using pymatgen
data_Tl6Se2S7O
_symmetry_space_group_name_H-M   'P 1'
_cell_length_a   7.03816795
_cell_length_b   7.17852592
_cell_length_c   9.65991974
_cell_angle_alpha   68.18799591
_cell_angle_beta   80.14779663
_cell_angle_gamma   90.00000000
_symmetry_Int_Tables_number   1
_chemical_formula_structural   Tl6Se2S7O
_chemical_formula_sum   'Tl6 Se2 S7 O1'
_cell_volume   445.35182839
_cell_formula_units_Z   1
loop_
 _symmetry_equiv_pos_site_id
 _symmetry_equiv_pos_as_xyz
  1  'x, y, z'
loop_
 _atom_site_type_symbol
 _atom_site_label
 _atom_site_symmetry_multiplicity
 _atom_site_fract_x
 _atom_site_fract_y
 _atom_site_fract_z
 _atom_site_occupancy
  Tl  Tl0  1  0.71264299  0.34174800  0.50973403  1
  Tl  Tl1  1  0.78735699  0.85148200  0.49026605  1
  Tl  Tl2  1  0.28735699  0.65825200  0.49026604  1
  Tl  Tl3  1  0.21264300  0.14851800  0.50973403  1
  Tl  Tl4  1  0.72234799  0.75811100  0.14836303  1
  Tl  Tl5  1  0.77765199  0.90647400  0.85163707  1
  Se  Se6  1  0.27765200  0.24188900  0.85163704  1
  Se  Se7  1  0.22234800  0.09352600  0.14836301  1
  S  S8  1  0.82440999  0.44980800  0.76778405  1
  S  S9  1  0.67558999  0.21759200  0.23221602  1
  S  S10  1  0.17558999  0.55019200  0.23221603  1
  S  S11  1  0.32440999  0.78240800  0.76778406  1
  S  S12  1  0.65847699  0.65935800  0.39405204  1
  S  S13  1  0.84152300  0.05341000  0.60594803  1
  S  S14  1  0.34152300  0.34064200  0.60594804  1
  O  O15  1  0.15847699  0.94659000  0.39405205  1
