# generated using pymatgen
data_RbBa2NCl4
_symmetry_space_group_name_H-M   'P 1'
_cell_length_a   6.33257723
_cell_length_b   6.33257723
_cell_length_c   6.33257723
_cell_angle_alpha   90.00000000
_cell_angle_beta   90.00000000
_cell_angle_gamma   90.00000000
_symmetry_Int_Tables_number   1
_chemical_formula_structural   RbBa2NCl4
_chemical_formula_sum   'Rb1 Ba2 N1 Cl4'
_cell_volume   253.94606329
_cell_formula_units_Z   1
loop_
 _symmetry_equiv_pos_site_id
 _symmetry_equiv_pos_as_xyz
  1  'x, y, z'
loop_
 _atom_site_type_symbol
 _atom_site_label
 _atom_site_symmetry_multiplicity
 _atom_site_fract_x
 _atom_site_fract_y
 _atom_site_fract_z
 _atom_site_occupancy
  Ba  Ba0  1  0.00000000  0.00000000  0.49999998  1
  Ba  Ba1  1  0.00000000  0.49999998  -0.00000000  1
  Rb  Rb2  1  0.49999998  0.00000000  0.00000000  1
  N  N3  1  0.49999998  0.49999998  0.49999998  1
  Cl  Cl4  1  0.00000000  0.00000000  0.00000000  1
  Cl  Cl5  1  0.49999998  0.49999998  0.00000000  1
  Cl  Cl6  1  0.49999998  0.00000000  0.49999998  1
  Cl  Cl7  1  0.00000000  0.49999998  0.49999998  1
