# generated using pymatgen
data_Ba4SrLaBiSb2WO10
_symmetry_space_group_name_H-M   'P 1'
_cell_length_a   7.32236719
_cell_length_b   7.34485245
_cell_length_c   9.87572289
_cell_angle_alpha   87.28203583
_cell_angle_beta   75.24000549
_cell_angle_gamma   87.97242737
_symmetry_Int_Tables_number   1
_chemical_formula_structural   Ba4SrLaBiSb2WO10
_chemical_formula_sum   'Ba4 Sr1 La1 Bi1 Sb2 W1 O10'
_cell_volume   512.87958460
_cell_formula_units_Z   1
loop_
 _symmetry_equiv_pos_site_id
 _symmetry_equiv_pos_as_xyz
  1  'x, y, z'
loop_
 _atom_site_type_symbol
 _atom_site_label
 _atom_site_symmetry_multiplicity
 _atom_site_fract_x
 _atom_site_fract_y
 _atom_site_fract_z
 _atom_site_occupancy
  Ba  Ba0  1  0.52388699  0.37250600  0.32964900  1
  Ba  Ba1  1  0.47611299  0.62749400  0.67035101  1
  Ba  Ba2  1  0.95088998  0.11700200  0.71750800  1
  Ba  Ba3  1  0.04910999  0.88299801  0.28249200  1
  Sr  Sr4  1  0.73471299  0.03008500  0.05993899  1
  La  La5  1  0.26528699  0.96991501  0.94006102  1
  Sb  Sb6  1  0.05392000  0.60522000  0.55895201  1
  Sb  Sb7  1  0.94607998  0.39478000  0.44104799  1
  O  O8  1  0.66851799  0.00310600  0.26618999  1
  Bi  Bi9  1  0.67062099  0.25552100  0.96753601  1
  O  O10  1  0.91267798  0.51620200  0.26143599  1
  W  W11  1  0.33148199  0.99689401  0.73381001  1
  O  O12  1  0.84992598  0.80847301  0.57550400  1
  O  O13  1  0.08732200  0.48379800  0.73856402  1
  O  O14  1  0.15007400  0.19152700  0.42449601  1
  O  O15  1  0.85590598  0.82767901  0.94515301  1
  O  O16  1  0.29904799  0.69697300  0.42669200  1
  O  O17  1  0.70095198  0.30302700  0.57330800  1
  O  O18  1  0.14409400  0.17232100  0.05484700  1
  O  O19  1  0.32937899  0.74447900  0.03246399  1
