# generated using pymatgen
data_MgH8N2OF5
_symmetry_space_group_name_H-M   'P 1'
_cell_length_a   4.80456781
_cell_length_b   6.08084202
_cell_length_c   6.08084249
_cell_angle_alpha   60.00000000
_cell_angle_beta   90.00000000
_cell_angle_gamma   90.00000000
_symmetry_Int_Tables_number   1
_chemical_formula_structural   MgH8N2OF5
_chemical_formula_sum   'Mg1 H8 N2 O1 F5'
_cell_volume   153.85529040
_cell_formula_units_Z   1
loop_
 _symmetry_equiv_pos_site_id
 _symmetry_equiv_pos_as_xyz
  1  'x, y, z'
loop_
 _atom_site_type_symbol
 _atom_site_label
 _atom_site_symmetry_multiplicity
 _atom_site_fract_x
 _atom_site_fract_y
 _atom_site_fract_z
 _atom_site_occupancy
  Mg  Mg0  1  0.00000000  0.00000000  0.00000000  1
  H  H1  1  0.90455504  0.33333334  0.33333331  1
  H  H2  1  0.09544500  0.66666668  0.66666662  1
  H  H3  1  0.61775602  0.51722701  0.24138598  1
  H  H4  1  0.61775602  0.24138700  0.51722598  1
  H  H5  1  0.61775602  0.24138700  0.24138598  1
  H  H6  1  0.38224401  0.48277301  0.75861396  1
  H  H7  1  0.38224401  0.75861301  0.48277396  1
  H  H8  1  0.38224401  0.75861301  0.75861395  1
  N  N9  1  0.69024603  0.33333334  0.33333331  1
  N  N10  1  0.30975401  0.66666668  0.66666662  1
  O  O11  1  0.22425901  0.14811300  0.70377397  1
  F  F12  1  0.22425901  0.14811300  0.14811299  1
  F  F13  1  0.22425901  0.70377401  0.14811297  1
  F  F14  1  0.77574103  0.85188701  0.29622596  1
  F  F15  1  0.77574103  0.85188701  0.85188694  1
  F  F16  1  0.77574103  0.29622600  0.85188696  1
