# generated using pymatgen
data_CuTeI6
_symmetry_space_group_name_H-M   'P 1'
_cell_length_a   7.42479992
_cell_length_b   7.42479992
_cell_length_c   8.61184216
_cell_angle_alpha   64.46383667
_cell_angle_beta   64.46383667
_cell_angle_gamma   60.00000000
_symmetry_Int_Tables_number   1
_chemical_formula_structural   CuTeI6
_chemical_formula_sum   'Cu1 Te1 I6'
_cell_volume   356.59097519
_cell_formula_units_Z   1
loop_
 _symmetry_equiv_pos_site_id
 _symmetry_equiv_pos_as_xyz
  1  'x, y, z'
loop_
 _atom_site_type_symbol
 _atom_site_label
 _atom_site_symmetry_multiplicity
 _atom_site_fract_x
 _atom_site_fract_y
 _atom_site_fract_z
 _atom_site_occupancy
  Te  Te0  1  0.18025099  0.18025100  0.45924703  1
  Cu  Cu1  1  0.81974896  0.81974900  0.54075308  1
  I  I2  1  0.43358799  0.05789100  0.73046905  1
  I  I3  1  0.77805197  0.43358800  0.73046907  1
  I  I4  1  0.05789097  0.77805200  0.73046907  1
  I  I5  1  0.56641196  0.94210900  0.26953106  1
  I  I6  1  0.22194798  0.56641200  0.26953104  1
  I  I7  1  0.94210898  0.22194800  0.26953105  1
