# generated using pymatgen
data_Ga(AgS2)2
_symmetry_space_group_name_H-M   'P 1'
_cell_length_a   5.63949585
_cell_length_b   6.49583864
_cell_length_c   5.63949585
_cell_angle_alpha   64.27289581
_cell_angle_beta   90.00000000
_cell_angle_gamma   115.72710419
_symmetry_Int_Tables_number   1
_chemical_formula_structural   Ga(AgS2)2
_chemical_formula_sum   'Ga1 Ag2 S4'
_cell_volume   163.08295596
_cell_formula_units_Z   1
loop_
 _symmetry_equiv_pos_site_id
 _symmetry_equiv_pos_as_xyz
  1  'x, y, z'
loop_
 _atom_site_type_symbol
 _atom_site_label
 _atom_site_symmetry_multiplicity
 _atom_site_fract_x
 _atom_site_fract_y
 _atom_site_fract_z
 _atom_site_occupancy
  Ga  Ga0  1  0.25000002  0.50000002  0.24999999  1
  Ag  Ag1  1  0.00000000  0.00000000  0.00000000  1
  Ag  Ag2  1  0.50000001  0.00000000  0.50000001  1
  S  S3  1  0.10166402  0.73172003  0.91465700  1
  S  S4  1  0.63005604  0.73172003  0.35362299  1
  S  S5  1  0.35362302  0.26828001  0.10166400  1
  S  S6  1  0.91465703  0.26828001  0.63005601  1
