# generated using pymatgen
data_V3CdB2(HO6)2
_symmetry_space_group_name_H-M   'P 1'
_cell_length_a   6.10928059
_cell_length_b   6.10928059
_cell_length_c   6.10928059
_cell_angle_alpha   103.97349548
_cell_angle_beta   103.97349548
_cell_angle_gamma   103.97350311
_symmetry_Int_Tables_number   1
_chemical_formula_structural   V3CdB2(HO6)2
_chemical_formula_sum   'V3 Cd1 B2 H2 O12'
_cell_volume   203.55201910
_cell_formula_units_Z   1
loop_
 _symmetry_equiv_pos_site_id
 _symmetry_equiv_pos_as_xyz
  1  'x, y, z'
loop_
 _atom_site_type_symbol
 _atom_site_label
 _atom_site_symmetry_multiplicity
 _atom_site_fract_x
 _atom_site_fract_y
 _atom_site_fract_z
 _atom_site_occupancy
  Cd  Cd0  1  0.50000005  0.50000003  0.50000001  1
  V  V1  1  0.50000008  0.94784205  0.05215804  1
  V  V2  1  0.94784203  0.05215800  0.50000000  1
  V  V3  1  0.05215804  0.50000003  0.94784199  1
  H  H4  1  0.00000000  0.00000000  0.00000000  1
  H  H5  1  0.00000004  0.55310203  0.44689801  1
  B  B6  1  0.55310205  0.44689802  0.00000003  1
  B  B7  1  0.44689801  0.00000000  0.55310199  1
  O  O8  1  0.00000001  0.14399001  0.85600998  1
  O  O9  1  0.14399006  0.85601004  0.00000003  1
  O  O10  1  0.85601003  0.00000000  0.14399001  1
  O  O11  1  0.00000003  0.40851502  0.59148500  1
  O  O12  1  0.40851505  0.59148503  0.00000003  1
  O  O13  1  0.59148502  0.00000000  0.40851500  1
  O  O14  1  0.12979704  0.52808503  0.29210701  1
  O  O15  1  0.52808504  0.29210702  0.12979702  1
  O  O16  1  0.29210702  0.12979701  0.52808500  1
  O  O17  1  0.87020307  0.70789204  0.47191503  1
  O  O18  1  0.47191507  0.87020305  0.70789202  1
  O  O19  1  0.70789205  0.47191502  0.87020300  1
