# generated using pymatgen
data_NaSr3Pr2(RuO6)2
_symmetry_space_group_name_H-M   'P 1'
_cell_length_a   5.81905985
_cell_length_b   6.10727787
_cell_length_c   8.37738609
_cell_angle_alpha   88.13607788
_cell_angle_beta   90.00000000
_cell_angle_gamma   90.00000000
_symmetry_Int_Tables_number   1
_chemical_formula_structural   NaSr3Pr2(RuO6)2
_chemical_formula_sum   'Na1 Sr3 Pr2 Ru2 O12'
_cell_volume   297.56317721
_cell_formula_units_Z   1
loop_
 _symmetry_equiv_pos_site_id
 _symmetry_equiv_pos_as_xyz
  1  'x, y, z'
loop_
 _atom_site_type_symbol
 _atom_site_label
 _atom_site_symmetry_multiplicity
 _atom_site_fract_x
 _atom_site_fract_y
 _atom_site_fract_z
 _atom_site_occupancy
  Sr  Sr0  1  0.50000001  0.49999999  0.50000002  1
  Na  Na1  1  0.00000000  0.00000000  0.00000000  1
  Sr  Sr2  1  0.02289200  0.48841799  0.24021801  1
  Sr  Sr3  1  0.52289201  0.01158200  0.25978200  1
  Pr  Pr4  1  0.97710803  0.51158199  0.75978202  1
  Pr  Pr5  1  0.47710801  0.98841798  0.74021803  1
  Ru  Ru6  1  0.50000001  0.49999999  1.00000002  1
  Ru  Ru7  1  0.00000000  0.00000000  0.50000001  1
  O  O8  1  0.45758801  0.58089399  0.21618201  1
  O  O9  1  0.95758802  0.91910598  0.28381802  1
  O  O10  1  0.54241201  0.41910599  0.78381802  1
  O  O11  1  0.04241200  0.08089400  0.71618201  1
  O  O12  1  0.74950502  0.20048300  0.47277501  1
  O  O13  1  0.24950501  0.29951699  0.02722501  1
  O  O14  1  0.25049501  0.79951698  0.52722502  1
  O  O15  1  0.75049502  0.70048299  0.97277503  1
  O  O16  1  0.21493001  0.22368500  0.43241001  1
  O  O17  1  0.71493002  0.27631499  0.06759001  1
  O  O18  1  0.78507002  0.77631499  0.56759002  1
  O  O19  1  0.28507001  0.72368499  0.93241003  1
