# generated using pymatgen
data_Mg2ZnO4
_symmetry_space_group_name_H-M   'P 1'
_cell_length_a   3.26864290
_cell_length_b   3.26850772
_cell_length_c   8.56713200
_cell_angle_alpha   79.00090027
_cell_angle_beta   79.00247955
_cell_angle_gamma   59.99861526
_symmetry_Int_Tables_number   1
_chemical_formula_structural   Mg2ZnO4
_chemical_formula_sum   'Mg2 Zn1 O4'
_cell_volume   77.31697788
_cell_formula_units_Z   1
loop_
 _symmetry_equiv_pos_site_id
 _symmetry_equiv_pos_as_xyz
  1  'x, y, z'
loop_
 _atom_site_type_symbol
 _atom_site_label
 _atom_site_symmetry_multiplicity
 _atom_site_fract_x
 _atom_site_fract_y
 _atom_site_fract_z
 _atom_site_occupancy
  Mg  Mg0  1  0.78321797  0.78315304  0.65041100  1
  Mg  Mg1  1  0.99543496  0.99546605  0.01366498  1
  Zn  Zn2  1  0.21333799  0.21330701  0.36001700  1
  O  O3  1  0.87904597  0.87901504  0.36289299  1
  O  O4  1  0.13829200  0.13821201  0.58520401  1
  O  O5  1  0.70312797  0.70323204  0.89051201  1
  O  O6  1  0.28754299  0.28761601  0.13729800  1
