# generated using pymatgen
data_Ba4SrLi2W(IO5)2
_symmetry_space_group_name_H-M   'P 1'
_cell_length_a   6.62464523
_cell_length_b   7.35601521
_cell_length_c   9.27153397
_cell_angle_alpha   90.00000000
_cell_angle_beta   92.24689484
_cell_angle_gamma   90.00000000
_symmetry_Int_Tables_number   1
_chemical_formula_structural   Ba4SrLi2W(IO5)2
_chemical_formula_sum   'Ba4 Sr1 Li2 W1 I2 O10'
_cell_volume   451.46366958
_cell_formula_units_Z   1
loop_
 _symmetry_equiv_pos_site_id
 _symmetry_equiv_pos_as_xyz
  1  'x, y, z'
loop_
 _atom_site_type_symbol
 _atom_site_label
 _atom_site_symmetry_multiplicity
 _atom_site_fract_x
 _atom_site_fract_y
 _atom_site_fract_z
 _atom_site_occupancy
  Ba  Ba0  1  0.03819200  0.38053099  0.75234603  1
  Ba  Ba1  1  0.46180798  0.88053098  0.74765402  1
  Ba  Ba2  1  0.96180796  0.61946898  0.24765398  1
  Ba  Ba3  1  0.53819198  0.11946900  0.25234599  1
  I  I4  1  0.56903598  0.39134399  0.93387802  1
  Sr  Sr5  1  0.93096397  0.89134398  0.56612200  1
  Li  Li6  1  0.43096398  0.60865598  0.06612199  1
  Li  Li7  1  0.06903600  0.10865600  0.43387801  1
  W  W8  1  0.85273897  0.30606099  0.43195199  1
  I  I9  1  0.64726098  0.80606098  0.06804798  1
  O  O10  1  0.14726099  0.69393898  0.56804802  1
  O  O11  1  0.35273899  0.19393899  0.93195203  1
  O  O12  1  0.12399200  0.99352797  0.24063201  1
  O  O13  1  0.37600799  0.49352799  0.25936800  1
  O  O14  1  0.87600797  0.00647200  0.75936801  1
  O  O15  1  0.62399198  0.50647199  0.74063201  1
  O  O16  1  0.32067199  0.19380799  0.54718201  1
  O  O17  1  0.17932799  0.69380798  0.95281803  1
  O  O18  1  0.67932798  0.80619198  0.45281800  1
  O  O19  1  0.82067197  0.30619199  0.04718198  1
