# generated using pymatgen
data_Li5UO5
_symmetry_space_group_name_H-M   'P 1'
_cell_length_a   4.06521416
_cell_length_b   5.33420992
_cell_length_c   5.88505411
_cell_angle_alpha   107.42005157
_cell_angle_beta   90.00000000
_cell_angle_gamma   112.39881134
_symmetry_Int_Tables_number   1
_chemical_formula_structural   Li5UO5
_chemical_formula_sum   'Li5 U1 O5'
_cell_volume   111.63087024
_cell_formula_units_Z   1
loop_
 _symmetry_equiv_pos_site_id
 _symmetry_equiv_pos_as_xyz
  1  'x, y, z'
loop_
 _atom_site_type_symbol
 _atom_site_label
 _atom_site_symmetry_multiplicity
 _atom_site_fract_x
 _atom_site_fract_y
 _atom_site_fract_z
 _atom_site_occupancy
  Li  Li0  1  0.28704501  0.57409002  0.65632900  1
  Li  Li1  1  0.30771701  0.61543403  0.14024700  1
  Li  Li2  1  0.00000000  0.00000000  0.50000000  1
  Li  Li3  1  0.69228299  0.38456602  0.85975300  1
  Li  Li4  1  0.71295499  0.42591002  0.34367100  1
  U  U5  1  0.00000000  0.00000000  0.00000000  1
  O  O6  1  0.14503901  0.29007801  0.82531100  1
  O  O7  1  0.15792201  0.31584401  0.31749300  1
  O  O8  1  0.49999998  0.00000000  -0.00000000  1
  O  O9  1  0.84207799  0.68415603  0.68250700  1
  O  O10  1  0.85496099  0.70992203  0.17468900  1
