# generated using pymatgen
data_Li7S2F
_symmetry_space_group_name_H-M   'P 1'
_cell_length_a   6.10743475
_cell_length_b   6.10743475
_cell_length_c   7.25098610
_cell_angle_alpha   98.03175354
_cell_angle_beta   98.03175354
_cell_angle_gamma   119.98692322
_symmetry_Int_Tables_number   1
_chemical_formula_structural   Li7S2F
_chemical_formula_sum   'Li7 S2 F1'
_cell_volume   224.93363193
_cell_formula_units_Z   1
loop_
 _symmetry_equiv_pos_site_id
 _symmetry_equiv_pos_as_xyz
  1  'x, y, z'
loop_
 _atom_site_type_symbol
 _atom_site_label
 _atom_site_symmetry_multiplicity
 _atom_site_fract_x
 _atom_site_fract_y
 _atom_site_fract_z
 _atom_site_occupancy
  Li  Li0  1  0.33301001  0.66699000  0.99999996  1
  Li  Li1  1  0.66699000  0.33301000  0.99999995  1
  Li  Li2  1  0.94710901  0.94710900  0.84132993  1
  Li  Li3  1  0.05289100  0.05289100  0.15866999  1
  S  S4  1  0.24504100  0.24504100  0.76461997  1
  Li  Li5  1  0.75495901  0.75495900  0.23537995  1
  F  F6  1  0.92173900  0.59863800  0.76431394  1
  Li  Li7  1  0.59863801  0.92173900  0.76431394  1
  Li  Li8  1  0.07826101  0.40136200  0.23568598  1
  S  S9  1  0.40136199  0.07826100  0.23568598  1
