# generated using pymatgen
data_NaCr(SO4)2
_symmetry_space_group_name_H-M   'P 1'
_cell_length_a   4.75958157
_cell_length_b   4.75958157
_cell_length_c   7.29764605
_cell_angle_alpha   87.61814880
_cell_angle_beta   87.61814880
_cell_angle_gamma   65.72754669
_symmetry_Int_Tables_number   1
_chemical_formula_structural   NaCr(SO4)2
_chemical_formula_sum   'Na1 Cr1 S2 O8'
_cell_volume   150.51955108
_cell_formula_units_Z   1
loop_
 _symmetry_equiv_pos_site_id
 _symmetry_equiv_pos_as_xyz
  1  'x, y, z'
loop_
 _atom_site_type_symbol
 _atom_site_label
 _atom_site_symmetry_multiplicity
 _atom_site_fract_x
 _atom_site_fract_y
 _atom_site_fract_z
 _atom_site_occupancy
  Na  Na0  1  0.00000000  0.00000000  0.50000001  1
  Cr  Cr1  1  0.00000000  0.00000000  0.00000000  1
  S  S2  1  0.63544999  0.63545003  0.21476998  1
  S  S3  1  0.36455000  0.36455002  0.78523000  1
  O  O4  1  0.70865599  0.70865603  0.39210099  1
  O  O5  1  0.29134400  0.29134401  0.60789900  1
  O  O6  1  0.76147601  0.28914201  0.19901299  1
  O  O7  1  0.23852398  0.71085803  0.80098700  1
  O  O8  1  0.71085801  0.23852401  0.80098700  1
  O  O9  1  0.28914198  0.76147603  0.19901299  1
  O  O10  1  0.75794699  0.75794703  0.05419398  1
  O  O11  1  0.24205300  0.24205301  0.94580601  1
