# generated using pymatgen
data_Cs4NaMg3F12
_symmetry_space_group_name_H-M   'P 1'
_cell_length_a   6.53651524
_cell_length_b   6.53651524
_cell_length_c   9.46651554
_cell_angle_alpha   90.00000000
_cell_angle_beta   90.00000000
_cell_angle_gamma   90.00000000
_symmetry_Int_Tables_number   1
_chemical_formula_structural   Cs4NaMg3F12
_chemical_formula_sum   'Cs4 Na1 Mg3 F12'
_cell_volume   404.46664053
_cell_formula_units_Z   1
loop_
 _symmetry_equiv_pos_site_id
 _symmetry_equiv_pos_as_xyz
  1  'x, y, z'
loop_
 _atom_site_type_symbol
 _atom_site_label
 _atom_site_symmetry_multiplicity
 _atom_site_fract_x
 _atom_site_fract_y
 _atom_site_fract_z
 _atom_site_occupancy
  Cs  Cs0  1  0.00000000  0.49999998  0.25000001  1
  Cs  Cs1  1  0.00000000  0.49999998  0.75000004  1
  Cs  Cs2  1  0.49999998  0.00000000  0.25000001  1
  Cs  Cs3  1  0.49999998  0.00000000  0.75000004  1
  Na  Na4  1  0.00000000  0.00000000  0.50000002  1
  Mg  Mg5  1  0.49999998  0.49999998  -0.00000000  1
  Mg  Mg6  1  0.00000000  0.00000000  0.00000000  1
  Mg  Mg7  1  0.49999998  0.49999998  0.50000002  1
  F  F8  1  0.14277599  0.27740399  -0.00000000  1
  F  F9  1  0.85722397  0.72259597  -0.00000000  1
  F  F10  1  0.72259597  0.14277599  0.00000000  1
  F  F11  1  0.35722399  0.77740397  0.50000002  1
  F  F12  1  0.27740399  0.85722397  -0.00000000  1
  F  F13  1  0.64277598  0.22259599  0.50000002  1
  F  F14  1  0.77740397  0.64277598  0.50000002  1
  F  F15  1  0.22259599  0.35722399  0.50000002  1
  F  F16  1  0.00000000  0.00000000  0.21575001  1
  F  F17  1  0.00000000  0.00000000  0.78425004  1
  F  F18  1  0.49999998  0.49999998  0.28425001  1
  F  F19  1  0.49999998  0.49999998  0.71575003  1
