# generated using pymatgen
data_Y2SnBr3
_symmetry_space_group_name_H-M   'P 1'
_cell_length_a   4.20281410
_cell_length_b   5.61327982
_cell_length_c   9.81979847
_cell_angle_alpha   90.00000000
_cell_angle_beta   90.00000000
_cell_angle_gamma   90.00000000
_symmetry_Int_Tables_number   1
_chemical_formula_structural   Y2SnBr3
_chemical_formula_sum   'Y2 Sn1 Br3'
_cell_volume   231.66447854
_cell_formula_units_Z   1
loop_
 _symmetry_equiv_pos_site_id
 _symmetry_equiv_pos_as_xyz
  1  'x, y, z'
loop_
 _atom_site_type_symbol
 _atom_site_label
 _atom_site_symmetry_multiplicity
 _atom_site_fract_x
 _atom_site_fract_y
 _atom_site_fract_z
 _atom_site_occupancy
  Y  Y0  1  0.49999999  0.00000000  0.88364696  1
  Y  Y1  1  0.00000000  0.50000002  0.11635299  1
  Br  Br2  1  0.49999999  0.50000002  0.92074496  1
  Sn  Sn3  1  0.00000000  0.00000000  0.07925500  1
  Br  Br4  1  0.00000000  0.00000000  0.66144097  1
  Br  Br5  1  0.49999999  0.50000002  0.33855898  1
