# generated using pymatgen
data_MoF6
_symmetry_space_group_name_H-M   'P 1'
_cell_length_a   5.67938614
_cell_length_b   5.67938614
_cell_length_c   5.67938614
_cell_angle_alpha   109.47122192
_cell_angle_beta   109.47122192
_cell_angle_gamma   109.47122192
_symmetry_Int_Tables_number   1
_chemical_formula_structural   MoF6
_chemical_formula_sum   'Mo1 F6'
_cell_volume   141.02050970
_cell_formula_units_Z   1
loop_
 _symmetry_equiv_pos_site_id
 _symmetry_equiv_pos_as_xyz
  1  'x, y, z'
loop_
 _atom_site_type_symbol
 _atom_site_label
 _atom_site_symmetry_multiplicity
 _atom_site_fract_x
 _atom_site_fract_y
 _atom_site_fract_z
 _atom_site_occupancy
  Mo  Mo0  1  0.00000000  0.00000000  0.00000000  1
  F  F1  1  0.00000005  0.71510700  0.71510701  1
  F  F2  1  0.00000002  0.28489300  0.28489301  1
  F  F3  1  0.71510704  1.00000000  0.71510705  1
  F  F4  1  0.28489306  1.00000000  0.28489305  1
  F  F5  1  0.28489301  0.28489300  0.99999999  1
  F  F6  1  0.71510703  0.71510700  1.00000002  1
