# generated using pymatgen
data_W2Br3F5
_symmetry_space_group_name_H-M   'P 1'
_cell_length_a   3.87457895
_cell_length_b   7.72434616
_cell_length_c   8.32216358
_cell_angle_alpha   90.00000000
_cell_angle_beta   90.00000000
_cell_angle_gamma   90.00000000
_symmetry_Int_Tables_number   1
_chemical_formula_structural   W2Br3F5
_chemical_formula_sum   'W2 Br3 F5'
_cell_volume   249.07061392
_cell_formula_units_Z   1
loop_
 _symmetry_equiv_pos_site_id
 _symmetry_equiv_pos_as_xyz
  1  'x, y, z'
loop_
 _atom_site_type_symbol
 _atom_site_label
 _atom_site_symmetry_multiplicity
 _atom_site_fract_x
 _atom_site_fract_y
 _atom_site_fract_z
 _atom_site_occupancy
  W  W0  1  0.52883001  0.52318099  -0.00000000  1
  W  W1  1  0.47117001  0.02318100  0.00000000  1
  Br  Br2  1  0.49021701  0.54096299  0.27904101  1
  Br  Br3  1  0.49021701  0.54096299  0.72095904  1
  F  F4  1  0.50978301  0.04096300  0.27904101  1
  Br  Br5  1  0.50978301  0.04096300  0.72095904  1
  F  F6  1  0.00427400  0.53333499  -0.00000000  1
  F  F7  1  0.99572601  0.03333500  0.00000000  1
  F  F8  1  0.50180801  0.28355899  -0.00000000  1
  F  F9  1  0.49819201  0.78355898  -0.00000000  1
