# generated using pymatgen
data_Na2SO4
_symmetry_space_group_name_H-M   'P 1'
_cell_length_a   5.79473925
_cell_length_b   5.79473925
_cell_length_c   6.90161085
_cell_angle_alpha   102.71670532
_cell_angle_beta   102.71670532
_cell_angle_gamma   118.40121460
_symmetry_Int_Tables_number   1
_chemical_formula_structural   Na2SO4
_chemical_formula_sum   'Na4 S2 O8'
_cell_volume   184.05497967
_cell_formula_units_Z   2
loop_
 _symmetry_equiv_pos_site_id
 _symmetry_equiv_pos_as_xyz
  1  'x, y, z'
loop_
 _atom_site_type_symbol
 _atom_site_label
 _atom_site_symmetry_multiplicity
 _atom_site_fract_x
 _atom_site_fract_y
 _atom_site_fract_z
 _atom_site_occupancy
  Na  Na0  1  0.81482595  0.18517398  0.99999995  1
  Na  Na1  1  0.18517391  0.81482593  -0.00000008  1
  Na  Na2  1  0.06482591  0.93517392  0.49999992  1
  Na  Na3  1  0.43517393  0.56482595  0.49999993  1
  S  S4  1  0.49999993  0.49999995  0.99999994  1
  S  S5  1  0.74999995  0.24999998  0.49999994  1
  O  O6  1  0.76071396  0.08353199  0.63548596  1
  O  O7  1  0.44804597  0.12522799  0.36451397  1
  O  O8  1  0.91646794  0.23928598  0.36451393  1
  O  O9  1  0.87477191  0.55195395  0.63548591  1
  O  O10  1  0.48928592  0.66646794  0.86451392  1
  O  O11  1  0.80195391  0.62477194  0.13548590  1
  O  O12  1  0.37522797  0.19804598  0.86451397  1
  O  O13  1  0.33353194  0.51071395  0.13548594  1
