# generated using pymatgen
data_KNbBr8
_symmetry_space_group_name_H-M   'P 1'
_cell_length_a   6.88622808
_cell_length_b   7.61740208
_cell_length_c   7.84049940
_cell_angle_alpha   72.62069702
_cell_angle_beta   63.95067596
_cell_angle_gamma   63.12751770
_symmetry_Int_Tables_number   1
_chemical_formula_structural   KNbBr8
_chemical_formula_sum   'K1 Nb1 Br8'
_cell_volume   327.00941056
_cell_formula_units_Z   1
loop_
 _symmetry_equiv_pos_site_id
 _symmetry_equiv_pos_as_xyz
  1  'x, y, z'
loop_
 _atom_site_type_symbol
 _atom_site_label
 _atom_site_symmetry_multiplicity
 _atom_site_fract_x
 _atom_site_fract_y
 _atom_site_fract_z
 _atom_site_occupancy
  Nb  Nb0  1  0.30052699  0.00000000  0.00000000  1
  K  K1  1  0.69947299  0.00000000  0.00000001  1
  Br  Br2  1  0.28654599  0.24210401  0.71108900  1
  Br  Br3  1  0.23973897  0.75789602  0.28891100  1
  Br  Br4  1  0.71345396  0.75789602  0.28891101  1
  Br  Br5  1  0.76026098  0.24210401  0.71108900  1
  Br  Br6  1  0.70244396  0.76648403  0.82862800  1
  Br  Br7  1  0.29755599  0.23351601  0.17137200  1
  Br  Br8  1  0.83299498  0.19227301  0.14173701  1
  Br  Br9  1  0.16700497  0.80772703  0.85826300  1
