# generated using pymatgen
data_BiSbO
_symmetry_space_group_name_H-M   'P 1'
_cell_length_a   3.19106197
_cell_length_b   3.19106197
_cell_length_c   7.35547924
_cell_angle_alpha   77.47196198
_cell_angle_beta   77.47196198
_cell_angle_gamma   60.00000000
_symmetry_Int_Tables_number   1
_chemical_formula_structural   BiSbO
_chemical_formula_sum   'Bi1 Sb1 O1'
_cell_volume   62.79755008
_cell_formula_units_Z   1
loop_
 _symmetry_equiv_pos_site_id
 _symmetry_equiv_pos_as_xyz
  1  'x, y, z'
loop_
 _atom_site_type_symbol
 _atom_site_label
 _atom_site_symmetry_multiplicity
 _atom_site_fract_x
 _atom_site_fract_y
 _atom_site_fract_z
 _atom_site_occupancy
  Bi  Bi0  1  0.00066700  0.00066700  0.99799898  1
  Sb  Sb1  1  0.40760299  0.40760300  0.77719097  1
  O  O2  1  0.26042999  0.26043000  0.21870999  1
