# generated using pymatgen
data_CsK3(ClF2)2
_symmetry_space_group_name_H-M   'P 1'
_cell_length_a   7.21305799
_cell_length_b   9.79724598
_cell_length_c   10.02336025
_cell_angle_alpha   119.25652313
_cell_angle_beta   111.08867645
_cell_angle_gamma   90.00000000
_symmetry_Int_Tables_number   1
_chemical_formula_structural   CsK3(ClF2)2
_chemical_formula_sum   'Cs2 K6 Cl4 F8'
_cell_volume   562.97333230
_cell_formula_units_Z   2
loop_
 _symmetry_equiv_pos_site_id
 _symmetry_equiv_pos_as_xyz
  1  'x, y, z'
loop_
 _atom_site_type_symbol
 _atom_site_label
 _atom_site_symmetry_multiplicity
 _atom_site_fract_x
 _atom_site_fract_y
 _atom_site_fract_z
 _atom_site_occupancy
  K  K0  1  0.09171900  0.09171900  0.18343800  1
  K  K1  1  0.90828104  0.90828098  0.81656202  1
  K  K2  1  0.33310001  0.11405500  0.66620103  1
  K  K3  1  0.66690003  0.88594498  0.33379899  1
  K  K4  1  0.66689902  0.44785399  0.33379802  1
  K  K5  1  0.33310102  0.55214599  0.66620201  1
  Cs  Cs6  1  0.00000001  0.49999999  -0.00000003  1
  Cs  Cs7  1  0.75230402  0.10278200  0.00000003  1
  Cl  Cl8  1  0.24769601  0.10278200  0.00000001  1
  Cl  Cl9  1  0.75230403  0.89721798  1.00000002  1
  Cl  Cl10  1  0.24769602  0.89721798  -0.00000004  1
  Cl  Cl11  1  0.55101903  0.79074598  0.58149200  1
  F  F12  1  0.86465403  0.60584998  0.72930803  1
  F  F13  1  0.44898102  0.20925399  0.41850802  1
  F  F14  1  0.86465502  0.12345900  0.72930906  1
  F  F15  1  0.03047301  0.79074598  0.58149197  1
  F  F16  1  0.96952703  0.20925399  0.41850805  1
  F  F17  1  0.13534502  0.87654098  0.27069096  1
  F  F18  1  0.50000002  0.49999999  -0.00000000  1
  F  F19  1  0.13534601  0.39414999  0.27069199  1
