# generated using pymatgen
data_Cs3LiBr4
_symmetry_space_group_name_H-M   'P 1'
_cell_length_a   8.34970379
_cell_length_b   9.19210529
_cell_length_c   9.19210529
_cell_angle_alpha   100.83335114
_cell_angle_beta   90.00000000
_cell_angle_gamma   90.00000000
_symmetry_Int_Tables_number   1
_chemical_formula_structural   Cs3LiBr4
_chemical_formula_sum   'Cs6 Li2 Br8'
_cell_volume   692.93302017
_cell_formula_units_Z   2
loop_
 _symmetry_equiv_pos_site_id
 _symmetry_equiv_pos_as_xyz
  1  'x, y, z'
loop_
 _atom_site_type_symbol
 _atom_site_label
 _atom_site_symmetry_multiplicity
 _atom_site_fract_x
 _atom_site_fract_y
 _atom_site_fract_z
 _atom_site_occupancy
  Cs  Cs0  1  0.75000002  0.71370402  0.28629601  1
  Cs  Cs1  1  0.25000001  0.28629601  0.71370402  1
  Cs  Cs2  1  0.26785901  0.34683201  0.19966401  1
  Cs  Cs3  1  0.73214102  0.19966401  0.34683201  1
  Cs  Cs4  1  0.76785902  0.65316802  0.80033603  1
  Cs  Cs5  1  0.23214101  0.80033602  0.65316802  1
  Li  Li6  1  0.75000002  0.10485200  0.89514802  1
  Li  Li7  1  0.25000001  0.89514802  0.10485201  1
  Br  Br8  1  0.35280501  0.99884403  0.36773102  1
  Br  Br9  1  0.64719502  0.36773101  0.99884403  1
  Br  Br10  1  0.85280502  0.00115600  0.63226901  1
  Br  Br11  1  0.14719500  0.63226902  0.00115601  1
  Br  Br12  1  0.50000001  0.51034101  0.51034102  1
  Br  Br13  1  0.00000000  0.48965901  0.48965902  1
  Br  Br14  1  0.50000001  0.95190802  0.95190803  1
  Br  Br15  1  0.00000000  0.04809200  0.04809200  1
