# generated using pymatgen
data_K2CuSb
_symmetry_space_group_name_H-M   'P 1'
_cell_length_a   6.25840282
_cell_length_b   6.63151836
_cell_length_c   6.63151836
_cell_angle_alpha   106.19837189
_cell_angle_beta   90.00000000
_cell_angle_gamma   90.00000000
_symmetry_Int_Tables_number   1
_chemical_formula_structural   K2CuSb
_chemical_formula_sum   'K4 Cu2 Sb2'
_cell_volume   264.29997669
_cell_formula_units_Z   2
loop_
 _symmetry_equiv_pos_site_id
 _symmetry_equiv_pos_as_xyz
  1  'x, y, z'
loop_
 _atom_site_type_symbol
 _atom_site_label
 _atom_site_symmetry_multiplicity
 _atom_site_fract_x
 _atom_site_fract_y
 _atom_site_fract_z
 _atom_site_occupancy
  K  K0  1  0.25000001  0.32419600  0.98519299  1
  K  K1  1  0.75000002  0.67580399  0.01480697  1
  K  K2  1  0.75000002  0.01480700  0.67580400  1
  K  K3  1  0.25000001  0.98519299  0.32419596  1
  Cu  Cu4  1  0.50000001  0.50000000  0.49999998  1
  Cu  Cu5  1  -0.00000000  0.50000000  0.49999998  1
  Sb  Sb6  1  0.25000001  0.74943999  0.74943997  1
  Sb  Sb7  1  0.75000002  0.25056000  0.25055999  1
