# generated using pymatgen
data_LiDySe2
_symmetry_space_group_name_H-M   'P 1'
_cell_length_a   5.62113190
_cell_length_b   5.62113190
_cell_length_c   7.00583839
_cell_angle_alpha   113.65164185
_cell_angle_beta   113.65164185
_cell_angle_gamma   90.00000000
_symmetry_Int_Tables_number   1
_chemical_formula_structural   LiDySe2
_chemical_formula_sum   'Li2 Dy2 Se4'
_cell_volume   182.28887262
_cell_formula_units_Z   2
loop_
 _symmetry_equiv_pos_site_id
 _symmetry_equiv_pos_as_xyz
  1  'x, y, z'
loop_
 _atom_site_type_symbol
 _atom_site_label
 _atom_site_symmetry_multiplicity
 _atom_site_fract_x
 _atom_site_fract_y
 _atom_site_fract_z
 _atom_site_occupancy
  Li  Li0  1  0.24999998  0.75000000  0.49999995  1
  Li  Li1  1  0.49999999  0.50000000  -0.00000003  1
  Dy  Dy2  1  0.00000000  0.00000000  0.00000000  1
  Dy  Dy3  1  0.75000000  0.25000000  0.49999996  1
  Se  Se4  1  0.50338800  0.00338800  0.00677599  1
  Se  Se5  1  0.99661199  0.49661200  0.99322393  1
  Se  Se6  1  0.75338798  0.75338800  0.50677594  1
  Se  Se7  1  0.24661199  0.24661200  0.49322397  1
