# generated using pymatgen
data_Cu2Mo3IO14
_symmetry_space_group_name_H-M   'P 1'
_cell_length_a   6.38346195
_cell_length_b   7.89743710
_cell_length_c   7.96974564
_cell_angle_alpha   90.00000000
_cell_angle_beta   105.67597961
_cell_angle_gamma   90.00000000
_symmetry_Int_Tables_number   1
_chemical_formula_structural   Cu2Mo3IO14
_chemical_formula_sum   'Cu2 Mo3 I1 O14'
_cell_volume   386.83458503
_cell_formula_units_Z   1
loop_
 _symmetry_equiv_pos_site_id
 _symmetry_equiv_pos_as_xyz
  1  'x, y, z'
loop_
 _atom_site_type_symbol
 _atom_site_label
 _atom_site_symmetry_multiplicity
 _atom_site_fract_x
 _atom_site_fract_y
 _atom_site_fract_z
 _atom_site_occupancy
  Cu  Cu0  1  0.07534000  0.18102800  0.66079602  1
  Cu  Cu1  1  0.92466001  0.68102799  0.33920401  1
  Mo  Mo2  1  0.92247301  0.12101700  0.20053001  1
  Mo  Mo3  1  0.07752700  0.62101699  0.79947002  1
  I  I4  1  0.38396600  0.68365899  0.22726201  1
  Mo  Mo5  1  0.61603401  0.18365900  0.77273802  1
  O  O6  1  0.58625501  0.36808700  0.65455102  1
  O  O7  1  0.41374500  0.86808699  0.34544901  1
  O  O8  1  0.05151200  0.71316899  0.58956801  1
  O  O9  1  0.94848801  0.21316900  0.41043201  1
  O  O10  1  0.36048100  0.07227300  0.71552902  1
  O  O11  1  0.63951901  0.57227299  0.28447101  1
  O  O12  1  0.13160800  0.39861200  0.78882902  1
  O  O13  1  0.86839201  0.89861199  0.21117101  1
  O  O14  1  0.83533301  0.06488200  0.72769402  1
  O  O15  1  0.16466700  0.56488199  0.27230601  1
  O  O16  1  0.70198301  0.22897200  0.01838800  1
  O  O17  1  0.29801700  0.72897199  0.98161203  1
  O  O18  1  0.16413500  0.14324600  0.14699300  1
  O  O19  1  0.83586501  0.64324599  0.85300702  1
