# generated using pymatgen
data_Y2Br5
_symmetry_space_group_name_H-M   'P 1'
_cell_length_a   7.52916431
_cell_length_b   7.52916431
_cell_length_c   7.52916431
_cell_angle_alpha   70.80173492
_cell_angle_beta   70.39212799
_cell_angle_gamma   109.60787201
_symmetry_Int_Tables_number   1
_chemical_formula_structural   Y2Br5
_chemical_formula_sum   'Y4 Br10'
_cell_volume   328.55723201
_cell_formula_units_Z   2
loop_
 _symmetry_equiv_pos_site_id
 _symmetry_equiv_pos_as_xyz
  1  'x, y, z'
loop_
 _atom_site_type_symbol
 _atom_site_label
 _atom_site_symmetry_multiplicity
 _atom_site_fract_x
 _atom_site_fract_y
 _atom_site_fract_z
 _atom_site_occupancy
  Y  Y0  1  0.50000001  0.25000000  0.24999998  1
  Y  Y1  1  0.00000000  0.00000000  0.00000000  1
  Y  Y2  1  0.88022104  0.75522101  0.62499995  1
  Y  Y3  1  0.38022103  0.62500001  0.49477897  1
  Br  Br4  1  0.11977903  0.49477901  0.12499998  1
  Br  Br5  1  0.61977901  0.12500000  0.75522097  1
  Br  Br6  1  0.24782505  0.87384401  0.73165996  1
  Br  Br7  1  0.25217505  0.87601901  0.22948597  1
  Br  Br8  1  0.60550404  0.73166001  0.02051496  1
  Br  Br9  1  0.74782503  0.51834001  0.37615596  1
  Br  Br10  1  0.89449602  0.37615701  0.87601896  1
  Br  Br11  1  0.10550401  0.22948500  0.51833999  1
  Br  Br12  1  0.39449602  0.37398101  0.87384297  1
  Br  Br13  1  0.75217500  0.02051400  0.37398098  1
