# generated using pymatgen
data_NbSnS6
_symmetry_space_group_name_H-M   'P 1'
_cell_length_a   5.03627396
_cell_length_b   6.81471539
_cell_length_c   9.60749245
_cell_angle_alpha   89.95954895
_cell_angle_beta   83.17267609
_cell_angle_gamma   89.98667908
_symmetry_Int_Tables_number   1
_chemical_formula_structural   NbSnS6
_chemical_formula_sum   'Nb2 Sn2 S12'
_cell_volume   327.39830265
_cell_formula_units_Z   2
loop_
 _symmetry_equiv_pos_site_id
 _symmetry_equiv_pos_as_xyz
  1  'x, y, z'
loop_
 _atom_site_type_symbol
 _atom_site_label
 _atom_site_symmetry_multiplicity
 _atom_site_fract_x
 _atom_site_fract_y
 _atom_site_fract_z
 _atom_site_occupancy
  Nb  Nb0  1  0.71806295  0.85070197  0.64093496  1
  Nb  Nb1  1  0.71563298  0.40196299  0.64947697  1
  Sn  Sn2  1  0.28193699  0.14929800  0.35906499  1
  Sn  Sn3  1  0.28436696  0.59803698  0.35052298  1
  S  S4  1  0.52810998  0.36826799  0.17407697  1
  S  S5  1  0.75928500  0.13390900  0.45853698  1
  S  S6  1  0.76403897  0.61468598  0.43977896  1
  S  S7  1  0.23596098  0.38531399  0.56022099  1
  S  S8  1  0.87160297  0.63122598  0.82960296  1
  S  S9  1  0.24071494  0.86609097  0.54146297  1
  S  S10  1  0.51930095  0.87738597  0.19903096  1
  S  S11  1  0.48069900  0.12261400  0.80096899  1
  S  S12  1  0.47188996  0.63173198  0.82592297  1
  S  S13  1  0.12839698  0.36877399  0.17039699  1
  S  S14  1  0.11907694  0.87714797  0.19816497  1
  S  S15  1  0.88092301  0.12285200  0.80183498  1
