# generated using pymatgen
data_KNaAu2O5
_symmetry_space_group_name_H-M   'P 1'
_cell_length_a   5.63071299
_cell_length_b   5.63071299
_cell_length_c   7.84965801
_cell_angle_alpha   90.00000000
_cell_angle_beta   90.00000000
_cell_angle_gamma   90.00000000
_symmetry_Int_Tables_number   1
_chemical_formula_structural   KNaAu2O5
_chemical_formula_sum   'K2 Na2 Au4 O10'
_cell_volume   248.87284784
_cell_formula_units_Z   2
loop_
 _symmetry_equiv_pos_site_id
 _symmetry_equiv_pos_as_xyz
  1  'x, y, z'
loop_
 _atom_site_type_symbol
 _atom_site_label
 _atom_site_symmetry_multiplicity
 _atom_site_fract_x
 _atom_site_fract_y
 _atom_site_fract_z
 _atom_site_occupancy
  K  K0  1  0.00000000  0.00000000  0.00000000  1
  K  K1  1  0.50000000  0.50000000  -0.00000000  1
  Na  Na2  1  0.00000000  0.00000000  0.50000000  1
  Na  Na3  1  0.50000000  0.50000000  0.50000000  1
  Au  Au4  1  0.00000000  0.50000000  0.25659100  1
  Au  Au5  1  0.50000000  0.00000000  0.74340900  1
  Au  Au6  1  0.00000000  0.50000000  0.72532500  1
  Au  Au7  1  0.50000000  0.00000000  0.27467500  1
  O  O8  1  0.24347300  0.74347300  0.67978400  1
  O  O9  1  0.75652700  0.74347300  0.67978400  1
  O  O10  1  0.24347300  0.25652700  0.67978400  1
  O  O11  1  0.75652700  0.25652700  0.67978400  1
  O  O12  1  0.25652700  0.75652700  0.32021600  1
  O  O13  1  0.74347300  0.75652700  0.32021600  1
  O  O14  1  0.25652700  0.24347300  0.32021600  1
  O  O15  1  0.74347300  0.24347300  0.32021600  1
  O  O16  1  0.00000000  0.50000000  0.99315100  1
  O  O17  1  0.50000000  0.00000000  0.00684900  1
