# generated using pymatgen
data_NaV2Bi3O10
_symmetry_space_group_name_H-M   'P 1'
_cell_length_a   5.64395809
_cell_length_b   7.22026443
_cell_length_c   7.24272680
_cell_angle_alpha   107.07594299
_cell_angle_beta   112.69541931
_cell_angle_gamma   96.33186340
_symmetry_Int_Tables_number   1
_chemical_formula_structural   NaV2Bi3O10
_chemical_formula_sum   'Na1 V2 Bi3 O10'
_cell_volume   251.78623388
_cell_formula_units_Z   1
loop_
 _symmetry_equiv_pos_site_id
 _symmetry_equiv_pos_as_xyz
  1  'x, y, z'
loop_
 _atom_site_type_symbol
 _atom_site_label
 _atom_site_symmetry_multiplicity
 _atom_site_fract_x
 _atom_site_fract_y
 _atom_site_fract_z
 _atom_site_occupancy
  Na  Na0  1  0.69682092  0.62383297  0.80882097  1
  V  V1  1  0.65095797  0.15685499  0.85383701  1
  V  V2  1  0.34536591  0.84288795  0.13989994  1
  Bi  Bi3  1  0.91342496  0.24681799  0.47976699  1
  Bi  Bi4  1  0.09073892  0.75617996  0.53378296  1
  Bi  Bi5  1  0.30662696  0.38412698  0.21251798  1
  O  O6  1  0.74246194  0.49811497  0.45634097  1
  O  O7  1  0.24918195  0.49025197  0.51888798  1
  O  O8  1  0.84200895  0.30741198  0.78338199  1
  O  O9  1  0.16597593  0.68749696  0.21875196  1
  O  O10  1  0.43416998  0.10475599  0.29856700  1
  O  O11  1  0.55068690  0.90277995  0.69296195  1
  O  O12  1  0.86998296  0.19597699  0.12443598  1
  O  O13  1  0.14434992  0.79942496  0.87272797  1
  O  O14  1  0.62829491  0.76990196  0.16891794  1
  O  O15  1  0.36894897  0.23318199  0.83640100  1
