# generated using pymatgen
data_Cs2GeB4O9
_symmetry_space_group_name_H-M   'P 1'
_cell_length_a   6.84209585
_cell_length_b   6.99205160
_cell_length_c   6.99252415
_cell_angle_alpha   61.19871902
_cell_angle_beta   87.86114502
_cell_angle_gamma   118.07421112
_symmetry_Int_Tables_number   1
_chemical_formula_structural   Cs2GeB4O9
_chemical_formula_sum   'Cs2 Ge1 B4 O9'
_cell_volume   243.10040551
_cell_formula_units_Z   1
loop_
 _symmetry_equiv_pos_site_id
 _symmetry_equiv_pos_as_xyz
  1  'x, y, z'
loop_
 _atom_site_type_symbol
 _atom_site_label
 _atom_site_symmetry_multiplicity
 _atom_site_fract_x
 _atom_site_fract_y
 _atom_site_fract_z
 _atom_site_occupancy
  Cs  Cs0  1  0.25990304  0.51980603  0.74009698  1
  Cs  Cs1  1  0.49016707  0.98033405  0.00983300  1
  Ge  Ge2  1  0.74588304  0.49176603  0.25411698  1
  B  B3  1  0.86551007  0.89168805  0.33562497  1
  B  B4  1  0.02617806  0.89168805  0.77268699  1
  B  B5  1  0.24943001  0.16618901  0.35470598  1
  B  B6  1  0.91675902  0.16618901  0.47910496  1
  O  O7  1  0.77079907  0.99452005  0.40248998  1
  O  O8  1  0.22372107  0.99452005  0.60298999  1
  O  O9  1  0.09987406  0.98143205  0.28502300  1
  O  O10  1  0.88155808  0.98143205  0.73354496  1
  O  O11  1  0.70096705  0.68797604  0.32024998  1
  O  O12  1  0.98700906  0.68797604  0.99177395  1
  O  O13  1  0.49375103  0.31566302  0.20305598  1
  O  O14  1  0.82191303  0.31566302  0.48128097  1
  O  O15  1  0.16481102  0.32962202  0.33518899  1
