# generated using pymatgen
data_SbOF3
_symmetry_space_group_name_H-M   'P 1'
_cell_length_a   6.73879719
_cell_length_b   7.73907280
_cell_length_c   8.42964649
_cell_angle_alpha   98.50379181
_cell_angle_beta   111.44393921
_cell_angle_gamma   109.89599609
_symmetry_Int_Tables_number   1
_chemical_formula_structural   SbOF3
_chemical_formula_sum   'Sb4 O4 F12'
_cell_volume   365.67226118
_cell_formula_units_Z   4
loop_
 _symmetry_equiv_pos_site_id
 _symmetry_equiv_pos_as_xyz
  1  'x, y, z'
loop_
 _atom_site_type_symbol
 _atom_site_label
 _atom_site_symmetry_multiplicity
 _atom_site_fract_x
 _atom_site_fract_y
 _atom_site_fract_z
 _atom_site_occupancy
  Sb  Sb0  1  0.51385094  0.51913697  0.20820498  1
  Sb  Sb1  1  0.33696098  0.11198499  0.39430201  1
  Sb  Sb2  1  0.66303889  0.88801494  0.60569796  1
  Sb  Sb3  1  0.48614894  0.48086297  0.79179499  1
  O  O4  1  0.59990391  0.76782395  0.36469897  1
  O  O5  1  0.47258596  0.34873298  0.34918100  1
  O  O6  1  0.52741392  0.65126696  0.65081898  1
  O  O7  1  0.40009597  0.23217598  0.63530101  1
  F  F8  1  0.55512392  0.67395995  0.02617997  1
  F  F9  1  0.28975089  0.94326694  0.18353694  1
  F  F10  1  0.19007595  0.45875397  0.08607997  1
  F  F11  1  0.82771293  0.55351496  0.27264399  1
  F  F12  1  0.98948388  0.95545894  0.69765197  1
  F  F13  1  0.67947398  0.12249599  0.50822902  1
  F  F14  1  0.32052590  0.87750294  0.49177095  1
  F  F15  1  0.01051599  0.04454100  0.30234800  1
  F  F16  1  0.17228695  0.44648497  0.72735598  1
  F  F17  1  0.80992393  0.54124596  0.91392000  1
  F  F18  1  0.71024899  0.05673300  0.81646304  1
  F  F19  1  0.44487596  0.32603998  0.97382001  1
