# generated using pymatgen
data_Mg3(NiO4)2
_symmetry_space_group_name_H-M   'P 1'
_cell_length_a   4.94401360
_cell_length_b   5.78500605
_cell_length_c   5.81238365
_cell_angle_alpha   60.16156769
_cell_angle_beta   76.78771210
_cell_angle_gamma   89.99968719
_symmetry_Int_Tables_number   1
_chemical_formula_structural   Mg3(NiO4)2
_chemical_formula_sum   'Mg3 Ni2 O8'
_cell_volume   139.10692357
_cell_formula_units_Z   1
loop_
 _symmetry_equiv_pos_site_id
 _symmetry_equiv_pos_as_xyz
  1  'x, y, z'
loop_
 _atom_site_type_symbol
 _atom_site_label
 _atom_site_symmetry_multiplicity
 _atom_site_fract_x
 _atom_site_fract_y
 _atom_site_fract_z
 _atom_site_occupancy
  Mg  Mg0  1  0.37804696  0.28477000  0.43061901  1
  Mg  Mg1  1  0.62206792  0.71527899  0.56943802  1
  Mg  Mg2  1  0.49994489  0.99995299  0.00008102  1
  Ni  Ni3  1  0.99997894  0.25753400  0.00001003  1
  Ni  Ni4  1  0.99999990  0.74247099  0.99992103  1
  O  O5  1  0.88738396  0.10237900  0.79519302  1
  O  O6  1  0.61943197  0.11113000  0.23005702  1
  O  O7  1  0.61942092  0.65883999  0.22998602  1
  O  O8  1  0.08927896  0.39431700  0.21142900  1
  O  O9  1  0.91107492  0.60580999  0.78827303  1
  O  O10  1  0.38051396  0.34108800  0.77012701  1
  O  O11  1  0.38048991  0.88886599  0.77002601  1
  O  O12  1  0.11236592  0.89756399  0.20483901  1
