# generated using pymatgen
data_W(OF)2
_symmetry_space_group_name_H-M   'P 1'
_cell_length_a   3.88079691
_cell_length_b   3.88079691
_cell_length_c   9.49349213
_cell_angle_alpha   90.00000000
_cell_angle_beta   90.00000000
_cell_angle_gamma   89.88764954
_symmetry_Int_Tables_number   1
_chemical_formula_structural   W(OF)2
_chemical_formula_sum   'W2 O4 F4'
_cell_volume   142.97726693
_cell_formula_units_Z   2
loop_
 _symmetry_equiv_pos_site_id
 _symmetry_equiv_pos_as_xyz
  1  'x, y, z'
loop_
 _atom_site_type_symbol
 _atom_site_label
 _atom_site_symmetry_multiplicity
 _atom_site_fract_x
 _atom_site_fract_y
 _atom_site_fract_z
 _atom_site_occupancy
  W  W0  1  0.72018401  0.27981600  0.25000000  1
  W  W1  1  0.27981602  0.72018400  0.74999999  1
  O  O2  1  0.75406102  0.74323400  0.74999999  1
  O  O3  1  0.74323402  0.75406100  0.25000000  1
  O  O4  1  0.25676601  0.24593900  0.74999999  1
  O  O5  1  0.24593901  0.25676600  0.25000000  1
  F  F6  1  0.75878501  0.24121500  0.05155100  1
  F  F7  1  0.75878501  0.24121500  0.44844899  1
  F  F8  1  0.24121502  0.75878500  0.55155099  1
  F  F9  1  0.24121502  0.75878500  0.94844899  1
