# generated using pymatgen
data_LiMnF4
_symmetry_space_group_name_H-M   'P 1'
_cell_length_a   5.07609415
_cell_length_b   5.32783222
_cell_length_c   6.33041334
_cell_angle_alpha   65.49640656
_cell_angle_beta   72.80683899
_cell_angle_gamma   89.85070038
_symmetry_Int_Tables_number   1
_chemical_formula_structural   LiMnF4
_chemical_formula_sum   'Li2 Mn2 F8'
_cell_volume   147.39788652
_cell_formula_units_Z   2
loop_
 _symmetry_equiv_pos_site_id
 _symmetry_equiv_pos_as_xyz
  1  'x, y, z'
loop_
 _atom_site_type_symbol
 _atom_site_label
 _atom_site_symmetry_multiplicity
 _atom_site_fract_x
 _atom_site_fract_y
 _atom_site_fract_z
 _atom_site_occupancy
  Li  Li0  1  0.25734699  0.86296697  0.99376800  1
  Li  Li1  1  0.74265299  0.13703299  0.00623197  1
  Mn  Mn2  1  0.00000000  0.00000000  0.50000000  1
  Mn  Mn3  1  0.49999999  0.49999998  0.49999999  1
  F  F4  1  0.50366499  0.22651899  0.80147498  1
  F  F5  1  0.64325099  0.78759297  0.64260599  1
  F  F6  1  0.00162200  0.97748796  0.80268302  1
  F  F7  1  0.14691400  0.57530498  0.63910000  1
  F  F8  1  0.85308599  0.42469498  0.36089997  1
  F  F9  1  0.99837799  0.02251200  0.19731695  1
  F  F10  1  0.35674899  0.21240699  0.35739399  1
  F  F11  1  0.49633499  0.77348097  0.19852500  1
