# generated using pymatgen
data_Bi2Se3Br
_symmetry_space_group_name_H-M   'P 1'
_cell_length_a   4.20809984
_cell_length_b   8.88705063
_cell_length_c   11.07134247
_cell_angle_alpha   90.00000000
_cell_angle_beta   90.00000000
_cell_angle_gamma   90.00000000
_symmetry_Int_Tables_number   1
_chemical_formula_structural   Bi2Se3Br
_chemical_formula_sum   'Bi4 Se6 Br2'
_cell_volume   414.04159665
_cell_formula_units_Z   2
loop_
 _symmetry_equiv_pos_site_id
 _symmetry_equiv_pos_as_xyz
  1  'x, y, z'
loop_
 _atom_site_type_symbol
 _atom_site_label
 _atom_site_symmetry_multiplicity
 _atom_site_fract_x
 _atom_site_fract_y
 _atom_site_fract_z
 _atom_site_occupancy
  Bi  Bi0  1  0.25000001  0.89007404  0.87614896  1
  Bi  Bi1  1  0.75000003  0.10992600  0.12385099  1
  Bi  Bi2  1  0.25000001  0.39007402  0.62385097  1
  Bi  Bi3  1  0.75000003  0.60992603  0.37614898  1
  Se  Se4  1  0.75000003  0.83821504  0.03509400  1
  Se  Se5  1  0.25000001  0.66178503  0.53509398  1
  Se  Se6  1  0.75000003  0.33821501  0.46490598  1
  Se  Se7  1  0.25000001  0.16178501  0.96490596  1
  Se  Se8  1  0.25000001  0.97879204  0.31692699  1
  Br  Br9  1  0.75000003  0.52120802  0.81692697  1
  Se  Se10  1  0.25000001  0.47879202  0.18307299  1
  Br  Br11  1  0.75000003  0.02120800  0.68307297  1
