# generated using pymatgen
data_Tl5Sn3S4I3Br5
_symmetry_space_group_name_H-M   'P 1'
_cell_length_a   4.32292795
_cell_length_b   10.24003601
_cell_length_c   16.43102074
_cell_angle_alpha   90.00000000
_cell_angle_beta   90.00000000
_cell_angle_gamma   90.00000000
_symmetry_Int_Tables_number   1
_chemical_formula_structural   Tl5Sn3S4I3Br5
_chemical_formula_sum   'Tl5 Sn3 S4 I3 Br5'
_cell_volume   727.35097456
_cell_formula_units_Z   1
loop_
 _symmetry_equiv_pos_site_id
 _symmetry_equiv_pos_as_xyz
  1  'x, y, z'
loop_
 _atom_site_type_symbol
 _atom_site_label
 _atom_site_symmetry_multiplicity
 _atom_site_fract_x
 _atom_site_fract_y
 _atom_site_fract_z
 _atom_site_occupancy
  Tl  Tl0  1  0.25000000  0.16208500  0.05579400  1
  Tl  Tl1  1  0.75000001  0.83791500  0.94420602  1
  Tl  Tl2  1  0.25000000  0.66208500  0.44420601  1
  Tl  Tl3  1  0.75000001  0.33791500  0.55579401  1
  Sn  Sn4  1  0.25000000  0.44366900  0.82473201  1
  Tl  Tl5  1  0.75000001  0.55633100  0.17526800  1
  Sn  Sn6  1  0.25000000  0.94366900  0.67526801  1
  Sn  Sn7  1  0.75000001  0.05633100  0.32473201  1
  Br  Br8  1  0.75000001  0.47997400  0.39782101  1
  S  S9  1  0.25000000  0.52002600  0.60217901  1
  I  I10  1  0.75000001  0.97997400  0.10217900  1
  I  I11  1  0.25000000  0.02002600  0.89782101  1
  S  S12  1  0.75000001  0.21958300  0.70998201  1
  Br  Br13  1  0.25000000  0.78041700  0.29001800  1
  S  S14  1  0.75000001  0.71958300  0.79001801  1
  S  S15  1  0.25000000  0.28041700  0.20998200  1
  I  I16  1  0.75000001  0.32699200  0.99439302  1
  Br  Br17  1  0.25000000  0.67300800  0.00560700  1
  Br  Br18  1  0.75000001  0.82699200  0.50560701  1
  Br  Br19  1  0.25000000  0.17300800  0.49439301  1
