# generated using pymatgen
data_LiSbS4
_symmetry_space_group_name_H-M   'P 1'
_cell_length_a   3.79749107
_cell_length_b   3.79749107
_cell_length_c   6.21707916
_cell_angle_alpha   90.00000000
_cell_angle_beta   90.00000000
_cell_angle_gamma   90.00000000
_symmetry_Int_Tables_number   1
_chemical_formula_structural   LiSbS4
_chemical_formula_sum   'Li1 Sb1 S4'
_cell_volume   89.65611597
_cell_formula_units_Z   1
loop_
 _symmetry_equiv_pos_site_id
 _symmetry_equiv_pos_as_xyz
  1  'x, y, z'
loop_
 _atom_site_type_symbol
 _atom_site_label
 _atom_site_symmetry_multiplicity
 _atom_site_fract_x
 _atom_site_fract_y
 _atom_site_fract_z
 _atom_site_occupancy
  Li  Li0  1  0.00000000  0.49999999  0.79068398  1
  Sb  Sb1  1  0.49999999  0.00000000  0.20931599  1
  S  S2  1  0.00000000  0.00000000  0.00000000  1
  S  S3  1  0.49999999  0.49999999  0.00000000  1
  S  S4  1  0.49999999  0.00000000  0.64355298  1
  S  S5  1  0.00000000  0.49999999  0.35644699  1
