# generated using pymatgen
data_Cs4KLiGa2F12
_symmetry_space_group_name_H-M   'P 1'
_cell_length_a   6.43429565
_cell_length_b   6.43429565
_cell_length_c   11.05654240
_cell_angle_alpha   73.08381653
_cell_angle_beta   73.08381653
_cell_angle_gamma   60.00000381
_symmetry_Int_Tables_number   1
_chemical_formula_structural   Cs4KLiGa2F12
_chemical_formula_sum   'Cs4 K1 Li1 Ga2 F12'
_cell_volume   373.37185272
_cell_formula_units_Z   1
loop_
 _symmetry_equiv_pos_site_id
 _symmetry_equiv_pos_as_xyz
  1  'x, y, z'
loop_
 _atom_site_type_symbol
 _atom_site_label
 _atom_site_symmetry_multiplicity
 _atom_site_fract_x
 _atom_site_fract_y
 _atom_site_fract_z
 _atom_site_occupancy
  Cs  Cs0  1  0.28555802  0.28555800  0.14332599  1
  Cs  Cs1  1  0.71444204  0.71444200  0.85667395  1
  Cs  Cs2  1  0.86700105  0.86700101  0.39899696  1
  Cs  Cs3  1  0.13299901  0.13299900  0.60100297  1
  K  K4  1  0.00000000  0.00000000  0.00000000  1
  Li  Li5  1  0.50000003  0.50000000  0.49999997  1
  Ga  Ga6  1  0.41563603  0.41563600  0.75309196  1
  Ga  Ga7  1  0.58436404  0.58436400  0.24690798  1
  F  F8  1  0.76112403  0.33244300  0.14530898  1
  F  F9  1  0.66755702  0.23887600  0.85469096  1
  F  F10  1  0.33244304  0.76112400  0.14530898  1
  F  F11  1  0.76112405  0.76112400  0.14530898  1
  F  F12  1  0.23887601  0.23887600  0.85469096  1
  F  F13  1  0.23887603  0.66755700  0.85469095  1
  F  F14  1  0.40808602  0.40808600  0.36576898  1
  F  F15  1  0.59191402  0.18194100  0.63423097  1
  F  F16  1  0.59191404  0.59191400  0.63423096  1
  F  F17  1  0.18194103  0.59191400  0.63423096  1
  F  F18  1  0.81805903  0.40808600  0.36576897  1
  F  F19  1  0.40808604  0.81805900  0.36576897  1
