# generated using pymatgen
data_BiH3O2
_symmetry_space_group_name_H-M   'P 1'
_cell_length_a   4.37496614
_cell_length_b   6.12863398
_cell_length_c   6.92679358
_cell_angle_alpha   90.00000000
_cell_angle_beta   97.74807739
_cell_angle_gamma   90.00000000
_symmetry_Int_Tables_number   1
_chemical_formula_structural   BiH3O2
_chemical_formula_sum   'Bi2 H6 O4'
_cell_volume   184.02951908
_cell_formula_units_Z   2
loop_
 _symmetry_equiv_pos_site_id
 _symmetry_equiv_pos_as_xyz
  1  'x, y, z'
loop_
 _atom_site_type_symbol
 _atom_site_label
 _atom_site_symmetry_multiplicity
 _atom_site_fract_x
 _atom_site_fract_y
 _atom_site_fract_z
 _atom_site_occupancy
  Bi  Bi0  1  0.32664599  0.75000000  0.96783602  1
  Bi  Bi1  1  0.67335398  0.25000000  0.03216402  1
  H  H2  1  0.36653899  0.75000000  0.57487402  1
  H  H3  1  0.63346098  0.25000000  0.42512602  1
  H  H4  1  0.66858798  0.88473000  0.68817803  1
  H  H5  1  0.33141199  0.38473000  0.31182201  1
  H  H6  1  0.33141199  0.11527000  0.31182201  1
  H  H7  1  0.66858798  0.61527000  0.68817803  1
  O  O8  1  0.98243097  0.75000000  0.23361303  1
  O  O9  1  0.01756900  0.25000000  0.76638701  1
  O  O10  1  0.53097399  0.75000000  0.69517102  1
  O  O11  1  0.46902599  0.25000000  0.30482902  1
