# generated using pymatgen
data_CsBa2TeHPt3Cl4
_symmetry_space_group_name_H-M   'P 1'
_cell_length_a   7.20784187
_cell_length_b   7.20784187
_cell_length_c   7.20784187
_cell_angle_alpha   60.00000000
_cell_angle_beta   60.00000000
_cell_angle_gamma   60.00000000
_symmetry_Int_Tables_number   1
_chemical_formula_structural   CsBa2TeHPt3Cl4
_chemical_formula_sum   'Cs1 Ba2 Te1 H1 Pt3 Cl4'
_cell_volume   264.78949633
_cell_formula_units_Z   1
loop_
 _symmetry_equiv_pos_site_id
 _symmetry_equiv_pos_as_xyz
  1  'x, y, z'
loop_
 _atom_site_type_symbol
 _atom_site_label
 _atom_site_symmetry_multiplicity
 _atom_site_fract_x
 _atom_site_fract_y
 _atom_site_fract_z
 _atom_site_occupancy
  Cs  Cs0  1  0.45717601  0.84760802  0.84760802  1
  Ba  Ba1  1  0.84760802  0.84760802  0.45717601  1
  Ba  Ba2  1  0.84760802  0.45717601  0.84760802  1
  Te  Te3  1  0.84760802  0.84760802  0.84760802  1
  Pt  Pt4  1  0.12220900  0.12220900  0.12220900  1
  Cl  Cl5  1  0.12220900  0.63337302  0.12220900  1
  Cl  Cl6  1  0.12220900  0.12220900  0.63337302  1
  Cl  Cl7  1  0.63337302  0.12220900  0.12220900  1
  Cl  Cl8  1  0.13569200  0.62143602  0.62143602  1
  Pt  Pt9  1  0.62143702  0.62143602  0.13569100  1
  Pt  Pt10  1  0.62143702  0.13569100  0.62143602  1
  H  H11  1  0.62143702  0.62143602  0.62143602  1
