# generated using pymatgen
data_BiBr2
_symmetry_space_group_name_H-M   'P 1'
_cell_length_a   4.48051691
_cell_length_b   4.48051691
_cell_length_c   8.24558926
_cell_angle_alpha   90.00000000
_cell_angle_beta   90.00000000
_cell_angle_gamma   90.00000000
_symmetry_Int_Tables_number   1
_chemical_formula_structural   BiBr2
_chemical_formula_sum   'Bi2 Br4'
_cell_volume   165.53046641
_cell_formula_units_Z   2
loop_
 _symmetry_equiv_pos_site_id
 _symmetry_equiv_pos_as_xyz
  1  'x, y, z'
loop_
 _atom_site_type_symbol
 _atom_site_label
 _atom_site_symmetry_multiplicity
 _atom_site_fract_x
 _atom_site_fract_y
 _atom_site_fract_z
 _atom_site_occupancy
  Bi  Bi0  1  0.00000000  0.50000001  0.76097498  1
  Bi  Bi1  1  0.50000001  0.00000000  0.23902499  1
  Br  Br2  1  0.00000000  0.50000001  0.36578699  1
  Br  Br3  1  0.50000001  0.00000000  0.63421298  1
  Br  Br4  1  0.00000000  0.00000000  0.00000000  1
  Br  Br5  1  0.50000001  0.50000001  -0.00000000  1
