# generated using pymatgen
data_Mg4BN
_symmetry_space_group_name_H-M   'P 1'
_cell_length_a   3.57798409
_cell_length_b   4.15798283
_cell_length_c   8.66275311
_cell_angle_alpha   90.00000000
_cell_angle_beta   90.00000000
_cell_angle_gamma   90.00000000
_symmetry_Int_Tables_number   1
_chemical_formula_structural   Mg4BN
_chemical_formula_sum   'Mg4 B1 N1'
_cell_volume   128.87747947
_cell_formula_units_Z   1
loop_
 _symmetry_equiv_pos_site_id
 _symmetry_equiv_pos_as_xyz
  1  'x, y, z'
loop_
 _atom_site_type_symbol
 _atom_site_label
 _atom_site_symmetry_multiplicity
 _atom_site_fract_x
 _atom_site_fract_y
 _atom_site_fract_z
 _atom_site_occupancy
  Mg  Mg0  1  0.00000000  0.00000000  0.11647700  1
  Mg  Mg1  1  0.49999999  0.50000002  0.88352299  1
  Mg  Mg2  1  0.00000000  0.50000002  0.67311199  1
  Mg  Mg3  1  0.49999999  0.00000000  0.32688800  1
  B  B4  1  0.49999999  0.00000000  0.95728899  1
  N  N5  1  0.00000000  0.50000002  0.04271100  1
