# generated using pymatgen
data_Sn2(IF5)3
_symmetry_space_group_name_H-M   'P 1'
_cell_length_a   5.70779514
_cell_length_b   5.83041811
_cell_length_c   8.46601200
_cell_angle_alpha   90.00000000
_cell_angle_beta   90.91635132
_cell_angle_gamma   90.00000000
_symmetry_Int_Tables_number   1
_chemical_formula_structural   Sn2(IF5)3
_chemical_formula_sum   'Sn2 I3 F15'
_cell_volume   281.70296069
_cell_formula_units_Z   1
loop_
 _symmetry_equiv_pos_site_id
 _symmetry_equiv_pos_as_xyz
  1  'x, y, z'
loop_
 _atom_site_type_symbol
 _atom_site_label
 _atom_site_symmetry_multiplicity
 _atom_site_fract_x
 _atom_site_fract_y
 _atom_site_fract_z
 _atom_site_occupancy
  Sn  Sn0  1  0.49999999  0.49999999  0.49999999  1
  Sn  Sn1  1  0.00000000  0.00000000  0.00000000  1
  I  I2  1  0.49999999  0.49999999  0.00000000  1
  I  I3  1  0.50149099  0.04198900  0.75240198  1
  I  I4  1  0.99850898  0.54198899  0.74759798  1
  F  F5  1  0.00000000  0.00000000  0.49999998  1
  F  F6  1  0.00149100  0.45801099  0.25240199  1
  F  F7  1  0.49850899  0.95801098  0.24759800  1
  F  F8  1  0.62180298  0.58417699  0.26473500  1
  F  F9  1  0.66125798  0.79919198  0.57704499  1
  F  F10  1  0.69481398  0.82689898  0.94060797  1
  F  F11  1  0.80518598  0.32689899  0.55939199  1
  F  F12  1  0.83874198  0.29919199  0.92295498  1
  F  F13  1  0.87819698  0.08417700  0.23526500  1
  F  F14  1  0.12180300  0.91582298  0.76473498  1
  F  F15  1  0.16125800  0.70080799  0.07704500  1
  F  F16  1  0.19481400  0.67310099  0.44060799  1
  F  F17  1  0.30518599  0.17310100  0.05939200  1
  F  F18  1  0.33874199  0.20080800  0.42295499  1
  F  F19  1  0.37819699  0.41582299  0.73526498  1
