# generated using pymatgen
data_K4LiCa3F12
_symmetry_space_group_name_H-M   'P 1'
_cell_length_a   4.15844488
_cell_length_b   7.00255394
_cell_length_c   13.57325077
_cell_angle_alpha   90.00000000
_cell_angle_beta   90.00000000
_cell_angle_gamma   90.00000000
_symmetry_Int_Tables_number   1
_chemical_formula_structural   K4LiCa3F12
_chemical_formula_sum   'K4 Li1 Ca3 F12'
_cell_volume   395.24945994
_cell_formula_units_Z   1
loop_
 _symmetry_equiv_pos_site_id
 _symmetry_equiv_pos_as_xyz
  1  'x, y, z'
loop_
 _atom_site_type_symbol
 _atom_site_label
 _atom_site_symmetry_multiplicity
 _atom_site_fract_x
 _atom_site_fract_y
 _atom_site_fract_z
 _atom_site_occupancy
  K  K0  1  0.75000002  0.10574100  0.67060601  1
  K  K1  1  0.25000001  0.89425901  0.32939401  1
  K  K2  1  0.75000002  0.60574101  0.82939401  1
  K  K3  1  0.25000001  0.39425900  0.17060600  1
  Ca  Ca4  1  0.25000001  0.13457300  0.92608602  1
  Li  Li5  1  0.75000002  0.86542701  0.07391400  1
  Ca  Ca6  1  0.25000001  0.63457301  0.57391401  1
  Ca  Ca7  1  0.75000002  0.36542700  0.42608601  1
  F  F8  1  0.75000002  0.26513900  0.98882402  1
  F  F9  1  0.25000001  0.73486101  0.01117600  1
  F  F10  1  0.75000002  0.76513901  0.51117601  1
  F  F11  1  0.25000001  0.23486100  0.48882401  1
  F  F12  1  0.25000001  0.99872801  0.08824000  1
  F  F13  1  0.75000002  0.00127200  0.91176002  1
  F  F14  1  0.25000001  0.49872800  0.41176001  1
  F  F15  1  0.75000002  0.50127200  0.58824001  1
  F  F16  1  0.25000001  0.31379800  0.78990801  1
  F  F17  1  0.75000002  0.68620201  0.21009200  1
  F  F18  1  0.25000001  0.81379801  0.71009201  1
  F  F19  1  0.75000002  0.18620200  0.28990800  1
