# generated using pymatgen
data_Al2SiO8
_symmetry_space_group_name_H-M   'P 1'
_cell_length_a   5.23272800
_cell_length_b   5.23272848
_cell_length_c   6.04250383
_cell_angle_alpha   90.00000000
_cell_angle_beta   90.00000000
_cell_angle_gamma   120.00000000
_symmetry_Int_Tables_number   1
_chemical_formula_structural   Al2SiO8
_chemical_formula_sum   'Al2 Si1 O8'
_cell_volume   143.28605562
_cell_formula_units_Z   1
loop_
 _symmetry_equiv_pos_site_id
 _symmetry_equiv_pos_as_xyz
  1  'x, y, z'
loop_
 _atom_site_type_symbol
 _atom_site_label
 _atom_site_symmetry_multiplicity
 _atom_site_fract_x
 _atom_site_fract_y
 _atom_site_fract_z
 _atom_site_occupancy
  Al  Al0  1  0.00000000  0.00000000  0.00000000  1
  Al  Al1  1  0.66666669  0.33333335  0.29424101  1
  Si  Si2  1  0.33333338  0.66666670  0.70575902  1
  O  O3  1  0.16755702  0.33511402  0.81007702  1
  O  O4  1  0.16755706  0.83244204  0.81007702  1
  O  O5  1  0.66488506  0.83244204  0.81007702  1
  O  O6  1  0.66666669  0.33333335  0.55956802  1
  O  O7  1  0.33333338  0.66666670  0.44043201  1
  O  O8  1  0.83244305  0.66488603  0.18992301  1
  O  O9  1  0.83244301  0.16755801  0.18992301  1
  O  O10  1  0.33511501  0.16755801  0.18992301  1
