# generated using pymatgen
data_Na4Br5
_symmetry_space_group_name_H-M   'P 1'
_cell_length_a   6.59038210
_cell_length_b   8.98264217
_cell_length_c   8.98264217
_cell_angle_alpha   89.36340332
_cell_angle_beta   89.51183319
_cell_angle_gamma   89.51183319
_symmetry_Int_Tables_number   1
_chemical_formula_structural   Na4Br5
_chemical_formula_sum   'Na8 Br10'
_cell_volume   531.69283280
_cell_formula_units_Z   2
loop_
 _symmetry_equiv_pos_site_id
 _symmetry_equiv_pos_as_xyz
  1  'x, y, z'
loop_
 _atom_site_type_symbol
 _atom_site_label
 _atom_site_symmetry_multiplicity
 _atom_site_fract_x
 _atom_site_fract_y
 _atom_site_fract_z
 _atom_site_occupancy
  Na  Na0  1  0.01036102  0.90095805  0.24956896  1
  Na  Na1  1  0.51036101  0.24956901  0.90095804  1
  Na  Na2  1  0.00853302  0.75148004  0.90234700  1
  Na  Na3  1  0.50853303  0.90234705  0.75147999  1
  Na  Na4  1  0.99146702  0.24852001  0.09765300  1
  Na  Na5  1  0.48963902  0.75043104  0.09904197  1
  Na  Na6  1  0.98963901  0.09904200  0.75043105  1
  Na  Na7  1  0.49146701  0.09765300  0.24852001  1
  Br  Br8  1  0.75000003  0.99511805  0.00488195  1
  Br  Br9  1  0.25000000  0.00488200  0.99511805  1
  Br  Br10  1  0.40772003  0.81718604  0.41908298  1
  Br  Br11  1  0.59476502  0.41470602  0.18972599  1
  Br  Br12  1  0.90523503  0.81027404  0.58529399  1
  Br  Br13  1  0.40523502  0.58529403  0.81027401  1
  Br  Br14  1  0.09476501  0.18972601  0.41470601  1
  Br  Br15  1  0.59228001  0.18281401  0.58091703  1
  Br  Br16  1  0.90772002  0.41908302  0.81718603  1
  Br  Br17  1  0.09228002  0.58091703  0.18281398  1
