# generated using pymatgen
data_K2VAsSF9
_symmetry_space_group_name_H-M   'P 1'
_cell_length_a   5.86269808
_cell_length_b   5.86269855
_cell_length_c   7.57358122
_cell_angle_alpha   90.00000000
_cell_angle_beta   90.00000000
_cell_angle_gamma   120.00000000
_symmetry_Int_Tables_number   1
_chemical_formula_structural   K2VAsSF9
_chemical_formula_sum   'K2 V1 As1 S1 F9'
_cell_volume   225.43794264
_cell_formula_units_Z   1
loop_
 _symmetry_equiv_pos_site_id
 _symmetry_equiv_pos_as_xyz
  1  'x, y, z'
loop_
 _atom_site_type_symbol
 _atom_site_label
 _atom_site_symmetry_multiplicity
 _atom_site_fract_x
 _atom_site_fract_y
 _atom_site_fract_z
 _atom_site_occupancy
  K  K0  1  0.00000000  0.00000000  0.49999999  1
  As  As1  1  0.66666668  0.33333334  0.76703498  1
  K  K2  1  0.33333337  0.66666668  0.23296499  1
  V  V3  1  0.66666668  0.33333334  0.31229499  1
  S  S4  1  0.33333337  0.66666668  0.68770498  1
  F  F5  1  0.00000000  0.00000000  0.00000000  1
  F  F6  1  0.66666668  0.33333334  0.97086997  1
  F  F7  1  0.33333337  0.66666668  0.02913000  1
  F  F8  1  0.81341903  0.62683801  0.69336798  1
  F  F9  1  0.18658102  0.37316201  0.30663199  1
  F  F10  1  0.81341900  0.18658200  0.69336798  1
  F  F11  1  0.18658105  0.81341802  0.30663199  1
  F  F12  1  0.37316301  0.18658200  0.69336798  1
  F  F13  1  0.62683704  0.81341802  0.30663199  1
