# generated using pymatgen
data_NaCe(WO4)2
_symmetry_space_group_name_H-M   'P 1'
_cell_length_a   5.33453417
_cell_length_b   5.33453417
_cell_length_c   6.88099813
_cell_angle_alpha   112.80698395
_cell_angle_beta   112.80698395
_cell_angle_gamma   90.00000000
_symmetry_Int_Tables_number   1
_chemical_formula_structural   NaCe(WO4)2
_chemical_formula_sum   'Na1 Ce1 W2 O8'
_cell_volume   163.77021946
_cell_formula_units_Z   1
loop_
 _symmetry_equiv_pos_site_id
 _symmetry_equiv_pos_as_xyz
  1  'x, y, z'
loop_
 _atom_site_type_symbol
 _atom_site_label
 _atom_site_symmetry_multiplicity
 _atom_site_fract_x
 _atom_site_fract_y
 _atom_site_fract_z
 _atom_site_occupancy
  Na  Na0  1  0.25000001  0.74999999  0.50000002  1
  Ce  Ce1  1  0.50000000  0.49999999  0.00000003  1
  W  W2  1  0.74999999  0.25000000  0.50000002  1
  W  W3  1  0.00000000  0.00000000  0.00000000  1
  O  O4  1  0.24014300  0.32961500  0.17286001  1
  O  O5  1  0.59324500  0.49014299  0.67286002  1
  O  O6  1  0.07961500  0.18271700  0.67286000  1
  O  O7  1  0.93271700  0.84324499  0.17286004  1
  O  O8  1  0.81728299  0.40675499  0.32714002  1
  O  O9  1  0.67038499  0.06728300  0.82714000  1
  O  O10  1  0.50985701  0.92038499  0.32714003  1
  O  O11  1  0.15675502  0.75985699  0.82714001  1
