# generated using pymatgen
data_MnVIn(S2O)2
_symmetry_space_group_name_H-M   'P 1'
_cell_length_a   5.05297613
_cell_length_b   5.35845184
_cell_length_c   5.35845137
_cell_angle_alpha   120.00000000
_cell_angle_beta   90.00000000
_cell_angle_gamma   90.00000000
_symmetry_Int_Tables_number   1
_chemical_formula_structural   MnVIn(S2O)2
_chemical_formula_sum   'Mn1 V1 In1 S4 O2'
_cell_volume   125.64826727
_cell_formula_units_Z   1
loop_
 _symmetry_equiv_pos_site_id
 _symmetry_equiv_pos_as_xyz
  1  'x, y, z'
loop_
 _atom_site_type_symbol
 _atom_site_label
 _atom_site_symmetry_multiplicity
 _atom_site_fract_x
 _atom_site_fract_y
 _atom_site_fract_z
 _atom_site_occupancy
  In  In0  1  0.00000000  0.00000000  0.00000000  1
  Mn  Mn1  1  0.49999999  0.66666667  0.33333330  1
  V  V2  1  0.49999999  0.33333333  0.66666667  1
  S  S3  1  0.28156699  1.00000000  0.62897696  1
  S  S4  1  0.71843298  1.00000000  0.37102295  1
  O  O5  1  0.28156699  0.62897700  0.99999999  1
  O  O6  1  0.71843298  0.37102300  -0.00000002  1
  S  S7  1  0.71843298  0.62897700  0.62897698  1
  S  S8  1  0.28156699  0.37102300  0.37102299  1
