# generated using pymatgen
data_GeBiSbTe4
_symmetry_space_group_name_H-M   'P 1'
_cell_length_a   4.38490772
_cell_length_b   4.38490772
_cell_length_c   14.38321686
_cell_angle_alpha   81.23215485
_cell_angle_beta   81.23215485
_cell_angle_gamma   60.00000000
_symmetry_Int_Tables_number   1
_chemical_formula_structural   GeBiSbTe4
_chemical_formula_sum   'Ge1 Bi1 Sb1 Te4'
_cell_volume   235.76203165
_cell_formula_units_Z   1
loop_
 _symmetry_equiv_pos_site_id
 _symmetry_equiv_pos_as_xyz
  1  'x, y, z'
loop_
 _atom_site_type_symbol
 _atom_site_label
 _atom_site_symmetry_multiplicity
 _atom_site_fract_x
 _atom_site_fract_y
 _atom_site_fract_z
 _atom_site_occupancy
  Ge  Ge0  1  0.00000000  0.00000000  0.00000000  1
  Bi  Bi1  1  0.42505000  0.42505002  0.72485002  1
  Sb  Sb2  1  0.57495000  0.57495003  0.27515003  1
  Te  Te3  1  0.13095200  0.13095201  0.60714401  1
  Te  Te4  1  0.86904800  0.86904805  0.39285604  1
  Te  Te5  1  0.28832500  0.28832502  0.13502501  1
  Te  Te6  1  0.71167500  0.71167504  0.86497503  1
