# generated using pymatgen
data_Eu(CuSe)2
_symmetry_space_group_name_H-M   'P 1'
_cell_length_a   4.11474419
_cell_length_b   4.11474419
_cell_length_c   7.12969112
_cell_angle_alpha   90.00000000
_cell_angle_beta   90.00000000
_cell_angle_gamma   120.00000000
_symmetry_Int_Tables_number   1
_chemical_formula_structural   Eu(CuSe)2
_chemical_formula_sum   'Eu1 Cu2 Se2'
_cell_volume   104.54109093
_cell_formula_units_Z   1
loop_
 _symmetry_equiv_pos_site_id
 _symmetry_equiv_pos_as_xyz
  1  'x, y, z'
loop_
 _atom_site_type_symbol
 _atom_site_label
 _atom_site_symmetry_multiplicity
 _atom_site_fract_x
 _atom_site_fract_y
 _atom_site_fract_z
 _atom_site_occupancy
  Eu  Eu0  1  0.00000000  0.00000000  0.00000000  1
  Cu  Cu1  1  0.33333333  0.66666667  0.62965699  1
  Cu  Cu2  1  0.66666664  0.33333333  0.37034299  1
  Se  Se3  1  0.33333333  0.66666667  0.27424300  1
  Se  Se4  1  0.66666664  0.33333333  0.72575699  1
