# generated using pymatgen
data_NdHfF7
_symmetry_space_group_name_H-M   'P 1'
_cell_length_a   5.77505589
_cell_length_b   6.20454121
_cell_length_c   8.37789249
_cell_angle_alpha   101.74137115
_cell_angle_beta   90.00000000
_cell_angle_gamma   90.00000000
_symmetry_Int_Tables_number   1
_chemical_formula_structural   NdHfF7
_chemical_formula_sum   'Nd2 Hf2 F14'
_cell_volume   293.91185937
_cell_formula_units_Z   2
loop_
 _symmetry_equiv_pos_site_id
 _symmetry_equiv_pos_as_xyz
  1  'x, y, z'
loop_
 _atom_site_type_symbol
 _atom_site_label
 _atom_site_symmetry_multiplicity
 _atom_site_fract_x
 _atom_site_fract_y
 _atom_site_fract_z
 _atom_site_occupancy
  Nd  Nd0  1  0.69860401  0.65734402  0.68718702  1
  Nd  Nd1  1  0.19860400  0.34265601  0.31281301  1
  Hf  Hf2  1  0.70841601  0.81122802  0.22396901  1
  Hf  Hf3  1  0.20841600  0.18877200  0.77603102  1
  F  F4  1  0.88588902  0.44990001  0.47507701  1
  F  F5  1  0.38588901  0.55010001  0.52492302  1
  F  F6  1  0.42247001  0.93155402  0.76929902  1
  F  F7  1  0.92247002  0.06844600  0.23070101  1
  F  F8  1  0.94782102  0.96830702  0.76073002  1
  F  F9  1  0.44782101  0.03169300  0.23927001  1
  F  F10  1  0.99876302  0.44989201  0.78666002  1
  F  F11  1  0.49876301  0.55010801  0.21334001  1
  F  F12  1  0.70529001  0.75669402  0.98048403  1
  F  F13  1  0.20529000  0.24330601  0.01951600  1
  F  F14  1  0.71272801  0.85927202  0.46866701  1
  F  F15  1  0.21272800  0.14072800  0.53133302  1
  F  F16  1  0.49638001  0.37563201  0.78324502  1
  F  F17  1  0.99638002  0.62436802  0.21675501  1
