# generated using pymatgen
data_ReMoSe(Cl3O)2
_symmetry_space_group_name_H-M   'P 1'
_cell_length_a   6.48843861
_cell_length_b   6.56472301
_cell_length_c   8.47681522
_cell_angle_alpha   69.44942474
_cell_angle_beta   81.69123840
_cell_angle_gamma   84.57942963
_symmetry_Int_Tables_number   1
_chemical_formula_structural   ReMoSe(Cl3O)2
_chemical_formula_sum   'Re1 Mo1 Se1 Cl6 O2'
_cell_volume   334.16918669
_cell_formula_units_Z   1
loop_
 _symmetry_equiv_pos_site_id
 _symmetry_equiv_pos_as_xyz
  1  'x, y, z'
loop_
 _atom_site_type_symbol
 _atom_site_label
 _atom_site_symmetry_multiplicity
 _atom_site_fract_x
 _atom_site_fract_y
 _atom_site_fract_z
 _atom_site_occupancy
  Re  Re0  1  0.36709600  0.45825398  0.56471398  1
  Mo  Mo1  1  0.00905500  0.99207395  0.00337903  1
  Se  Se2  1  0.95672400  0.97345395  0.74646298  1
  Cl  Cl3  1  0.15019700  0.12416099  0.17853499  1
  Cl  Cl4  1  0.31195000  0.78786696  0.98838498  1
  Cl  Cl5  1  0.80457000  0.30911698  0.93280295  1
  Cl  Cl6  1  0.58382700  0.29935698  0.41023298  1
  Cl  Cl7  1  0.30793900  0.28262899  0.77134597  1
  Cl  Cl8  1  0.84778000  0.80570996  0.14110499  1
  O  O9  1  0.13855100  0.54045097  0.47452900  1
  O  O10  1  0.48031200  0.68342697  0.56760899  1
