# generated using pymatgen
data_Cs2LiCu2AgHgSe2O9
_symmetry_space_group_name_H-M   'P 1'
_cell_length_a   5.52019119
_cell_length_b   5.70473766
_cell_length_c   8.85005665
_cell_angle_alpha   83.68469238
_cell_angle_beta   75.39356232
_cell_angle_gamma   85.70638275
_symmetry_Int_Tables_number   1
_chemical_formula_structural   Cs2LiCu2AgHgSe2O9
_chemical_formula_sum   'Cs2 Li1 Cu2 Ag1 Hg1 Se2 O9'
_cell_volume   267.73337039
_cell_formula_units_Z   1
loop_
 _symmetry_equiv_pos_site_id
 _symmetry_equiv_pos_as_xyz
  1  'x, y, z'
loop_
 _atom_site_type_symbol
 _atom_site_label
 _atom_site_symmetry_multiplicity
 _atom_site_fract_x
 _atom_site_fract_y
 _atom_site_fract_z
 _atom_site_occupancy
  Cs  Cs0  1  0.47674895  0.85053997  0.73129497  1
  Cs  Cs1  1  0.52325098  0.14945999  0.26870498  1
  Hg  Hg2  1  0.79213494  0.72843897  0.01794800  1
  Ag  Ag3  1  0.20786498  0.27156099  0.98205195  1
  Cu  Cu4  1  0.93209297  0.18848899  0.43817396  1
  Li  Li5  1  0.06790696  0.81151097  0.56182599  1
  Cu  Cu6  1  0.69703295  0.59338598  0.41842498  1
  Se  Se7  1  0.30296697  0.40661398  0.58157497  1
  O  O8  1  0.14562996  0.68753197  0.28151000  1
  Se  Se9  1  0.85436996  0.31246799  0.71848995  1
  O  O10  1  0.99860295  0.55778898  0.72000896  1
  O  O11  1  0.00139698  0.44221098  0.27999100  1
  O  O12  1  0.91843493  0.86708597  0.38085098  1
  O  O13  1  0.08156499  0.13291399  0.61914897  1
  O  O14  1  0.27077195  0.79735397  0.10244301  1
  O  O15  1  0.72922797  0.20264599  0.89755694  1
  O  O16  1  0.35660196  0.64115497  0.39037599  1
  O  O17  1  0.64339797  0.35884499  0.60962396  1
