# generated using pymatgen
data_Tl4Te2PbS2I5
_symmetry_space_group_name_H-M   'P 1'
_cell_length_a   6.20513678
_cell_length_b   6.20513678
_cell_length_c   17.81275940
_cell_angle_alpha   90.00000000
_cell_angle_beta   90.00000000
_cell_angle_gamma   119.28733063
_symmetry_Int_Tables_number   1
_chemical_formula_structural   Tl4Te2PbS2I5
_chemical_formula_sum   'Tl4 Te2 Pb1 S2 I5'
_cell_volume   598.18949305
_cell_formula_units_Z   1
loop_
 _symmetry_equiv_pos_site_id
 _symmetry_equiv_pos_as_xyz
  1  'x, y, z'
loop_
 _atom_site_type_symbol
 _atom_site_label
 _atom_site_symmetry_multiplicity
 _atom_site_fract_x
 _atom_site_fract_y
 _atom_site_fract_z
 _atom_site_occupancy
  Tl  Tl0  1  0.89428402  0.22211200  0.10404200  1
  Tl  Tl1  1  0.22211196  0.89428401  0.89595803  1
  Tl  Tl2  1  0.10571596  0.77788801  0.60404202  1
  Tl  Tl3  1  0.77788802  0.10571600  0.39595801  1
  I  I4  1  0.56297299  0.56297300  -0.00000000  1
  Pb  Pb5  1  0.43702699  0.43702700  0.50000002  1
  S  S6  1  0.49392199  0.50607800  0.25000001  1
  S  S7  1  0.50607799  0.49392200  0.75000003  1
  I  I8  1  0.16379196  0.83620801  0.25000001  1
  I  I9  1  0.83620802  0.16379200  0.75000003  1
  Te  Te10  1  0.23718496  0.89642201  0.10639700  1
  Te  Te11  1  0.89642202  0.23718500  0.89360303  1
  I  I12  1  0.76281502  0.10357800  0.60639702  1
  I  I13  1  0.10357796  0.76281501  0.39360301  1
