# generated using pymatgen
data_Al2Cr(CuS3)2
_symmetry_space_group_name_H-M   'P 1'
_cell_length_a   6.61089659
_cell_length_b   6.61089659
_cell_length_c   7.26054382
_cell_angle_alpha   62.91821289
_cell_angle_beta   62.91821289
_cell_angle_gamma   59.99999237
_symmetry_Int_Tables_number   1
_chemical_formula_structural   Al2Cr(CuS3)2
_chemical_formula_sum   'Al2 Cr1 Cu2 S6'
_cell_volume   233.76764637
_cell_formula_units_Z   1
loop_
 _symmetry_equiv_pos_site_id
 _symmetry_equiv_pos_as_xyz
  1  'x, y, z'
loop_
 _atom_site_type_symbol
 _atom_site_label
 _atom_site_symmetry_multiplicity
 _atom_site_fract_x
 _atom_site_fract_y
 _atom_site_fract_z
 _atom_site_occupancy
  Al  Al0  1  0.00076700  0.00076700  0.99769901  1
  Al  Al1  1  0.66388200  0.66388201  0.00835400  1
  Cu  Cu2  1  0.18100499  0.81532102  0.49878901  1
  Cr  Cr3  1  0.81532100  0.50488501  0.49878901  1
  Cu  Cu4  1  0.50488500  0.18100500  0.49878901  1
  S  S5  1  0.29226699  0.95224502  0.11589600  1
  S  S6  1  0.95224500  0.63959201  0.11589600  1
  S  S7  1  0.63959200  0.29226701  0.11589600  1
  S  S8  1  0.78843799  0.78843802  0.63468601  1
  S  S9  1  0.45262300  0.45262301  0.64213101  1
  S  S10  1  0.12542000  0.12542000  0.62374001  1
