# generated using pymatgen
data_Li3CrP2
_symmetry_space_group_name_H-M   'P 1'
_cell_length_a   4.29581499
_cell_length_b   4.29581499
_cell_length_c   6.06407118
_cell_angle_alpha   90.00000000
_cell_angle_beta   90.00000000
_cell_angle_gamma   90.00000000
_symmetry_Int_Tables_number   1
_chemical_formula_structural   Li3CrP2
_chemical_formula_sum   'Li3 Cr1 P2'
_cell_volume   111.90652984
_cell_formula_units_Z   1
loop_
 _symmetry_equiv_pos_site_id
 _symmetry_equiv_pos_as_xyz
  1  'x, y, z'
loop_
 _atom_site_type_symbol
 _atom_site_label
 _atom_site_symmetry_multiplicity
 _atom_site_fract_x
 _atom_site_fract_y
 _atom_site_fract_z
 _atom_site_occupancy
  Li  Li0  1  0.50000000  0.50000000  -0.00000000  1
  Li  Li1  1  0.00000000  0.00000000  0.49999999  1
  Li  Li2  1  0.00000000  0.00000000  0.00000000  1
  Cr  Cr3  1  0.50000000  0.50000000  0.49999999  1
  P  P4  1  0.50000000  0.00000000  0.75889598  1
  P  P5  1  0.00000000  0.50000000  0.24110399  1
