# generated using pymatgen
data_Li4Ni3O4F
_symmetry_space_group_name_H-M   'P 1'
_cell_length_a   2.91241002
_cell_length_b   2.99767828
_cell_length_c   14.62016678
_cell_angle_alpha   92.03110504
_cell_angle_beta   90.00000000
_cell_angle_gamma   119.06343079
_symmetry_Int_Tables_number   1
_chemical_formula_structural   Li4Ni3O4F
_chemical_formula_sum   'Li4 Ni3 O4 F1'
_cell_volume   111.47691868
_cell_formula_units_Z   1
loop_
 _symmetry_equiv_pos_site_id
 _symmetry_equiv_pos_as_xyz
  1  'x, y, z'
loop_
 _atom_site_type_symbol
 _atom_site_label
 _atom_site_symmetry_multiplicity
 _atom_site_fract_x
 _atom_site_fract_y
 _atom_site_fract_z
 _atom_site_occupancy
  Li  Li0  1  0.50000000  0.00000000  0.49999999  1
  Li  Li1  1  0.82956998  0.65914000  0.16864499  1
  Li  Li2  1  0.17042999  0.34086000  0.83135499  1
  Li  Li3  1  0.50000000  0.00000000  0.99999999  1
  Ni  Ni4  1  0.83290298  0.66580600  0.66566599  1
  Ni  Ni5  1  0.16709699  0.33419400  0.33433399  1
  O  O6  1  0.16514299  0.33028600  0.59040899  1
  Ni  Ni7  1  0.49876898  0.99753801  0.25913599  1
  O  O8  1  0.86232798  0.72465601  0.92119998  1
  O  O9  1  0.83485698  0.66971401  0.40959099  1
  O  O10  1  0.13767199  0.27534400  0.07880000  1
  F  F11  1  0.50123100  0.00246200  0.74086399  1
