# generated using pymatgen
data_Ba2PbO4
_symmetry_space_group_name_H-M   'P 1'
_cell_length_a   4.39523411
_cell_length_b   4.39523411
_cell_length_c   7.39708424
_cell_angle_alpha   107.28304291
_cell_angle_beta   107.28304291
_cell_angle_gamma   90.00000000
_symmetry_Int_Tables_number   1
_chemical_formula_structural   Ba2PbO4
_chemical_formula_sum   'Ba2 Pb1 O4'
_cell_volume   129.67286216
_cell_formula_units_Z   1
loop_
 _symmetry_equiv_pos_site_id
 _symmetry_equiv_pos_as_xyz
  1  'x, y, z'
loop_
 _atom_site_type_symbol
 _atom_site_label
 _atom_site_symmetry_multiplicity
 _atom_site_fract_x
 _atom_site_fract_y
 _atom_site_fract_z
 _atom_site_occupancy
  Ba  Ba0  1  0.35595098  0.35595099  0.71190201  1
  Ba  Ba1  1  0.64404896  0.64404898  0.28809798  1
  Pb  Pb2  1  0.00000000  0.00000000  0.00000000  1
  O  O3  1  0.49999998  0.00000000  -0.00000001  1
  O  O4  1  -0.00000001  0.49999998  -0.00000001  1
  O  O5  1  0.83716195  0.83716197  0.67432398  1
  O  O6  1  0.16283799  0.16283799  0.32567600  1
