# generated using pymatgen
data_CaCO3
_symmetry_space_group_name_H-M   'P 1'
_cell_length_a   4.37097406
_cell_length_b   6.27881718
_cell_length_c   8.63539886
_cell_angle_alpha   90.00000000
_cell_angle_beta   90.00000000
_cell_angle_gamma   90.00000000
_symmetry_Int_Tables_number   1
_chemical_formula_structural   CaCO3
_chemical_formula_sum   'Ca4 C4 O12'
_cell_volume   236.99461028
_cell_formula_units_Z   4
loop_
 _symmetry_equiv_pos_site_id
 _symmetry_equiv_pos_as_xyz
  1  'x, y, z'
loop_
 _atom_site_type_symbol
 _atom_site_label
 _atom_site_symmetry_multiplicity
 _atom_site_fract_x
 _atom_site_fract_y
 _atom_site_fract_z
 _atom_site_occupancy
  Ca  Ca0  1  0.00000000  0.00000000  0.00000000  1
  Ca  Ca1  1  0.00000000  0.00000000  0.50000001  1
  Ca  Ca2  1  0.49999999  0.49999999  -0.00000000  1
  Ca  Ca3  1  0.49999999  0.49999999  0.50000001  1
  C  C4  1  0.11139700  0.64541298  0.25000000  1
  C  C5  1  0.38860299  0.14541300  0.25000000  1
  C  C6  1  0.61139699  0.85458698  0.75000001  1
  C  C7  1  0.88860299  0.35458699  0.75000001  1
  O  O8  1  0.97574799  0.66160498  0.11634600  1
  O  O9  1  0.02425200  0.33839499  0.61634601  1
  O  O10  1  0.97574799  0.66160498  0.38365401  1
  O  O11  1  0.02425200  0.33839499  0.88365401  1
  O  O12  1  0.09647000  0.11177800  0.25000000  1
  O  O13  1  0.40352999  0.61177798  0.25000000  1
  O  O14  1  0.52425199  0.16160500  0.38365401  1
  O  O15  1  0.52425199  0.16160500  0.11634600  1
  O  O16  1  0.47574799  0.83839498  0.61634601  1
  O  O17  1  0.47574799  0.83839498  0.88365401  1
  O  O18  1  0.59646999  0.38822199  0.75000001  1
  O  O19  1  0.90352999  0.88822197  0.75000001  1
