# generated using pymatgen
data_MgMnF5
_symmetry_space_group_name_H-M   'P 1'
_cell_length_a   5.28548861
_cell_length_b   5.28548861
_cell_length_c   7.39606237
_cell_angle_alpha   69.43865967
_cell_angle_beta   69.43865967
_cell_angle_gamma   72.50827026
_symmetry_Int_Tables_number   1
_chemical_formula_structural   MgMnF5
_chemical_formula_sum   'Mg2 Mn2 F10'
_cell_volume   177.39334848
_cell_formula_units_Z   2
loop_
 _symmetry_equiv_pos_site_id
 _symmetry_equiv_pos_as_xyz
  1  'x, y, z'
loop_
 _atom_site_type_symbol
 _atom_site_label
 _atom_site_symmetry_multiplicity
 _atom_site_fract_x
 _atom_site_fract_y
 _atom_site_fract_z
 _atom_site_occupancy
  Mg  Mg0  1  0.52382499  0.47617499  0.24999997  1
  Mg  Mg1  1  0.47617499  0.52382499  0.74999998  1
  Mn  Mn2  1  0.00000000  0.00000000  0.00000000  1
  Mn  Mn3  1  0.00000000  0.00000000  0.50000001  1
  F  F4  1  0.11119599  0.88880399  0.74999998  1
  F  F5  1  0.88880399  0.11119600  0.24999997  1
  F  F6  1  0.72237998  0.77993299  0.62974896  1
  F  F7  1  0.22006700  0.27762000  0.87025100  1
  F  F8  1  0.68456799  0.29157200  0.95443198  1
  F  F9  1  0.70842799  0.31543200  0.54556797  1
  F  F10  1  0.31543199  0.70842799  0.04556796  1
  F  F11  1  0.29157199  0.68456799  0.45443197  1
  F  F12  1  0.77993298  0.72237999  0.12974894  1
  F  F13  1  0.27761999  0.22006700  0.37025099  1
