# generated using pymatgen
data_In4Ag2Se7Cl
_symmetry_space_group_name_H-M   'P 1'
_cell_length_a   6.97330904
_cell_length_b   7.00028992
_cell_length_c   7.06966543
_cell_angle_alpha   90.00000000
_cell_angle_beta   88.82107544
_cell_angle_gamma   90.00000000
_symmetry_Int_Tables_number   1
_chemical_formula_structural   In4Ag2Se7Cl
_chemical_formula_sum   'In4 Ag2 Se7 Cl1'
_cell_volume   345.03397315
_cell_formula_units_Z   1
loop_
 _symmetry_equiv_pos_site_id
 _symmetry_equiv_pos_as_xyz
  1  'x, y, z'
loop_
 _atom_site_type_symbol
 _atom_site_label
 _atom_site_symmetry_multiplicity
 _atom_site_fract_x
 _atom_site_fract_y
 _atom_site_fract_z
 _atom_site_occupancy
  In  In0  1  0.50000000  0.50126601  0.50000001  1
  In  In1  1  0.79991400  0.79975201  0.79573401  1
  In  In2  1  0.20008600  0.79975201  0.20426600  1
  In  In3  1  0.80571300  0.19687900  0.19368300  1
  Ag  Ag4  1  0.19428700  0.19687900  0.80631701  1
  Ag  Ag5  1  0.20864600  0.19985700  0.19918600  1
  Se  Se6  1  0.79135400  0.19985700  0.80081401  1
  Se  Se7  1  0.00000000  0.70291201  0.50000001  1
  Se  Se8  1  0.00000000  0.30075200  0.50000001  1
  Se  Se9  1  0.70331300  0.50332301  0.99855201  1
  Se  Se10  1  0.29668700  0.50332301  0.00144800  1
  Se  Se11  1  0.50509600  0.00280600  0.29860200  1
  Se  Se12  1  0.49490400  0.00280600  0.70139801  1
  Cl  Cl13  1  0.00000000  0.98853601  1.00000001  1
