# generated using pymatgen
data_HfSn2Br7
_symmetry_space_group_name_H-M   'P 1'
_cell_length_a   8.86481380
_cell_length_b   8.86481380
_cell_length_c   13.29377270
_cell_angle_alpha   72.51883698
_cell_angle_beta   72.51883698
_cell_angle_gamma   89.61552429
_symmetry_Int_Tables_number   1
_chemical_formula_structural   HfSn2Br7
_chemical_formula_sum   'Hf2 Sn4 Br14'
_cell_volume   946.40794946
_cell_formula_units_Z   2
loop_
 _symmetry_equiv_pos_site_id
 _symmetry_equiv_pos_as_xyz
  1  'x, y, z'
loop_
 _atom_site_type_symbol
 _atom_site_label
 _atom_site_symmetry_multiplicity
 _atom_site_fract_x
 _atom_site_fract_y
 _atom_site_fract_z
 _atom_site_occupancy
  Hf  Hf0  1  0.06057803  0.79186599  0.12365996  1
  Hf  Hf1  1  0.79186599  0.06057800  0.62365996  1
  Sn  Sn2  1  0.93942200  0.20813400  0.87633995  1
  Sn  Sn3  1  0.20813403  0.93942199  0.37633995  1
  Sn  Sn4  1  0.05048103  0.83180299  0.61207496  1
  Sn  Sn5  1  0.04669901  0.27182100  0.63949298  1
  Br  Br6  1  0.72817902  0.95330099  0.86050693  1
  Br  Br7  1  0.58465302  0.82766999  0.63602694  1
  Br  Br8  1  0.17233001  0.41534700  0.86397297  1
  Br  Br9  1  0.95330101  0.72817899  0.36050693  1
  Br  Br10  1  0.69940901  0.39874300  0.88975795  1
  Br  Br11  1  0.16819703  0.94951899  0.88792495  1
  Br  Br12  1  0.41534700  0.17233000  0.36397298  1
  Br  Br13  1  0.82767001  0.58465299  0.13602695  1
  Br  Br14  1  0.39874302  0.69940899  0.38975795  1
  Br  Br15  1  0.60125700  0.30059100  0.61024196  1
  Br  Br16  1  0.94951899  0.16819700  0.38792496  1
  Br  Br17  1  0.30059102  0.60125699  0.11024196  1
  Br  Br18  1  0.83180299  0.05048100  0.11207497  1
  Br  Br19  1  0.27182100  0.04669900  0.13949299  1
