# generated using pymatgen
data_TlCuCl3
_symmetry_space_group_name_H-M   'P 1'
_cell_length_a   4.16750669
_cell_length_b   9.20521259
_cell_length_c   14.18037128
_cell_angle_alpha   90.00000000
_cell_angle_beta   90.00000000
_cell_angle_gamma   100.24650574
_symmetry_Int_Tables_number   1
_chemical_formula_structural   TlCuCl3
_chemical_formula_sum   'Tl4 Cu4 Cl12'
_cell_volume   535.32260178
_cell_formula_units_Z   4
loop_
 _symmetry_equiv_pos_site_id
 _symmetry_equiv_pos_as_xyz
  1  'x, y, z'
loop_
 _atom_site_type_symbol
 _atom_site_label
 _atom_site_symmetry_multiplicity
 _atom_site_fract_x
 _atom_site_fract_y
 _atom_site_fract_z
 _atom_site_occupancy
  Tl  Tl0  1  0.24449314  0.94678104  0.66767599  1
  Tl  Tl1  1  0.75550709  0.55321903  0.16767600  1
  Tl  Tl2  1  0.75550702  0.05321900  0.33232399  1
  Tl  Tl3  1  0.24449307  0.44678102  0.83232398  1
  Cu  Cu4  1  0.75462006  0.35011202  0.54831799  1
  Cu  Cu5  1  0.24538002  0.14988801  0.04831800  1
  Cu  Cu6  1  0.24538009  0.64988803  0.45168199  1
  Cu  Cu7  1  0.75462013  0.85011204  0.95168198  1
  Cl  Cl8  1  0.71940704  0.24406401  0.69319599  1
  Cl  Cl9  1  0.28059304  0.25593601  0.19319600  1
  Cl  Cl10  1  0.28059311  0.75593604  0.30680399  1
  Cl  Cl11  1  0.71940711  0.74406403  0.80680398  1
  Cl  Cl12  1  0.31653803  0.17989601  0.49245099  1
  Cl  Cl13  1  0.68346205  0.32010401  0.99245098  1
  Cl  Cl14  1  0.68346212  0.82010404  0.50754899  1
  Cl  Cl15  1  0.31653810  0.67989603  0.00754900  1
  Cl  Cl16  1  0.18737608  0.53051502  0.59482699  1
  Cl  Cl17  1  0.81262415  0.96948505  0.09482700  1
  Cl  Cl18  1  0.81262408  0.46948502  0.40517299  1
  Cl  Cl19  1  0.18737601  0.03051500  0.90517298  1
