# generated using pymatgen
data_InSb2S4Cl
_symmetry_space_group_name_H-M   'P 1'
_cell_length_a   3.89216995
_cell_length_b   10.30344296
_cell_length_c   11.45720768
_cell_angle_alpha   65.59956360
_cell_angle_beta   80.22050476
_cell_angle_gamma   79.11273956
_symmetry_Int_Tables_number   1
_chemical_formula_structural   InSb2S4Cl
_chemical_formula_sum   'In2 Sb4 S8 Cl2'
_cell_volume   408.72295614
_cell_formula_units_Z   2
loop_
 _symmetry_equiv_pos_site_id
 _symmetry_equiv_pos_as_xyz
  1  'x, y, z'
loop_
 _atom_site_type_symbol
 _atom_site_label
 _atom_site_symmetry_multiplicity
 _atom_site_fract_x
 _atom_site_fract_y
 _atom_site_fract_z
 _atom_site_occupancy
  In  In0  1  0.16352802  0.11154700  0.56139698  1
  In  In1  1  0.83647216  0.88845296  0.43860296  1
  Sb  Sb2  1  0.45090206  0.31887399  0.77932197  1
  Sb  Sb3  1  0.79685206  0.31246299  0.09383299  1
  Sb  Sb4  1  0.54909812  0.68112597  0.22067798  1
  Sb  Sb5  1  0.20314812  0.68753697  0.90616695  1
  S  S6  1  0.71264617  0.92350896  0.65119896  1
  S  S7  1  0.81793110  0.49680398  0.86733396  1
  S  S8  1  0.03610203  0.14845599  0.77933997  1
  S  S9  1  0.40081604  0.17975899  0.01860900  1
  S  S10  1  0.96389816  0.85154396  0.22065997  1
  S  S11  1  0.28735402  0.07649100  0.34880099  1
  S  S12  1  0.18206909  0.50319598  0.13266598  1
  S  S13  1  0.59918415  0.82024097  0.98139095  1
  Cl  Cl14  1  0.39540712  0.68405797  0.52512797  1
  Cl  Cl15  1  0.60459306  0.31594199  0.47487198  1
