# generated using pymatgen
data_BaSe3
_symmetry_space_group_name_H-M   'P 1'
_cell_length_a   4.29856300
_cell_length_b   7.42079210
_cell_length_c   7.42079210
_cell_angle_alpha   90.00000000
_cell_angle_beta   90.00000000
_cell_angle_gamma   90.00000000
_symmetry_Int_Tables_number   1
_chemical_formula_structural   BaSe3
_chemical_formula_sum   'Ba2 Se6'
_cell_volume   236.71393562
_cell_formula_units_Z   2
loop_
 _symmetry_equiv_pos_site_id
 _symmetry_equiv_pos_as_xyz
  1  'x, y, z'
loop_
 _atom_site_type_symbol
 _atom_site_label
 _atom_site_symmetry_multiplicity
 _atom_site_fract_x
 _atom_site_fract_y
 _atom_site_fract_z
 _atom_site_occupancy
  Ba  Ba0  1  0.00000000  0.49999999  0.49999999  1
  Ba  Ba1  1  0.00000000  0.00000000  0.00000000  1
  Se  Se2  1  0.48698700  0.80815099  0.69184899  1
  Se  Se3  1  0.51301300  0.30815100  0.80815099  1
  Se  Se4  1  0.17866900  0.00000000  0.49999999  1
  Se  Se5  1  0.82133100  0.49999999  -0.00000000  1
  Se  Se6  1  0.48698700  0.19184900  0.30815100  1
  Se  Se7  1  0.51301300  0.69184899  0.19184900  1
