# generated using pymatgen
data_Y2SeO2
_symmetry_space_group_name_H-M   'P 1'
_cell_length_a   3.97330999
_cell_length_b   3.97330999
_cell_length_c   6.93677044
_cell_angle_alpha   106.64224243
_cell_angle_beta   106.64224243
_cell_angle_gamma   90.00000000
_symmetry_Int_Tables_number   1
_chemical_formula_structural   Y2SeO2
_chemical_formula_sum   'Y2 Se1 O2'
_cell_volume   100.12762882
_cell_formula_units_Z   1
loop_
 _symmetry_equiv_pos_site_id
 _symmetry_equiv_pos_as_xyz
  1  'x, y, z'
loop_
 _atom_site_type_symbol
 _atom_site_label
 _atom_site_symmetry_multiplicity
 _atom_site_fract_x
 _atom_site_fract_y
 _atom_site_fract_z
 _atom_site_occupancy
  Y  Y0  1  0.84095203  0.84095201  0.68190403  1
  Y  Y1  1  0.16685800  0.16685800  0.33371601  1
  Se  Se2  1  0.48895601  0.48895601  0.97791202  1
  O  O3  1  0.75161701  0.25161700  0.50323402  1
  O  O4  1  0.25161702  0.75161701  0.50323402  1
