# generated using pymatgen
data_Li2TiMn2O5
_symmetry_space_group_name_H-M   'P 1'
_cell_length_a   5.30964184
_cell_length_b   5.33009481
_cell_length_c   8.05299664
_cell_angle_alpha   83.39676666
_cell_angle_beta   70.75132751
_cell_angle_gamma   69.58517456
_symmetry_Int_Tables_number   1
_chemical_formula_structural   Li2TiMn2O5
_chemical_formula_sum   'Li4 Ti2 Mn4 O10'
_cell_volume   201.65203219
_cell_formula_units_Z   2
loop_
 _symmetry_equiv_pos_site_id
 _symmetry_equiv_pos_as_xyz
  1  'x, y, z'
loop_
 _atom_site_type_symbol
 _atom_site_label
 _atom_site_symmetry_multiplicity
 _atom_site_fract_x
 _atom_site_fract_y
 _atom_site_fract_z
 _atom_site_occupancy
  Li  Li0  1  0.90094009  1.00000001  0.19811999  1
  Li  Li1  1  0.49657502  0.00000000  0.00684998  1
  Li  Li2  1  0.39856104  0.50000000  0.20287799  1
  Li  Li3  1  0.20674403  0.50000000  0.58651198  1
  Ti  Ti4  1  0.31280501  0.00000000  0.37438997  1
  Ti  Ti5  1  0.00346102  0.50000000  0.99307797  1
  Mn  Mn6  1  0.09763600  0.00000000  0.80472796  1
  Mn  Mn7  1  0.70142903  0.00000000  0.59714195  1
  Mn  Mn8  1  0.80294106  0.50000000  0.39411797  1
  Mn  Mn9  1  0.59752305  0.50000000  0.80495396  1
  O  O10  1  0.63966906  0.75822701  0.20182499  1
  O  O11  1  0.84750207  0.73702801  0.82263895  1
  O  O12  1  0.07634504  0.77655501  0.39984100  1
  O  O13  1  0.52381403  0.22344500  0.39984097  1
  O  O14  1  0.44709005  0.76054101  0.58776498  1
  O  O15  1  0.21709804  0.72157201  0.00657201  1
  O  O16  1  0.15850602  0.24177300  0.20182499  1
  O  O17  1  0.77633005  0.27842800  0.00657198  1
  O  O18  1  0.96514506  0.23945900  0.58776495  1
  O  O19  1  0.32985903  0.26297200  0.82263896  1
