# generated using pymatgen
data_Cs2S
_symmetry_space_group_name_H-M   'P 1'
_cell_length_a   5.84731102
_cell_length_b   5.84705162
_cell_length_c   8.22349644
_cell_angle_alpha   89.99978638
_cell_angle_beta   89.99986267
_cell_angle_gamma   59.99860001
_symmetry_Int_Tables_number   1
_chemical_formula_structural   Cs2S
_chemical_formula_sum   'Cs4 S2'
_cell_volume   243.48607903
_cell_formula_units_Z   2
loop_
 _symmetry_equiv_pos_site_id
 _symmetry_equiv_pos_as_xyz
  1  'x, y, z'
loop_
 _atom_site_type_symbol
 _atom_site_label
 _atom_site_symmetry_multiplicity
 _atom_site_fract_x
 _atom_site_fract_y
 _atom_site_fract_z
 _atom_site_occupancy
  Cs  Cs0  1  0.00000198  0.99999804  0.49999999  1
  Cs  Cs1  1  0.99999898  1.00000004  0.99999898  1
  Cs  Cs2  1  0.33333333  0.33333335  0.25001100  1
  Cs  Cs3  1  0.66666665  0.66666669  0.74998798  1
  S  S4  1  0.66666665  0.66666669  0.25001301  1
  S  S5  1  0.33333333  0.33333335  0.74998897  1
