# generated using pymatgen
data_Ca2LuSbO6
_symmetry_space_group_name_H-M   'P 1'
_cell_length_a   5.64517450
_cell_length_b   5.81149483
_cell_length_c   8.11318398
_cell_angle_alpha   90.00000000
_cell_angle_beta   89.60315704
_cell_angle_gamma   90.00000000
_symmetry_Int_Tables_number   1
_chemical_formula_structural   Ca2LuSbO6
_chemical_formula_sum   'Ca4 Lu2 Sb2 O12'
_cell_volume   266.16205068
_cell_formula_units_Z   2
loop_
 _symmetry_equiv_pos_site_id
 _symmetry_equiv_pos_as_xyz
  1  'x, y, z'
loop_
 _atom_site_type_symbol
 _atom_site_label
 _atom_site_symmetry_multiplicity
 _atom_site_fract_x
 _atom_site_fract_y
 _atom_site_fract_z
 _atom_site_occupancy
  Ca  Ca0  1  0.48966602  0.05125000  0.24561598  1
  Ca  Ca1  1  0.98966604  0.44875001  0.74561595  1
  Ca  Ca2  1  0.51033402  0.94875003  0.75438397  1
  Ca  Ca3  1  0.01033400  0.55125002  0.25438399  1
  Lu  Lu4  1  0.50000002  0.50000001  0.49999997  1
  Lu  Lu5  1  0.00000000  0.00000000  0.00000000  1
  Sb  Sb6  1  0.50000002  0.50000001  -0.00000001  1
  Sb  Sb7  1  0.00000000  0.00000000  0.49999999  1
  O  O8  1  0.39207102  0.53971302  0.76532897  1
  O  O9  1  0.89207104  0.96028703  0.26532897  1
  O  O10  1  0.60792903  0.46028701  0.23467098  1
  O  O11  1  0.10792900  0.03971300  0.73467098  1
  O  O12  1  0.17431301  0.29286401  0.44503098  1
  O  O13  1  0.67431303  0.20713601  0.94503096  1
  O  O14  1  0.82568703  0.70713602  0.55496896  1
  O  O15  1  0.32568701  0.79286402  0.05496899  1
  O  O16  1  0.28978701  0.81759702  0.44175498  1
  O  O17  1  0.78978703  0.68240302  0.94175495  1
  O  O18  1  0.71021303  0.18240301  0.55824497  1
  O  O19  1  0.21021301  0.31759701  0.05824499  1
