# generated using pymatgen
data_BeAlH5
_symmetry_space_group_name_H-M   'P 1'
_cell_length_a   4.30623388
_cell_length_b   4.77009201
_cell_length_c   6.25391388
_cell_angle_alpha   90.59291840
_cell_angle_beta   90.00000000
_cell_angle_gamma   90.00000000
_symmetry_Int_Tables_number   1
_chemical_formula_structural   BeAlH5
_chemical_formula_sum   'Be2 Al2 H10'
_cell_volume   128.45559112
_cell_formula_units_Z   2
loop_
 _symmetry_equiv_pos_site_id
 _symmetry_equiv_pos_as_xyz
  1  'x, y, z'
loop_
 _atom_site_type_symbol
 _atom_site_label
 _atom_site_symmetry_multiplicity
 _atom_site_fract_x
 _atom_site_fract_y
 _atom_site_fract_z
 _atom_site_occupancy
  Be  Be0  1  0.77012502  0.99801700  0.62325596  1
  Be  Be1  1  0.27012501  0.00198300  0.37674400  1
  Al  Al2  1  0.00998000  0.75699500  0.99980397  1
  Al  Al3  1  0.50998001  0.24300500  0.00019599  1
  H  H4  1  0.53417701  0.88970300  0.48495397  1
  H  H5  1  0.03417700  0.11029700  0.51504599  1
  H  H6  1  0.67930502  0.24044600  0.74844399  1
  H  H7  1  0.17930500  0.75955400  0.25155597  1
  H  H8  1  0.83817002  0.75298600  0.74890197  1
  H  H9  1  0.33817001  0.24701400  0.25109799  1
  H  H10  1  0.26013101  0.99875100  0.90159496  1
  H  H11  1  0.76013102  0.00124900  0.09840500  1
  H  H12  1  0.26011101  0.49893200  0.91338698  1
  H  H13  1  0.76011102  0.50106800  0.08661298  1
