# generated using pymatgen
data_SrAgO2
_symmetry_space_group_name_H-M   'P 1'
_cell_length_a   3.64719009
_cell_length_b   6.04809618
_cell_length_c   6.04809618
_cell_angle_alpha   105.78868866
_cell_angle_beta   89.50893402
_cell_angle_gamma   89.50893402
_symmetry_Int_Tables_number   1
_chemical_formula_structural   SrAgO2
_chemical_formula_sum   'Sr2 Ag2 O4'
_cell_volume   128.36590102
_cell_formula_units_Z   2
loop_
 _symmetry_equiv_pos_site_id
 _symmetry_equiv_pos_as_xyz
  1  'x, y, z'
loop_
 _atom_site_type_symbol
 _atom_site_label
 _atom_site_symmetry_multiplicity
 _atom_site_fract_x
 _atom_site_fract_y
 _atom_site_fract_z
 _atom_site_occupancy
  Sr  Sr0  1  0.00000001  0.49999999  0.00000001  1
  Sr  Sr1  1  0.00000000  0.00000000  0.49999999  1
  Ag  Ag2  1  0.50000000  0.00000000  0.00000000  1
  Ag  Ag3  1  0.50000001  0.49999999  0.50000000  1
  O  O4  1  0.50000000  0.28096399  0.71903599  1
  O  O5  1  0.50000001  0.71903598  0.28096401  1
  O  O6  1  0.79056700  0.24933299  0.24933300  1
  O  O7  1  0.20943302  0.75066698  0.75066699  1
