# generated using pymatgen
data_Li4NiPO8
_symmetry_space_group_name_H-M   'P 1'
_cell_length_a   5.16400766
_cell_length_b   5.37115669
_cell_length_c   8.65552711
_cell_angle_alpha   90.00256348
_cell_angle_beta   90.00572968
_cell_angle_gamma   61.26816177
_symmetry_Int_Tables_number   1
_chemical_formula_structural   Li4NiPO8
_chemical_formula_sum   'Li4 Ni1 P1 O8'
_cell_volume   210.51738972
_cell_formula_units_Z   1
loop_
 _symmetry_equiv_pos_site_id
 _symmetry_equiv_pos_as_xyz
  1  'x, y, z'
loop_
 _atom_site_type_symbol
 _atom_site_label
 _atom_site_symmetry_multiplicity
 _atom_site_fract_x
 _atom_site_fract_y
 _atom_site_fract_z
 _atom_site_occupancy
  Li  Li0  1  0.78055804  0.35017300  0.00848199  1
  Li  Li1  1  0.13072702  0.64983601  0.50848504  1
  Li  Li2  1  0.62967204  0.66718001  0.31772602  1
  Li  Li3  1  0.29685402  0.33281500  0.81772304  1
  Ni  Ni4  1  0.64014804  0.65196501  0.69379204  1
  P  P5  1  0.29210902  0.34803800  0.19378801  1
  O  O6  1  0.37175103  0.59512501  0.68320004  1
  O  O7  1  0.79072104  0.60289101  0.53165902  1
  O  O8  1  0.87090504  0.43413400  0.80914203  1
  O  O9  1  0.54617904  0.95414301  0.74740305  1
  O  O10  1  0.96688405  0.40487300  0.18320100  1
  O  O11  1  0.39359702  0.39712400  0.03166800  1
  O  O12  1  0.30504402  0.56584400  0.30914302  1
  O  O13  1  0.50031102  0.04586000  0.24738900  1
