# generated using pymatgen
data_Rb2InI6
_symmetry_space_group_name_H-M   'P 1'
_cell_length_a   8.05091286
_cell_length_b   8.23472881
_cell_length_c   11.49934006
_cell_angle_alpha   90.00000000
_cell_angle_beta   89.86642456
_cell_angle_gamma   90.00000000
_symmetry_Int_Tables_number   1
_chemical_formula_structural   Rb2InI6
_chemical_formula_sum   'Rb4 In2 I12'
_cell_volume   762.37064282
_cell_formula_units_Z   2
loop_
 _symmetry_equiv_pos_site_id
 _symmetry_equiv_pos_as_xyz
  1  'x, y, z'
loop_
 _atom_site_type_symbol
 _atom_site_label
 _atom_site_symmetry_multiplicity
 _atom_site_fract_x
 _atom_site_fract_y
 _atom_site_fract_z
 _atom_site_occupancy
  Rb  Rb0  1  0.02012300  0.56189101  0.74913001  1
  Rb  Rb1  1  0.52012301  0.93810902  0.24913001  1
  Rb  Rb2  1  0.97987702  0.43810901  0.25087002  1
  Rb  Rb3  1  0.47987701  0.06189100  0.75087002  1
  In  In4  1  0.00000000  0.00000000  0.50000001  1
  In  In5  1  0.50000001  0.50000001  0.00000001  1
  I  I6  1  0.27723900  0.80960802  0.53503901  1
  I  I7  1  0.72276101  0.19039200  0.46496102  1
  I  I8  1  0.56563301  0.49572901  0.76524902  1
  I  I9  1  0.22276100  0.30960801  0.96496102  1
  I  I10  1  0.43436701  0.50427101  0.23475101  1
  I  I11  1  0.93436702  0.99572902  0.73475103  1
  I  I12  1  0.68907001  0.22283001  0.02868801  1
  I  I13  1  0.18907000  0.27717001  0.52868801  1
  I  I14  1  0.31093001  0.77717002  0.97131202  1
  I  I15  1  0.81093001  0.72283002  0.47131202  1
  I  I16  1  0.06563300  0.00427100  0.26524901  1
  I  I17  1  0.77723901  0.69039202  0.03503901  1
