# generated using pymatgen
data_CuSe
_symmetry_space_group_name_H-M   'P 1'
_cell_length_a   4.89678288
_cell_length_b   4.89678288
_cell_length_c   4.89678288
_cell_angle_alpha   90.00000000
_cell_angle_beta   90.00000000
_cell_angle_gamma   90.00000000
_symmetry_Int_Tables_number   1
_chemical_formula_structural   CuSe
_chemical_formula_sum   'Cu4 Se4'
_cell_volume   117.41742260
_cell_formula_units_Z   4
loop_
 _symmetry_equiv_pos_site_id
 _symmetry_equiv_pos_as_xyz
  1  'x, y, z'
loop_
 _atom_site_type_symbol
 _atom_site_label
 _atom_site_symmetry_multiplicity
 _atom_site_fract_x
 _atom_site_fract_y
 _atom_site_fract_z
 _atom_site_occupancy
  Cu  Cu0  1  0.08621900  0.08621900  0.08621900  1
  Cu  Cu1  1  0.41378101  0.91378102  0.58621901  1
  Cu  Cu2  1  0.91378102  0.58621901  0.41378101  1
  Cu  Cu3  1  0.58621901  0.41378101  0.91378102  1
  Se  Se4  1  0.37786501  0.37786501  0.37786501  1
  Se  Se5  1  0.12213500  0.62213502  0.87786502  1
  Se  Se6  1  0.62213502  0.87786502  0.12213500  1
  Se  Se7  1  0.87786502  0.12213500  0.62213502  1
