# generated using pymatgen
data_AlSiCN
_symmetry_space_group_name_H-M   'P 1'
_cell_length_a   3.16962409
_cell_length_b   3.16962314
_cell_length_c   5.13887405
_cell_angle_alpha   90.00000000
_cell_angle_beta   90.00000000
_cell_angle_gamma   120.00000763
_symmetry_Int_Tables_number   1
_chemical_formula_structural   AlSiCN
_chemical_formula_sum   'Al1 Si1 C1 N1'
_cell_volume   44.71095637
_cell_formula_units_Z   1
loop_
 _symmetry_equiv_pos_site_id
 _symmetry_equiv_pos_as_xyz
  1  'x, y, z'
loop_
 _atom_site_type_symbol
 _atom_site_label
 _atom_site_symmetry_multiplicity
 _atom_site_fract_x
 _atom_site_fract_y
 _atom_site_fract_z
 _atom_site_occupancy
  Al  Al0  1  0.00000000  0.00000000  0.00081000  1
  Si  Si1  1  0.33333332  0.66666668  0.50274599  1
  C  C2  1  0.33333332  0.66666668  0.88801699  1
  N  N3  1  0.00000000  0.00000000  0.37202700  1
