# generated using pymatgen
data_Pr2Ta2Cl2O7
_symmetry_space_group_name_H-M   'P 1'
_cell_length_a   3.95485210
_cell_length_b   6.95337200
_cell_length_c   8.02766705
_cell_angle_alpha   113.03517914
_cell_angle_beta   104.26023102
_cell_angle_gamma   90.00000000
_symmetry_Int_Tables_number   1
_chemical_formula_structural   Pr2Ta2Cl2O7
_chemical_formula_sum   'Pr2 Ta2 Cl2 O7'
_cell_volume   195.74221791
_cell_formula_units_Z   1
loop_
 _symmetry_equiv_pos_site_id
 _symmetry_equiv_pos_as_xyz
  1  'x, y, z'
loop_
 _atom_site_type_symbol
 _atom_site_label
 _atom_site_symmetry_multiplicity
 _atom_site_fract_x
 _atom_site_fract_y
 _atom_site_fract_z
 _atom_site_occupancy
  Pr  Pr0  1  0.69256298  0.16444600  0.38512599  1
  Pr  Pr1  1  0.30743698  0.83555399  0.61487396  1
  Ta  Ta2  1  0.03475598  0.79916699  0.06951197  1
  Ta  Ta3  1  0.96524397  0.20083300  0.93048799  1
  Cl  Cl4  1  0.32120998  0.43445999  0.64241998  1
  Cl  Cl5  1  0.67878997  0.56553999  0.35757998  1
  O  O6  1  0.54554897  0.83687499  0.09109797  1
  O  O7  1  0.45445098  0.16312500  0.90890199  1
  O  O8  1  0.08123199  0.15313900  0.16246399  1
  O  O9  1  -0.00000001  0.49999999  -0.00000002  1
  O  O10  1  0.17483098  0.93098199  0.34966196  1
  O  O11  1  0.91876796  0.84686099  0.83753596  1
  O  O12  1  0.82516898  0.06901800  0.65033799  1
