# generated using pymatgen
data_Lu6WO12
_symmetry_space_group_name_H-M   'P 1'
_cell_length_a   6.33958864
_cell_length_b   6.33958864
_cell_length_c   6.33958960
_cell_angle_alpha   98.74951935
_cell_angle_beta   98.74951935
_cell_angle_gamma   98.74951935
_symmetry_Int_Tables_number   1
_chemical_formula_structural   Lu6WO12
_chemical_formula_sum   'Lu6 W1 O12'
_cell_volume   244.85668098
_cell_formula_units_Z   1
loop_
 _symmetry_equiv_pos_site_id
 _symmetry_equiv_pos_as_xyz
  1  'x, y, z'
loop_
 _atom_site_type_symbol
 _atom_site_label
 _atom_site_symmetry_multiplicity
 _atom_site_fract_x
 _atom_site_fract_y
 _atom_site_fract_z
 _atom_site_occupancy
  Lu  Lu0  1  0.85569902  0.68036502  0.38866000  1
  Lu  Lu1  1  0.61134002  0.14430100  0.31963500  1
  Lu  Lu2  1  0.68036502  0.38866001  0.85569899  1
  Lu  Lu3  1  0.31963500  0.61134002  0.14430100  1
  Lu  Lu4  1  0.38866000  0.85569902  0.68036500  1
  Lu  Lu5  1  0.14430100  0.31963501  0.61133999  1
  W  W6  1  0.00000000  0.00000000  0.00000000  1
  O  O7  1  0.96479203  0.07937400  0.30197300  1
  O  O8  1  0.92062602  0.69802702  0.03520801  1
  O  O9  1  0.82273902  0.40958101  0.57123200  1
  O  O10  1  0.69802702  0.03520800  0.92062599  1
  O  O11  1  0.59041901  0.42876801  0.17726100  1
  O  O12  1  0.57123201  0.82273902  0.40958100  1
  O  O13  1  0.42876801  0.17726101  0.59041899  1
  O  O14  1  0.40958101  0.57123202  0.82273899  1
  O  O15  1  0.30197300  0.96479203  0.07937400  1
  O  O16  1  0.17726100  0.59041902  0.42876800  1
  O  O17  1  0.07937400  0.30197301  0.96479199  1
  O  O18  1  0.03520799  0.92062603  0.69802699  1
