# generated using pymatgen
data_TiAl5O7
_symmetry_space_group_name_H-M   'P 1'
_cell_length_a   3.05681992
_cell_length_b   6.40533018
_cell_length_c   8.10939693
_cell_angle_alpha   81.97799683
_cell_angle_beta   79.13626099
_cell_angle_gamma   76.19516754
_symmetry_Int_Tables_number   1
_chemical_formula_structural   TiAl5O7
_chemical_formula_sum   'Ti1 Al5 O7'
_cell_volume   150.68502217
_cell_formula_units_Z   1
loop_
 _symmetry_equiv_pos_site_id
 _symmetry_equiv_pos_as_xyz
  1  'x, y, z'
loop_
 _atom_site_type_symbol
 _atom_site_label
 _atom_site_symmetry_multiplicity
 _atom_site_fract_x
 _atom_site_fract_y
 _atom_site_fract_z
 _atom_site_occupancy
  Ti  Ti0  1  0.00000000  0.00000000  0.00000000  1
  Al  Al1  1  0.46428498  0.35941001  0.71202000  1
  Al  Al2  1  0.24064899  0.15612000  0.36258200  1
  Al  Al3  1  0.75935095  0.84388002  0.63741800  1
  Al  Al4  1  0.53571496  0.64059002  0.28798001  1
  Al  Al5  1  0.10773396  0.47480901  0.30972300  1
  O  O6  1  0.44526300  0.19061500  0.91885899  1
  O  O7  1  0.55473695  0.80938502  0.08114101  1
  O  O8  1  0.16669793  0.88486102  0.78174300  1
  O  O9  1  0.89226598  0.52519101  0.69027700  1
  O  O10  1  0.35448294  0.83178202  0.45925201  1
  O  O11  1  0.64551700  0.16821800  0.54074800  1
  O  O12  1  0.83330201  0.11513900  0.21825700  1
