# generated using pymatgen
data_CsLaMnWO3
_symmetry_space_group_name_H-M   'P 1'
_cell_length_a   6.06615734
_cell_length_b   6.06615734
_cell_length_c   6.06615734
_cell_angle_alpha   60.00000000
_cell_angle_beta   60.00000000
_cell_angle_gamma   60.00000000
_symmetry_Int_Tables_number   1
_chemical_formula_structural   CsLaMnWO3
_chemical_formula_sum   'Cs1 La1 Mn1 W1 O3'
_cell_volume   157.84324985
_cell_formula_units_Z   1
loop_
 _symmetry_equiv_pos_site_id
 _symmetry_equiv_pos_as_xyz
  1  'x, y, z'
loop_
 _atom_site_type_symbol
 _atom_site_label
 _atom_site_symmetry_multiplicity
 _atom_site_fract_x
 _atom_site_fract_y
 _atom_site_fract_z
 _atom_site_occupancy
  Cs  Cs0  1  0.75000000  0.75000000  0.75000000  1
  La  La1  1  0.50000000  0.50000000  0.50000000  1
  Mn  Mn2  1  0.25000000  0.25000000  0.25000000  1
  W  W3  1  0.37072700  0.37072800  0.37072800  1
  O  O4  1  0.37072700  0.37072800  0.88781700  1
  O  O5  1  0.88781600  0.37072800  0.37072800  1
  O  O6  1  0.37072700  0.88781700  0.37072800  1
