# generated using pymatgen
data_NaScN2
_symmetry_space_group_name_H-M   'P 1'
_cell_length_a   3.50610137
_cell_length_b   3.50610137
_cell_length_c   6.50471020
_cell_angle_alpha   74.36520386
_cell_angle_beta   74.36520386
_cell_angle_gamma   60.00001144
_symmetry_Int_Tables_number   1
_chemical_formula_structural   NaScN2
_chemical_formula_sum   'Na1 Sc1 N2'
_cell_volume   65.80956534
_cell_formula_units_Z   1
loop_
 _symmetry_equiv_pos_site_id
 _symmetry_equiv_pos_as_xyz
  1  'x, y, z'
loop_
 _atom_site_type_symbol
 _atom_site_label
 _atom_site_symmetry_multiplicity
 _atom_site_fract_x
 _atom_site_fract_y
 _atom_site_fract_z
 _atom_site_occupancy
  Na  Na0  1  0.50000004  0.50000001  0.49999996  1
  Sc  Sc1  1  0.00000000  0.00000000  0.00000000  1
  N  N2  1  0.73219706  0.73219701  0.80340894  1
  N  N3  1  0.26780302  0.26780300  0.19659098  1
