# generated using pymatgen
data_LiBH4
_symmetry_space_group_name_H-M   'P 1'
_cell_length_a   3.96361709
_cell_length_b   3.96361709
_cell_length_c   6.39516687
_cell_angle_alpha   90.00000000
_cell_angle_beta   90.00000000
_cell_angle_gamma   90.53861237
_symmetry_Int_Tables_number   1
_chemical_formula_structural   LiBH4
_chemical_formula_sum   'Li2 B2 H8'
_cell_volume   100.46529769
_cell_formula_units_Z   2
loop_
 _symmetry_equiv_pos_site_id
 _symmetry_equiv_pos_as_xyz
  1  'x, y, z'
loop_
 _atom_site_type_symbol
 _atom_site_label
 _atom_site_symmetry_multiplicity
 _atom_site_fract_x
 _atom_site_fract_y
 _atom_site_fract_z
 _atom_site_occupancy
  Li  Li0  1  0.00548100  0.00548100  0.50000001  1
  Li  Li1  1  0.00548100  0.00548100  -0.00000000  1
  B  B2  1  0.98126395  0.51474899  0.25000000  1
  B  B3  1  0.51474894  0.98126398  0.75000001  1
  H  H4  1  0.16322497  0.52732999  0.40516401  1
  H  H5  1  0.52732998  0.16322500  0.59483601  1
  H  H6  1  0.16322497  0.52732999  0.09483600  1
  H  H7  1  0.52732998  0.16322500  0.90516402  1
  H  H8  1  0.77324494  0.73891098  0.25000000  1
  H  H9  1  0.73891094  0.77324498  0.75000001  1
  H  H10  1  0.81094597  0.25641399  0.25000000  1
  H  H11  1  0.25641395  0.81094598  0.75000001  1
