# generated using pymatgen
data_V2FeH4O3
_symmetry_space_group_name_H-M   'P 1'
_cell_length_a   3.81841898
_cell_length_b   5.85141611
_cell_length_c   5.85141611
_cell_angle_alpha   98.17071533
_cell_angle_beta   90.00000000
_cell_angle_gamma   90.00000000
_symmetry_Int_Tables_number   1
_chemical_formula_structural   V2FeH4O3
_chemical_formula_sum   'V2 Fe1 H4 O3'
_cell_volume   129.41198405
_cell_formula_units_Z   1
loop_
 _symmetry_equiv_pos_site_id
 _symmetry_equiv_pos_as_xyz
  1  'x, y, z'
loop_
 _atom_site_type_symbol
 _atom_site_label
 _atom_site_symmetry_multiplicity
 _atom_site_fract_x
 _atom_site_fract_y
 _atom_site_fract_z
 _atom_site_occupancy
  V  V0  1  0.00000000  0.05363600  0.94636399  1
  V  V1  1  0.50000000  0.52004000  0.98616398  1
  Fe  Fe2  1  0.50000000  0.01383600  0.47996000  1
  H  H3  1  0.00000000  0.53051300  0.46948698  1
  H  H4  1  0.50000000  0.75056999  0.82110297  1
  H  H5  1  0.50000000  0.17889700  0.24942999  1
  O  O6  1  0.00000000  0.46554500  0.03740298  1
  O  O7  1  -0.00000000  0.96259699  0.53445496  1
  H  H8  1  0.50000000  0.69771499  0.30228497  1
  O  O9  1  0.50000000  0.23465100  0.76534899  1
