# generated using pymatgen
data_SrI2
_symmetry_space_group_name_H-M   'P 1'
_cell_length_a   5.02686214
_cell_length_b   5.48575068
_cell_length_c   8.79333019
_cell_angle_alpha   79.57894135
_cell_angle_beta   73.39130402
_cell_angle_gamma   62.73062897
_symmetry_Int_Tables_number   1
_chemical_formula_structural   SrI2
_chemical_formula_sum   'Sr2 I4'
_cell_volume   206.18917824
_cell_formula_units_Z   2
loop_
 _symmetry_equiv_pos_site_id
 _symmetry_equiv_pos_as_xyz
  1  'x, y, z'
loop_
 _atom_site_type_symbol
 _atom_site_label
 _atom_site_symmetry_multiplicity
 _atom_site_fract_x
 _atom_site_fract_y
 _atom_site_fract_z
 _atom_site_occupancy
  Sr  Sr0  1  0.87221000  0.75000002  0.24999998  1
  Sr  Sr1  1  0.12779000  0.25000001  0.74999998  1
  I  I2  1  0.52884601  0.71576902  0.97404096  1
  I  I3  1  0.21865602  0.78423102  0.52595897  1
  I  I4  1  0.78134398  0.21576900  0.47404098  1
  I  I5  1  0.47115400  0.28423101  0.02595899  1
