# generated using pymatgen
data_MgCrGaS4
_symmetry_space_group_name_H-M   'P 1'
_cell_length_a   7.23857117
_cell_length_b   7.23928690
_cell_length_c   7.24784088
_cell_angle_alpha   119.89699554
_cell_angle_beta   119.63136292
_cell_angle_gamma   60.04386139
_symmetry_Int_Tables_number   1
_chemical_formula_structural   MgCrGaS4
_chemical_formula_sum   'Mg2 Cr2 Ga2 S8'
_cell_volume   269.60084593
_cell_formula_units_Z   2
loop_
 _symmetry_equiv_pos_site_id
 _symmetry_equiv_pos_as_xyz
  1  'x, y, z'
loop_
 _atom_site_type_symbol
 _atom_site_label
 _atom_site_symmetry_multiplicity
 _atom_site_fract_x
 _atom_site_fract_y
 _atom_site_fract_z
 _atom_site_occupancy
  Mg  Mg0  1  0.87488299  0.37481000  0.12459598  1
  Mg  Mg1  1  0.12511899  0.62517301  0.87540095  1
  Ga  Ga2  1  0.49999999  0.50000401  0.49998797  1
  Ga  Ga3  1  0.99999800  0.00001400  0.50000298  1
  Cr  Cr4  1  0.50002899  0.99998601  0.50001995  1
  Cr  Cr5  1  0.49996400  0.00003700  0.99998997  1
  S  S6  1  0.73883799  0.78578301  0.26329296  1
  S  S7  1  0.71445899  0.76141301  0.73707495  1
  S  S8  1  0.26220199  0.76184401  0.28645196  1
  S  S9  1  0.26081799  0.76140901  0.73542895  1
  S  S10  1  0.73780000  0.23816300  0.71354597  1
  S  S11  1  0.73917300  0.23858000  0.26455898  1
  S  S12  1  0.26118400  0.21420500  0.73671597  1
  S  S13  1  0.28553200  0.23858200  0.26293898  1
