# generated using pymatgen
data_CaCrF5
_symmetry_space_group_name_H-M   'P 1'
_cell_length_a   5.59296083
_cell_length_b   5.59296083
_cell_length_c   7.66059542
_cell_angle_alpha   69.71493530
_cell_angle_beta   69.71493530
_cell_angle_gamma   71.66869354
_symmetry_Int_Tables_number   1
_chemical_formula_structural   CaCrF5
_chemical_formula_sum   'Ca2 Cr2 F10'
_cell_volume   205.62362352
_cell_formula_units_Z   2
loop_
 _symmetry_equiv_pos_site_id
 _symmetry_equiv_pos_as_xyz
  1  'x, y, z'
loop_
 _atom_site_type_symbol
 _atom_site_label
 _atom_site_symmetry_multiplicity
 _atom_site_fract_x
 _atom_site_fract_y
 _atom_site_fract_z
 _atom_site_occupancy
  Ca  Ca0  1  0.54637797  0.45362198  0.25000003  1
  Ca  Ca1  1  0.45362197  0.54637798  0.75000003  1
  Cr  Cr2  1  0.00000000  0.00000000  0.50000000  1
  Cr  Cr3  1  0.00000000  0.00000000  0.00000000  1
  F  F4  1  0.09218898  0.90781097  0.75000003  1
  F  F5  1  0.90781096  0.09218900  0.25000003  1
  F  F6  1  0.20530999  0.24215099  0.88353601  1
  F  F7  1  0.75784895  0.79468997  0.61646405  1
  F  F8  1  0.71259496  0.30106799  0.53413603  1
  F  F9  1  0.69893197  0.28740499  0.96586403  1
  F  F10  1  0.28740497  0.69893197  0.46586403  1
  F  F11  1  0.30106797  0.71259497  0.03413603  1
  F  F12  1  0.24215099  0.20530999  0.38353601  1
  F  F13  1  0.79468995  0.75784897  0.11646405  1
