# generated using pymatgen
data_K4Ge4AsSe11
_symmetry_space_group_name_H-M   'P 1'
_cell_length_a   7.43749714
_cell_length_b   8.02893353
_cell_length_c   10.93008041
_cell_angle_alpha   90.00000000
_cell_angle_beta   90.00000000
_cell_angle_gamma   90.00000000
_symmetry_Int_Tables_number   1
_chemical_formula_structural   K4Ge4AsSe11
_chemical_formula_sum   'K4 Ge4 As1 Se11'
_cell_volume   652.69161136
_cell_formula_units_Z   1
loop_
 _symmetry_equiv_pos_site_id
 _symmetry_equiv_pos_as_xyz
  1  'x, y, z'
loop_
 _atom_site_type_symbol
 _atom_site_label
 _atom_site_symmetry_multiplicity
 _atom_site_fract_x
 _atom_site_fract_y
 _atom_site_fract_z
 _atom_site_occupancy
  K  K0  1  0.97485398  0.42427403  0.75012797  1
  K  K1  1  0.47485399  0.07572600  0.25012799  1
  K  K2  1  0.52514599  0.92427405  0.75012797  1
  K  K3  1  0.02514600  0.57572603  0.25012799  1
  Ge  Ge4  1  0.48559799  0.46959203  0.51968798  1
  Ge  Ge5  1  0.51440199  0.53040803  0.01968800  1
  Ge  Ge6  1  0.01440200  0.96959206  0.51968798  1
  Ge  Ge7  1  0.98559798  0.03040800  0.01968800  1
  As  As8  1  0.33002399  0.77788205  0.03981300  1
  Se  Se9  1  0.16997600  0.27788202  0.03981300  1
  Se  Se10  1  0.83002398  0.72211804  0.53981298  1
  Se  Se11  1  0.28586899  0.81923505  0.47092598  1
  Se  Se12  1  0.21413100  0.31923502  0.47092598  1
  Se  Se13  1  0.78586899  0.68076504  0.97092596  1
  Se  Se14  1  0.42798199  0.49746703  0.73464397  1
  Se  Se15  1  0.71413099  0.18076501  0.97092596  1
  Se  Se16  1  0.92798198  0.00253300  0.23464399  1
  Se  Se17  1  0.57201799  0.50253303  0.23464399  1
  Se  Se18  1  0.07201800  0.99746706  0.73464397  1
  Se  Se19  1  0.66997599  0.22211801  0.53981298  1
