# generated using pymatgen
data_ZrCrCuS4
_symmetry_space_group_name_H-M   'P 1'
_cell_length_a   3.57578206
_cell_length_b   6.04093266
_cell_length_c   6.79997540
_cell_angle_alpha   115.54981232
_cell_angle_beta   105.24375916
_cell_angle_gamma   90.00000000
_symmetry_Int_Tables_number   1
_chemical_formula_structural   ZrCrCuS4
_chemical_formula_sum   'Zr1 Cr1 Cu1 S4'
_cell_volume   126.77042133
_cell_formula_units_Z   1
loop_
 _symmetry_equiv_pos_site_id
 _symmetry_equiv_pos_as_xyz
  1  'x, y, z'
loop_
 _atom_site_type_symbol
 _atom_site_label
 _atom_site_symmetry_multiplicity
 _atom_site_fract_x
 _atom_site_fract_y
 _atom_site_fract_z
 _atom_site_occupancy
  Zr  Zr0  1  0.75613803  0.74447903  0.51227606  1
  Cr  Cr1  1  0.24368401  0.25734301  0.48736803  1
  Cu  Cu2  1  0.50049202  0.48418802  0.00098404  1
  S  S3  1  0.62448101  0.28778401  0.24896203  1
  S  S4  1  0.37966003  0.69921403  0.75932006  1
  S  S5  1  0.13120304  0.80876004  0.26240605  1
  S  S6  1  0.86434200  0.21823201  0.72868404  1
