# generated using pymatgen
data_RbAsCl2
_symmetry_space_group_name_H-M   'P 1'
_cell_length_a   6.65780830
_cell_length_b   6.65780830
_cell_length_c   8.28966331
_cell_angle_alpha   66.32345581
_cell_angle_beta   66.32345581
_cell_angle_gamma   59.99999619
_symmetry_Int_Tables_number   1
_chemical_formula_structural   RbAsCl2
_chemical_formula_sum   'Rb2 As2 Cl4'
_cell_volume   281.94275105
_cell_formula_units_Z   2
loop_
 _symmetry_equiv_pos_site_id
 _symmetry_equiv_pos_as_xyz
  1  'x, y, z'
loop_
 _atom_site_type_symbol
 _atom_site_label
 _atom_site_symmetry_multiplicity
 _atom_site_fract_x
 _atom_site_fract_y
 _atom_site_fract_z
 _atom_site_occupancy
  Rb  Rb0  1  0.49999998  0.50000000  0.49999998  1
  Rb  Rb1  1  0.91821897  0.91821900  0.24534299  1
  Cl  Cl2  1  0.08178100  0.08178100  0.75465698  1
  As  As3  1  0.24773499  0.24773500  0.25679499  1
  As  As4  1  0.75226498  0.75226500  0.74320497  1
  Cl  Cl5  1  0.50000000  0.00000000  -0.00000000  1
  Cl  Cl6  1  -0.00000001  0.50000000  -0.00000000  1
  Cl  Cl7  1  0.49999998  0.50000000  -0.00000000  1
