# generated using pymatgen
data_LuTaO4
_symmetry_space_group_name_H-M   'P 1'
_cell_length_a   5.10296392
_cell_length_b   5.48378706
_cell_length_c   5.28599453
_cell_angle_alpha   90.00000000
_cell_angle_beta   83.81983948
_cell_angle_gamma   90.00000000
_symmetry_Int_Tables_number   1
_chemical_formula_structural   LuTaO4
_chemical_formula_sum   'Lu2 Ta2 O8'
_cell_volume   147.06131263
_cell_formula_units_Z   2
loop_
 _symmetry_equiv_pos_site_id
 _symmetry_equiv_pos_as_xyz
  1  'x, y, z'
loop_
 _atom_site_type_symbol
 _atom_site_label
 _atom_site_symmetry_multiplicity
 _atom_site_fract_x
 _atom_site_fract_y
 _atom_site_fract_z
 _atom_site_occupancy
  Lu  Lu0  1  0.00000000  0.23066400  0.25000000  1
  Lu  Lu1  1  0.00000000  0.76933599  0.75000001  1
  Ta  Ta2  1  0.50000001  0.30464200  0.74999998  1
  Ta  Ta3  1  0.50000001  0.69535799  0.24999997  1
  O  O4  1  0.73295002  0.43288700  0.99939196  1
  O  O5  1  0.26705001  0.43288700  0.50060799  1
  O  O6  1  0.26705001  0.56711299  0.00060798  1
  O  O7  1  0.73295002  0.56711299  0.49939196  1
  O  O8  1  0.24700301  0.91578199  0.40387599  1
  O  O9  1  0.75299702  0.91578199  0.09612396  1
  O  O10  1  0.75299702  0.08421800  0.59612396  1
  O  O11  1  0.24700301  0.08421800  0.90387599  1
