# generated using pymatgen
data_Na3NiF6
_symmetry_space_group_name_H-M   'P 1'
_cell_length_a   5.51243019
_cell_length_b   5.78268385
_cell_length_c   7.96847010
_cell_angle_alpha   90.00000000
_cell_angle_beta   90.66510773
_cell_angle_gamma   90.00000000
_symmetry_Int_Tables_number   1
_chemical_formula_structural   Na3NiF6
_chemical_formula_sum   'Na6 Ni2 F12'
_cell_volume   253.99094688
_cell_formula_units_Z   2
loop_
 _symmetry_equiv_pos_site_id
 _symmetry_equiv_pos_as_xyz
  1  'x, y, z'
loop_
 _atom_site_type_symbol
 _atom_site_label
 _atom_site_symmetry_multiplicity
 _atom_site_fract_x
 _atom_site_fract_y
 _atom_site_fract_z
 _atom_site_occupancy
  Na  Na0  1  0.02111900  0.44082901  0.74236598  1
  Na  Na1  1  0.47888098  0.94082902  0.75763396  1
  Na  Na2  1  0.97888097  0.55917101  0.25763395  1
  Na  Na3  1  0.52111898  0.05917100  0.24236597  1
  Na  Na4  1  0.49999998  0.50000001  -0.00000002  1
  Na  Na5  1  0.00000000  0.00000000  0.49999999  1
  Ni  Ni6  1  0.49999998  0.50000001  0.49999996  1
  Ni  Ni7  1  0.00000000  0.00000000  0.00000000  1
  F  F8  1  0.67061598  0.77221702  0.42376296  1
  F  F9  1  0.82938397  0.27221701  0.07623696  1
  F  F10  1  0.32938399  0.22778301  0.57623697  1
  F  F11  1  0.17061599  0.72778302  0.92376297  1
  F  F12  1  0.21819199  0.67896102  0.54878798  1
  F  F13  1  0.28180799  0.17896100  0.95121196  1
  F  F14  1  0.78180797  0.32103901  0.45121195  1
  F  F15  1  0.71819197  0.82103902  0.04878797  1
  F  F16  1  0.11908500  0.94047802  0.22332099  1
  F  F17  1  0.38091499  0.44047801  0.27667898  1
  F  F18  1  0.88091497  0.05952200  0.77667894  1
  F  F19  1  0.61908498  0.55952201  0.72332095  1
