# generated using pymatgen
data_Na5FeSCl2O
_symmetry_space_group_name_H-M   'P 1'
_cell_length_a   5.82415104
_cell_length_b   5.82415104
_cell_length_c   6.81685305
_cell_angle_alpha   66.21533966
_cell_angle_beta   66.21533966
_cell_angle_gamma   87.88700104
_symmetry_Int_Tables_number   1
_chemical_formula_structural   Na5FeSCl2O
_chemical_formula_sum   'Na5 Fe1 S1 Cl2 O1'
_cell_volume   191.42550122
_cell_formula_units_Z   1
loop_
 _symmetry_equiv_pos_site_id
 _symmetry_equiv_pos_as_xyz
  1  'x, y, z'
loop_
 _atom_site_type_symbol
 _atom_site_label
 _atom_site_symmetry_multiplicity
 _atom_site_fract_x
 _atom_site_fract_y
 _atom_site_fract_z
 _atom_site_occupancy
  Na  Na0  1  0.85483994  0.85483998  0.85532803  1
  Na  Na1  1  0.32230594  0.96900797  0.77442203  1
  Na  Na2  1  0.03099196  0.67769398  0.22557802  1
  Na  Na3  1  0.96900796  0.32230599  0.77442202  1
  Na  Na4  1  0.67769399  0.03099200  0.22557800  1
  Fe  Fe5  1  0.14515999  0.14516000  0.14467201  1
  Cl  Cl6  1  0.23259796  0.76740198  0.50000002  1
  S  S7  1  0.49999996  0.49999999  0.00000001  1
  Cl  Cl8  1  0.76740197  0.23259799  0.50000001  1
  O  O9  1  0.00000000  0.00000000  0.00000000  1
