# generated using pymatgen
data_HfO2
_symmetry_space_group_name_H-M   'P 1'
_cell_length_a   4.90986776
_cell_length_b   5.86560202
_cell_length_c   5.87263870
_cell_angle_alpha   112.62828827
_cell_angle_beta   90.00000000
_cell_angle_gamma   90.00000000
_symmetry_Int_Tables_number   1
_chemical_formula_structural   HfO2
_chemical_formula_sum   'Hf4 O8'
_cell_volume   156.10864569
_cell_formula_units_Z   4
loop_
 _symmetry_equiv_pos_site_id
 _symmetry_equiv_pos_as_xyz
  1  'x, y, z'
loop_
 _atom_site_type_symbol
 _atom_site_label
 _atom_site_symmetry_multiplicity
 _atom_site_fract_x
 _atom_site_fract_y
 _atom_site_fract_z
 _atom_site_occupancy
  Hf  Hf0  1  0.00000000  0.00000000  0.00000000  1
  Hf  Hf1  1  0.50000002  0.00000000  0.49999998  1
  Hf  Hf2  1  0.50000002  0.50000000  0.00000001  1
  Hf  Hf3  1  -0.00000000  0.50000000  0.49999999  1
  O  O4  1  0.30569301  0.85271800  0.15523100  1
  O  O5  1  0.19430701  0.85271800  0.65523099  1
  O  O6  1  0.68728103  0.65363600  0.35278100  1
  O  O7  1  0.81271904  0.65363600  0.85278098  1
  O  O8  1  0.18728101  0.34636400  0.14721900  1
  O  O9  1  0.31271902  0.34636400  0.64721898  1
  O  O10  1  0.80569304  0.14728200  0.34476899  1
  O  O11  1  0.69430703  0.14728200  0.84476898  1
