# generated using pymatgen
data_Na2V2O7
_symmetry_space_group_name_H-M   'P 1'
_cell_length_a   5.04812527
_cell_length_b   5.92034197
_cell_length_c   5.92034197
_cell_angle_alpha   74.98178101
_cell_angle_beta   82.78104401
_cell_angle_gamma   97.21895599
_symmetry_Int_Tables_number   1
_chemical_formula_structural   Na2V2O7
_chemical_formula_sum   'Na2 V2 O7'
_cell_volume   167.21334416
_cell_formula_units_Z   1
loop_
 _symmetry_equiv_pos_site_id
 _symmetry_equiv_pos_as_xyz
  1  'x, y, z'
loop_
 _atom_site_type_symbol
 _atom_site_label
 _atom_site_symmetry_multiplicity
 _atom_site_fract_x
 _atom_site_fract_y
 _atom_site_fract_z
 _atom_site_occupancy
  Na  Na0  1  0.49999998  0.30424000  0.30424002  1
  Na  Na1  1  0.49999996  0.69575999  0.69576002  1
  V  V2  1  0.91245599  0.22717100  0.77282903  1
  V  V3  1  0.08754396  0.77282899  0.22717101  1
  O  O4  1  0.71740398  0.39549399  0.91489002  1
  O  O5  1  0.71740400  0.08511000  0.60450602  1
  O  O6  1  0.22062298  0.39494599  0.60505401  1
  O  O7  1  0.77937697  0.60505399  0.39494603  1
  O  O8  1  0.00000000  0.00000000  0.00000000  1
  O  O9  1  0.28259597  0.60450599  0.08511001  1
  O  O10  1  0.28259595  0.91488999  0.39549401  1
