# generated using pymatgen
data_Li(TeO2)3
_symmetry_space_group_name_H-M   'P 1'
_cell_length_a   5.33647823
_cell_length_b   5.65867376
_cell_length_c   7.61720562
_cell_angle_alpha   94.69296265
_cell_angle_beta   90.23385620
_cell_angle_gamma   90.09071350
_symmetry_Int_Tables_number   1
_chemical_formula_structural   Li(TeO2)3
_chemical_formula_sum   'Li2 Te6 O12'
_cell_volume   229.24623615
_cell_formula_units_Z   2
loop_
 _symmetry_equiv_pos_site_id
 _symmetry_equiv_pos_as_xyz
  1  'x, y, z'
loop_
 _atom_site_type_symbol
 _atom_site_label
 _atom_site_symmetry_multiplicity
 _atom_site_fract_x
 _atom_site_fract_y
 _atom_site_fract_z
 _atom_site_occupancy
  Li  Li0  1  0.48683701  0.06799200  0.71740103  1
  Li  Li1  1  0.98697300  0.56885098  0.21751806  1
  Te  Te2  1  0.99102301  0.48833698  0.75950807  1
  Te  Te3  1  0.49084796  0.98918797  0.25902506  1
  Te  Te4  1  0.48747699  0.49129298  0.00805004  1
  Te  Te5  1  0.98764598  0.99159897  0.50823608  1
  Te  Te6  1  0.48925499  0.49730298  0.50504505  1
  Te  Te7  1  0.98923498  0.99732297  0.00507707  1
  O  O8  1  0.77972201  0.31164099  0.58924105  1
  O  O9  1  0.27909896  0.81145697  0.08997304  1
  O  O10  1  0.83734099  0.67074498  0.95677907  1
  O  O11  1  0.33733600  0.17080899  0.45661903  1
  O  O12  1  0.35358299  0.46293198  0.75042804  1
  O  O13  1  0.85316098  0.96441397  0.25032707  1
  O  O14  1  0.68447902  0.14470800  0.94123805  1
  O  O15  1  0.18412397  0.64483898  0.44203304  1
  O  O16  1  0.12511695  0.98334197  0.77152806  1
  O  O17  1  0.62448300  0.48455798  0.27138004  1
  O  O18  1  0.65111498  0.78751797  0.58243906  1
  O  O19  1  0.15095299  0.28785699  0.08215502  1
