# generated using pymatgen
data_Mn2Cu4F11
_symmetry_space_group_name_H-M   'P 1'
_cell_length_a   5.24462318
_cell_length_b   6.66145754
_cell_length_c   8.39387035
_cell_angle_alpha   75.40542603
_cell_angle_beta   89.07386017
_cell_angle_gamma   69.83207703
_symmetry_Int_Tables_number   1
_chemical_formula_structural   Mn2Cu4F11
_chemical_formula_sum   'Mn2 Cu4 F11'
_cell_volume   265.58407242
_cell_formula_units_Z   1
loop_
 _symmetry_equiv_pos_site_id
 _symmetry_equiv_pos_as_xyz
  1  'x, y, z'
loop_
 _atom_site_type_symbol
 _atom_site_label
 _atom_site_symmetry_multiplicity
 _atom_site_fract_x
 _atom_site_fract_y
 _atom_site_fract_z
 _atom_site_occupancy
  Cu  Cu0  1  0.60984600  0.57493598  0.39483801  1
  Mn  Mn1  1  0.89968001  0.97466796  0.01119700  1
  Cu  Cu2  1  0.64447100  0.59949997  0.80934101  1
  Cu  Cu3  1  0.32201500  0.18251999  0.73953401  1
  Cu  Cu4  1  0.85184297  0.00817300  0.39453899  1
  Mn  Mn5  1  0.18765601  0.44540898  0.19758201  1
  F  F6  1  0.55769499  0.18182199  0.91038201  1
  F  F7  1  0.02613102  0.44283298  0.80974802  1
  F  F8  1  0.17118804  0.97081096  0.86241903  1
  F  F9  1  0.52207001  0.54038598  0.61702701  1
  F  F10  1  0.91486297  0.12771299  0.16876399  1
  F  F11  1  0.98060498  0.40073798  0.38464500  1
  F  F12  1  0.55184199  0.26713699  0.40446100  1
  F  F13  1  0.64759302  0.88884296  0.69945401  1
  F  F14  1  0.62736002  0.86720496  0.33571201  1
  F  F15  1  0.88357000  0.68954097  0.05675100  1
  F  F16  1  0.29837402  0.67296597  0.24370501  1
