# generated using pymatgen
data_NaLi2V2F6
_symmetry_space_group_name_H-M   'P 1'
_cell_length_a   5.42611408
_cell_length_b   5.42611408
_cell_length_c   7.79273224
_cell_angle_alpha   110.37433624
_cell_angle_beta   110.37433624
_cell_angle_gamma   90.00000000
_symmetry_Int_Tables_number   1
_chemical_formula_structural   NaLi2V2F6
_chemical_formula_sum   'Na1 Li2 V2 F6'
_cell_volume   199.70175260
_cell_formula_units_Z   1
loop_
 _symmetry_equiv_pos_site_id
 _symmetry_equiv_pos_as_xyz
  1  'x, y, z'
loop_
 _atom_site_type_symbol
 _atom_site_label
 _atom_site_symmetry_multiplicity
 _atom_site_fract_x
 _atom_site_fract_y
 _atom_site_fract_z
 _atom_site_occupancy
  Na  Na0  1  0.00000000  0.00000000  0.00000000  1
  Li  Li1  1  0.31392998  0.31392999  0.62785997  1
  Li  Li2  1  0.68606996  0.68606998  0.37213995  1
  V  V3  1  0.80809295  0.76134298  0.16367295  1
  V  V4  1  0.40812096  0.99642297  0.38612395  1
  F  F5  1  0.23865797  0.64442098  0.83632796  1
  F  F6  1  0.59766998  0.19190699  0.83632797  1
  F  F7  1  0.00357600  0.02199600  0.61387499  1
  F  F8  1  0.61029897  0.59187898  0.61387596  1
  F  F9  1  0.35557898  0.40232899  0.16367098  1
  F  F10  1  0.97800296  0.38970099  0.38612496  1
