# generated using pymatgen
data_LiVF4
_symmetry_space_group_name_H-M   'P 1'
_cell_length_a   3.12533998
_cell_length_b   5.48454523
_cell_length_c   5.49905014
_cell_angle_alpha   117.78393555
_cell_angle_beta   90.00000000
_cell_angle_gamma   106.55421448
_symmetry_Int_Tables_number   1
_chemical_formula_structural   LiVF4
_chemical_formula_sum   'Li1 V1 F4'
_cell_volume   78.94959886
_cell_formula_units_Z   1
loop_
 _symmetry_equiv_pos_site_id
 _symmetry_equiv_pos_as_xyz
  1  'x, y, z'
loop_
 _atom_site_type_symbol
 _atom_site_label
 _atom_site_symmetry_multiplicity
 _atom_site_fract_x
 _atom_site_fract_y
 _atom_site_fract_z
 _atom_site_occupancy
  Li  Li0  1  0.50000000  0.00000000  0.49999999  1
  V  V1  1  0.00000000  0.00000000  0.00000000  1
  F  F2  1  0.38455806  0.76911602  0.02414901  1
  F  F3  1  0.09150801  0.18301600  0.39858700  1
  F  F4  1  0.61544202  0.23088400  0.97585099  1
  F  F5  1  0.90849206  0.81698402  0.60141300  1
