# generated using pymatgen
data_CrHO2
_symmetry_space_group_name_H-M   'P 1'
_cell_length_a   4.83727264
_cell_length_b   5.29941607
_cell_length_c   6.11488295
_cell_angle_alpha   90.00000000
_cell_angle_beta   89.99998474
_cell_angle_gamma   111.46181488
_symmetry_Int_Tables_number   1
_chemical_formula_structural   CrHO2
_chemical_formula_sum   'Cr4 H4 O8'
_cell_volume   145.88429322
_cell_formula_units_Z   4
loop_
 _symmetry_equiv_pos_site_id
 _symmetry_equiv_pos_as_xyz
  1  'x, y, z'
loop_
 _atom_site_type_symbol
 _atom_site_label
 _atom_site_symmetry_multiplicity
 _atom_site_fract_x
 _atom_site_fract_y
 _atom_site_fract_z
 _atom_site_occupancy
  Cr  Cr0  1  0.00226200  0.00685700  0.99956601  1
  Cr  Cr1  1  0.00225801  0.50685501  0.75043403  1
  Cr  Cr2  1  0.99774206  0.99314501  0.49956607  1
  Cr  Cr3  1  0.99773804  0.49314301  0.25043404  1
  H  H4  1  0.53598602  0.01499900  0.74940601  1
  H  H5  1  0.46401403  0.48500101  0.50059403  1
  H  H6  1  0.46401004  0.98499901  0.24940606  1
  H  H7  1  0.53599003  0.51500101  0.00059403  1
  O  O8  1  0.21927402  0.40899000  0.99892503  1
  O  O9  1  0.77401602  0.09355300  0.74808202  1
  O  O10  1  0.21927803  0.90899201  0.75107506  1
  O  O11  1  0.78072204  0.59100801  0.49892504  1
  O  O12  1  0.22598402  0.40644700  0.50191803  1
  O  O13  1  0.78072602  0.09101000  0.25107501  1
  O  O14  1  0.22598403  0.90644701  0.24808205  1
  O  O15  1  0.77401604  0.59355301  0.00191804  1
