# generated using pymatgen
data_Li2MgCl4
_symmetry_space_group_name_H-M   'P 1'
_cell_length_a   7.41190195
_cell_length_b   7.43162823
_cell_length_c   7.43162823
_cell_angle_alpha   60.50789261
_cell_angle_beta   60.08776474
_cell_angle_gamma   60.08776474
_symmetry_Int_Tables_number   1
_chemical_formula_structural   Li2MgCl4
_chemical_formula_sum   'Li4 Mg2 Cl8'
_cell_volume   290.93852259
_cell_formula_units_Z   2
loop_
 _symmetry_equiv_pos_site_id
 _symmetry_equiv_pos_as_xyz
  1  'x, y, z'
loop_
 _atom_site_type_symbol
 _atom_site_label
 _atom_site_symmetry_multiplicity
 _atom_site_fract_x
 _atom_site_fract_y
 _atom_site_fract_z
 _atom_site_occupancy
  Li  Li0  1  0.13437998  0.61562000  0.11562001  1
  Li  Li1  1  0.49999998  1.00000000  0.50000000  1
  Li  Li2  1  1.00000002  0.00000000  0.49999996  1
  Li  Li3  1  0.86562001  0.38438000  0.88437997  1
  Mg  Mg4  1  0.50000001  0.00000000  0.99999997  1
  Mg  Mg5  1  0.50000000  0.50000000  0.49999999  1
  Cl  Cl6  1  0.73033899  0.75337900  0.25337899  1
  Cl  Cl7  1  0.26290298  0.75337900  0.25337901  1
  Cl  Cl8  1  0.26219100  0.22521800  0.25039999  1
  Cl  Cl9  1  0.26219098  0.75040000  0.72521801  1
  Cl  Cl10  1  0.73780901  0.24960000  0.27478198  1
  Cl  Cl11  1  0.73780899  0.77478200  0.74959999  1
  Cl  Cl12  1  0.73709701  0.24662100  0.74662097  1
  Cl  Cl13  1  0.26966100  0.24662100  0.74662099  1
