# generated using pymatgen
data_Ba3BiN
_symmetry_space_group_name_H-M   'P 1'
_cell_length_a   6.80394411
_cell_length_b   7.78049612
_cell_length_c   7.78049660
_cell_angle_alpha   60.00000381
_cell_angle_beta   90.00000000
_cell_angle_gamma   90.00000000
_symmetry_Int_Tables_number   1
_chemical_formula_structural   Ba3BiN
_chemical_formula_sum   'Ba6 Bi2 N2'
_cell_volume   356.70236892
_cell_formula_units_Z   2
loop_
 _symmetry_equiv_pos_site_id
 _symmetry_equiv_pos_as_xyz
  1  'x, y, z'
loop_
 _atom_site_type_symbol
 _atom_site_label
 _atom_site_symmetry_multiplicity
 _atom_site_fract_x
 _atom_site_fract_y
 _atom_site_fract_z
 _atom_site_occupancy
  Ba  Ba0  1  0.74999999  0.15728500  0.68543001  1
  Ba  Ba1  1  0.25000000  0.31457099  0.84271402  1
  Ba  Ba2  1  0.25000000  0.84271498  0.84271403  1
  Ba  Ba3  1  0.25000000  0.84271498  0.31457002  1
  Ba  Ba4  1  0.74999999  0.15728500  0.15728600  1
  Ba  Ba5  1  0.74999999  0.68542898  0.15728601  1
  Bi  Bi6  1  0.25000000  0.33333333  0.33333334  1
  Bi  Bi7  1  0.74999999  0.66666665  0.66666669  1
  N  N8  1  0.00000000  0.00000000  0.00000000  1
  N  N9  1  0.49999999  0.00000000  0.00000000  1
