# generated using pymatgen
data_SrTiO3
_symmetry_space_group_name_H-M   'P 1'
_cell_length_a   5.54876709
_cell_length_b   5.61187983
_cell_length_c   8.02617073
_cell_angle_alpha   90.00000000
_cell_angle_beta   90.00000000
_cell_angle_gamma   90.00000000
_symmetry_Int_Tables_number   1
_chemical_formula_structural   SrTiO3
_chemical_formula_sum   'Sr4 Ti4 O12'
_cell_volume   249.92704346
_cell_formula_units_Z   4
loop_
 _symmetry_equiv_pos_site_id
 _symmetry_equiv_pos_as_xyz
  1  'x, y, z'
loop_
 _atom_site_type_symbol
 _atom_site_label
 _atom_site_symmetry_multiplicity
 _atom_site_fract_x
 _atom_site_fract_y
 _atom_site_fract_z
 _atom_site_occupancy
  Sr  Sr0  1  0.49694799  0.98919503  0.26071601  1
  Sr  Sr1  1  0.50305199  0.01080500  0.76071603  1
  Sr  Sr2  1  0.99694798  0.51080502  0.76071603  1
  Sr  Sr3  1  0.00305200  0.48919502  0.26071601  1
  Ti  Ti4  1  0.50204399  0.51273102  0.01435300  1
  Ti  Ti5  1  0.49795599  0.48726902  0.51435302  1
  Ti  Ti6  1  0.00204400  0.98726903  0.51435302  1
  Ti  Ti7  1  0.99795598  0.01273100  0.01435300  1
  O  O8  1  0.93508298  0.00956900  0.24601201  1
  O  O9  1  0.06491700  0.99043103  0.74601203  1
  O  O10  1  0.43508299  0.49043102  0.74601203  1
  O  O11  1  0.56491699  0.50956902  0.24601201  1
  O  O12  1  0.21257500  0.70648202  0.02807300  1
  O  O13  1  0.78742499  0.29351801  0.52807302  1
  O  O14  1  0.71257499  0.79351802  0.52807302  1
  O  O15  1  0.28742500  0.20648201  0.02807300  1
  O  O16  1  0.78042899  0.27365101  0.96274703  1
  O  O17  1  0.21957100  0.72634902  0.46274702  1
  O  O18  1  0.28042900  0.22634901  0.46274702  1
  O  O19  1  0.71957099  0.77365102  0.96274703  1
