# generated using pymatgen
data_CdInO2
_symmetry_space_group_name_H-M   'P 1'
_cell_length_a   3.65526414
_cell_length_b   3.65526414
_cell_length_c   6.34462357
_cell_angle_alpha   73.25814819
_cell_angle_beta   73.25814819
_cell_angle_gamma   59.99999619
_symmetry_Int_Tables_number   1
_chemical_formula_structural   CdInO2
_chemical_formula_sum   'Cd1 In1 O2'
_cell_volume   69.23301663
_cell_formula_units_Z   1
loop_
 _symmetry_equiv_pos_site_id
 _symmetry_equiv_pos_as_xyz
  1  'x, y, z'
loop_
 _atom_site_type_symbol
 _atom_site_label
 _atom_site_symmetry_multiplicity
 _atom_site_fract_x
 _atom_site_fract_y
 _atom_site_fract_z
 _atom_site_occupancy
  Cd  Cd0  1  0.50045103  0.50045101  0.49864697  1
  In  In1  1  0.00103200  0.00103200  0.99690403  1
  O  O2  1  0.13149501  0.13149500  0.60551501  1
  O  O3  1  0.61702304  0.61702302  0.14893095  1
