# generated using pymatgen
data_CdHg3O2
_symmetry_space_group_name_H-M   'P 1'
_cell_length_a   2.94843698
_cell_length_b   5.12694407
_cell_length_c   5.93519592
_cell_angle_alpha   90.00000000
_cell_angle_beta   90.00000000
_cell_angle_gamma   90.00000000
_symmetry_Int_Tables_number   1
_chemical_formula_structural   CdHg3O2
_chemical_formula_sum   'Cd1 Hg3 O2'
_cell_volume   89.71921973
_cell_formula_units_Z   1
loop_
 _symmetry_equiv_pos_site_id
 _symmetry_equiv_pos_as_xyz
  1  'x, y, z'
loop_
 _atom_site_type_symbol
 _atom_site_label
 _atom_site_symmetry_multiplicity
 _atom_site_fract_x
 _atom_site_fract_y
 _atom_site_fract_z
 _atom_site_occupancy
  Cd  Cd0  1  0.50000000  0.33755300  0.87220301  1
  Hg  Hg1  1  0.50000000  0.66244699  0.12779700  1
  Hg  Hg2  1  0.00000000  0.16244700  0.37220300  1
  Hg  Hg3  1  0.00000000  0.83755299  0.62779701  1
  O  O4  1  0.50000000  0.49999999  0.50000001  1
  O  O5  1  0.00000000  0.00000000  0.00000000  1
