# generated using pymatgen
data_BaPr4MnF14
_symmetry_space_group_name_H-M   'P 1'
_cell_length_a   5.96095896
_cell_length_b   6.14552212
_cell_length_c   8.58480167
_cell_angle_alpha   90.00000000
_cell_angle_beta   90.59746552
_cell_angle_gamma   90.00000000
_symmetry_Int_Tables_number   1
_chemical_formula_structural   BaPr4MnF14
_chemical_formula_sum   'Ba1 Pr4 Mn1 F14'
_cell_volume   314.47170235
_cell_formula_units_Z   1
loop_
 _symmetry_equiv_pos_site_id
 _symmetry_equiv_pos_as_xyz
  1  'x, y, z'
loop_
 _atom_site_type_symbol
 _atom_site_label
 _atom_site_symmetry_multiplicity
 _atom_site_fract_x
 _atom_site_fract_y
 _atom_site_fract_z
 _atom_site_occupancy
  Ba  Ba0  1  0.50000000  0.00000000  -0.00000002  1
  Pr  Pr1  1  0.00000000  0.49999999  0.50000000  1
  Pr  Pr2  1  0.50000000  0.00000000  0.49999998  1
  Pr  Pr3  1  0.00000000  0.49999999  0.00000000  1
  Mn  Mn4  1  0.99579601  0.95865898  0.75309696  1
  Pr  Pr5  1  0.50420400  0.45865899  0.74690298  1
  F  F6  1  0.00420400  0.04134100  0.24690300  1
  F  F7  1  0.49579600  0.54134099  0.25309698  1
  F  F8  1  0.17273200  0.78535298  0.44872900  1
  F  F9  1  0.32726800  0.28535299  0.05127099  1
  F  F10  1  0.82726801  0.21464700  0.55127097  1
  F  F11  1  0.67273200  0.71464699  0.94872898  1
  F  F12  1  0.70706500  0.67779299  0.54333797  1
  F  F13  1  0.79293501  0.17779300  0.95666197  1
  F  F14  1  0.29293500  0.32220699  0.45666199  1
  F  F15  1  0.20706500  0.82220698  0.04333799  1
  F  F16  1  0.10137700  0.53004299  0.73742500  1
  F  F17  1  0.39862300  0.03004300  0.76257499  1
  F  F18  1  0.89862301  0.46995699  0.26257496  1
  F  F19  1  0.60137700  0.96995698  0.23742498  1
