# generated using pymatgen
data_KNb(WO4)2
_symmetry_space_group_name_H-M   'P 1'
_cell_length_a   5.55795383
_cell_length_b   5.58789968
_cell_length_c   7.27813053
_cell_angle_alpha   112.00307465
_cell_angle_beta   112.42661285
_cell_angle_gamma   90.36399078
_symmetry_Int_Tables_number   1
_chemical_formula_structural   KNb(WO4)2
_chemical_formula_sum   'K1 Nb1 W2 O8'
_cell_volume   190.76327799
_cell_formula_units_Z   1
loop_
 _symmetry_equiv_pos_site_id
 _symmetry_equiv_pos_as_xyz
  1  'x, y, z'
loop_
 _atom_site_type_symbol
 _atom_site_label
 _atom_site_symmetry_multiplicity
 _atom_site_fract_x
 _atom_site_fract_y
 _atom_site_fract_z
 _atom_site_occupancy
  K  K0  1  0.62779297  0.87626998  0.24896595  1
  Nb  Nb1  1  0.36918701  0.12652300  0.75375802  1
  W  W2  1  0.12371498  0.37653299  0.24839398  1
  W  W3  1  0.87921700  0.61710799  0.74737399  1
  O  O4  1  0.26784198  0.42667599  0.07508498  1
  O  O5  1  0.08134796  0.69510298  0.41727796  1
  O  O6  1  0.66152298  0.76171198  0.57418897  1
  O  O7  1  0.71803399  0.57823099  0.91346000  1
  O  O8  1  0.33933000  0.21376299  0.40646000  1
  O  O9  1  0.19580395  0.84291398  0.90950396  1
  O  O10  1  0.79730402  0.16814200  0.09292301  1
  O  O11  1  0.93268902  0.29568899  0.59112901  1
