# generated using pymatgen
data_K2VOF5
_symmetry_space_group_name_H-M   'P 1'
_cell_length_a   6.21078730
_cell_length_b   6.21078730
_cell_length_c   8.30277920
_cell_angle_alpha   85.44656372
_cell_angle_beta   85.44656372
_cell_angle_gamma   77.47280884
_symmetry_Int_Tables_number   1
_chemical_formula_structural   K2VOF5
_chemical_formula_sum   'K4 V2 O2 F10'
_cell_volume   311.02230854
_cell_formula_units_Z   2
loop_
 _symmetry_equiv_pos_site_id
 _symmetry_equiv_pos_as_xyz
  1  'x, y, z'
loop_
 _atom_site_type_symbol
 _atom_site_label
 _atom_site_symmetry_multiplicity
 _atom_site_fract_x
 _atom_site_fract_y
 _atom_site_fract_z
 _atom_site_occupancy
  K  K0  1  0.70060502  0.69569699  0.97763703  1
  K  K1  1  0.30430301  0.29939500  0.52236301  1
  K  K2  1  0.29939501  0.30430300  0.02236302  1
  K  K3  1  0.69569702  0.70060499  0.47763705  1
  V  V4  1  0.82061400  0.17938600  0.75000002  1
  V  V5  1  0.17938603  0.82061399  0.25000003  1
  O  O6  1  0.02672703  0.97327299  0.75000002  1
  O  O7  1  0.97327300  0.02672700  0.25000004  1
  F  F8  1  0.73106600  0.14772200  0.96901001  1
  F  F9  1  0.85227801  0.26893400  0.53099003  1
  F  F10  1  0.26893403  0.85227799  0.03099005  1
  F  F11  1  0.14772203  0.73106599  0.46901002  1
  F  F12  1  0.56419601  0.43580400  0.75000002  1
  F  F13  1  0.43580402  0.56419599  0.25000004  1
  F  F14  1  0.98383701  0.38908400  0.79560804  1
  F  F15  1  0.61091600  0.01616300  0.70439201  1
  F  F16  1  0.01616302  0.61091599  0.20439202  1
  F  F17  1  0.38908403  0.98383699  0.29560805  1
