# generated using pymatgen
data_K2PdC2
_symmetry_space_group_name_H-M   'P 1'
_cell_length_a   5.18601990
_cell_length_b   5.18602085
_cell_length_c   5.29606009
_cell_angle_alpha   90.00000000
_cell_angle_beta   90.00000000
_cell_angle_gamma   119.99999237
_symmetry_Int_Tables_number   1
_chemical_formula_structural   K2PdC2
_chemical_formula_sum   'K2 Pd1 C2'
_cell_volume   123.35365039
_cell_formula_units_Z   1
loop_
 _symmetry_equiv_pos_site_id
 _symmetry_equiv_pos_as_xyz
  1  'x, y, z'
loop_
 _atom_site_type_symbol
 _atom_site_label
 _atom_site_symmetry_multiplicity
 _atom_site_fract_x
 _atom_site_fract_y
 _atom_site_fract_z
 _atom_site_occupancy
  K  K0  1  0.33333331  0.66666664  0.27834500  1
  K  K1  1  0.66666666  0.33333332  0.72165499  1
  Pd  Pd2  1  0.00000000  0.00000000  0.00000000  1
  C  C3  1  0.00000000  0.00000000  0.38020999  1
  C  C4  1  0.00000000  0.00000000  0.61978999  1
