# generated using pymatgen
data_NaNiF3
_symmetry_space_group_name_H-M   'P 1'
_cell_length_a   3.18509007
_cell_length_b   5.41972208
_cell_length_c   7.51824903
_cell_angle_alpha   90.00000000
_cell_angle_beta   90.00000000
_cell_angle_gamma   107.08814240
_symmetry_Int_Tables_number   1
_chemical_formula_structural   NaNiF3
_chemical_formula_sum   'Na2 Ni2 F6'
_cell_volume   124.05290360
_cell_formula_units_Z   2
loop_
 _symmetry_equiv_pos_site_id
 _symmetry_equiv_pos_as_xyz
  1  'x, y, z'
loop_
 _atom_site_type_symbol
 _atom_site_label
 _atom_site_symmetry_multiplicity
 _atom_site_fract_x
 _atom_site_fract_y
 _atom_site_fract_z
 _atom_site_occupancy
  Na  Na0  1  0.74700294  0.49400598  0.75000000  1
  Na  Na1  1  0.25299695  0.50599398  0.25000000  1
  Ni  Ni2  1  0.00000000  0.00000000  0.50000000  1
  Ni  Ni3  1  0.00000000  0.00000000  0.00000000  1
  F  F4  1  0.08398998  0.16797999  0.75000000  1
  F  F5  1  0.91600990  0.83201997  0.25000000  1
  F  F6  1  0.63014096  0.26028199  0.44220000  1
  F  F7  1  0.36985892  0.73971797  0.55780000  1
  F  F8  1  0.63014096  0.26028199  0.05780000  1
  F  F9  1  0.36985892  0.73971797  0.94220000  1
