# generated using pymatgen
data_LiNd2HO3
_symmetry_space_group_name_H-M   'P 1'
_cell_length_a   3.50472593
_cell_length_b   3.71637011
_cell_length_c   6.84735107
_cell_angle_alpha   105.74597168
_cell_angle_beta   104.82801056
_cell_angle_gamma   90.00000000
_symmetry_Int_Tables_number   1
_chemical_formula_structural   LiNd2HO3
_chemical_formula_sum   'Li1 Nd2 H1 O3'
_cell_volume   82.74895808
_cell_formula_units_Z   1
loop_
 _symmetry_equiv_pos_site_id
 _symmetry_equiv_pos_as_xyz
  1  'x, y, z'
loop_
 _atom_site_type_symbol
 _atom_site_label
 _atom_site_symmetry_multiplicity
 _atom_site_fract_x
 _atom_site_fract_y
 _atom_site_fract_z
 _atom_site_occupancy
  Li  Li0  1  0.00000000  0.00000000  0.00000000  1
  Nd  Nd1  1  0.63595501  0.63595497  0.27190999  1
  Nd  Nd2  1  0.36404500  0.36404499  0.72809001  1
  H  H3  1  0.50000001  0.00000000  0.00000000  1
  O  O4  1  -0.00000000  0.49999998  -0.00000001  1
  O  O5  1  0.17648400  0.17648399  0.35296800  1
  O  O6  1  0.82351601  0.82351597  0.64703200  1
