# generated using pymatgen
data_AsO4
_symmetry_space_group_name_H-M   'P 1'
_cell_length_a   5.46281004
_cell_length_b   5.52763176
_cell_length_c   10.89258862
_cell_angle_alpha   91.75704956
_cell_angle_beta   91.67764282
_cell_angle_gamma   118.34329224
_symmetry_Int_Tables_number   1
_chemical_formula_structural   AsO4
_chemical_formula_sum   'As4 O16'
_cell_volume   288.99053486
_cell_formula_units_Z   4
loop_
 _symmetry_equiv_pos_site_id
 _symmetry_equiv_pos_as_xyz
  1  'x, y, z'
loop_
 _atom_site_type_symbol
 _atom_site_label
 _atom_site_symmetry_multiplicity
 _atom_site_fract_x
 _atom_site_fract_y
 _atom_site_fract_z
 _atom_site_occupancy
  As  As0  1  0.95726893  0.94077598  0.02622697  1
  As  As1  1  0.97638893  0.95703498  0.52099199  1
  As  As2  1  0.46037797  0.47556599  0.77784902  1
  As  As3  1  0.52374096  0.54382399  0.27248299  1
  O  O4  1  0.77418795  0.69556998  0.59517800  1
  O  O5  1  0.75149495  0.68370398  0.10885198  1
  O  O6  1  0.74771594  0.81763798  0.35885499  1
  O  O7  1  0.25943698  0.33169799  0.88771003  1
  O  O8  1  0.17180395  0.83023598  0.95034002  1
  O  O9  1  0.21824894  0.87209698  0.45215000  1
  O  O10  1  0.22779999  0.15007200  0.14051700  1
  O  O11  1  0.25443699  0.17552100  0.64798402  1
  O  O12  1  0.32377995  0.66830298  0.70193101  1
  O  O13  1  0.30487496  0.64981298  0.19456499  1
  O  O14  1  0.70807597  0.35444299  0.78249601  1
  O  O15  1  0.68096797  0.32923999  0.27380000  1
  O  O16  1  0.72974294  0.80837098  0.86277001  1
  O  O17  1  0.81104998  0.16518200  0.02972599  1
  O  O18  1  0.84206998  0.19154500  0.53235101  1
  O  O19  1  0.27653397  0.35936499  0.38322501  1
