# generated using pymatgen
data_TlCdI3
_symmetry_space_group_name_H-M   'P 1'
_cell_length_a   4.49742079
_cell_length_b   10.39580727
_cell_length_c   16.63770485
_cell_angle_alpha   90.00000000
_cell_angle_beta   90.00000000
_cell_angle_gamma   90.00000000
_symmetry_Int_Tables_number   1
_chemical_formula_structural   TlCdI3
_chemical_formula_sum   'Tl4 Cd4 I12'
_cell_volume   777.88457168
_cell_formula_units_Z   4
loop_
 _symmetry_equiv_pos_site_id
 _symmetry_equiv_pos_as_xyz
  1  'x, y, z'
loop_
 _atom_site_type_symbol
 _atom_site_label
 _atom_site_symmetry_multiplicity
 _atom_site_fract_x
 _atom_site_fract_y
 _atom_site_fract_z
 _atom_site_occupancy
  Tl  Tl0  1  0.25000001  0.45259699  0.17534599  1
  Tl  Tl1  1  0.75000004  0.54740299  0.82465396  1
  Tl  Tl2  1  0.25000001  0.95259698  0.32465398  1
  Tl  Tl3  1  0.75000004  0.04740300  0.67534597  1
  Cd  Cd4  1  0.25000001  0.16777100  0.94595295  1
  Cd  Cd5  1  0.75000004  0.83222898  0.05404700  1
  Cd  Cd6  1  0.25000001  0.66777098  0.55404697  1
  Cd  Cd7  1  0.75000004  0.33222899  0.44595298  1
  I  I8  1  0.75000004  0.48125699  0.60529997  1
  I  I9  1  0.25000001  0.51874299  0.39469998  1
  I  I10  1  0.75000004  0.98125697  0.89469995  1
  I  I11  1  0.25000001  0.01874300  0.10529999  1
  I  I12  1  0.75000004  0.33589299  0.01029500  1
  I  I13  1  0.25000001  0.66410698  0.98970495  1
  I  I14  1  0.75000004  0.83589298  0.48970498  1
  I  I15  1  0.25000001  0.16410700  0.51029497  1
  I  I16  1  0.75000004  0.21015199  0.28790599  1
  I  I17  1  0.25000001  0.78984798  0.71209396  1
  I  I18  1  0.75000004  0.71015198  0.21209399  1
  I  I19  1  0.25000001  0.28984799  0.78790596  1
