# generated using pymatgen
data_Na3Cl
_symmetry_space_group_name_H-M   'P 1'
_cell_length_a   4.62272406
_cell_length_b   4.62272406
_cell_length_c   15.27671051
_cell_angle_alpha   81.29774475
_cell_angle_beta   81.29774475
_cell_angle_gamma   60.00000000
_symmetry_Int_Tables_number   1
_chemical_formula_structural   Na3Cl
_chemical_formula_sum   'Na6 Cl2'
_cell_volume   278.37188313
_cell_formula_units_Z   2
loop_
 _symmetry_equiv_pos_site_id
 _symmetry_equiv_pos_as_xyz
  1  'x, y, z'
loop_
 _atom_site_type_symbol
 _atom_site_label
 _atom_site_symmetry_multiplicity
 _atom_site_fract_x
 _atom_site_fract_y
 _atom_site_fract_z
 _atom_site_occupancy
  Na  Na0  1  0.00338100  0.00338100  0.98985701  1
  Na  Na1  1  0.74647501  0.74647499  0.76057502  1
  Na  Na2  1  0.49899600  0.49899600  0.50301202  1
  Na  Na3  1  0.25108400  0.25108400  0.24674801  1
  Na  Na4  1  0.81008001  0.81007999  0.56976002  1
  Na  Na5  1  0.56236300  0.56236299  0.31291101  1
  Cl  Cl6  1  0.31447000  0.31447000  0.05659001  1
  Cl  Cl7  1  0.06315100  0.06315100  0.81054701  1
