# generated using pymatgen
data_TiH5O3F8
_symmetry_space_group_name_H-M   'P 1'
_cell_length_a   5.41595602
_cell_length_b   5.95268822
_cell_length_c   5.95268822
_cell_angle_alpha   120.00000000
_cell_angle_beta   90.00000000
_cell_angle_gamma   90.00000000
_symmetry_Int_Tables_number   1
_chemical_formula_structural   TiH5O3F8
_chemical_formula_sum   'Ti1 H5 O3 F8'
_cell_volume   166.20038792
_cell_formula_units_Z   1
loop_
 _symmetry_equiv_pos_site_id
 _symmetry_equiv_pos_as_xyz
  1  'x, y, z'
loop_
 _atom_site_type_symbol
 _atom_site_label
 _atom_site_symmetry_multiplicity
 _atom_site_fract_x
 _atom_site_fract_y
 _atom_site_fract_z
 _atom_site_occupancy
  Ti  Ti0  1  0.00000000  0.00000000  0.00000000  1
  H  H1  1  0.98928400  0.66666664  0.33333332  1
  H  H2  1  0.01071600  0.33333332  0.66666664  1
  H  H3  1  0.26064600  0.42861098  0.57138898  1
  H  H4  1  0.26064600  0.42861098  0.85722196  1
  H  H5  1  0.26064600  0.14277799  0.57138898  1
  O  O6  1  0.73935400  0.57138898  0.42861098  1
  O  O7  1  0.73935400  0.57138898  0.14277799  1
  O  O8  1  0.73935400  0.85722197  0.42861098  1
  F  F9  1  0.79890900  0.66666664  0.33333332  1
  F  F10  1  0.20109100  0.33333332  0.66666664  1
  F  F11  1  0.19951800  0.84874497  0.69748997  1
  F  F12  1  0.19951800  0.30251099  0.15125599  1
  F  F13  1  0.19951800  0.84874497  0.15125599  1
  F  F14  1  0.80048200  0.15125499  0.30250999  1
  F  F15  1  0.80048200  0.69748897  0.84874396  1
  F  F16  1  0.80048200  0.15125499  0.84874397  1
