# generated using pymatgen
data_KHoO2
_symmetry_space_group_name_H-M   'P 1'
_cell_length_a   3.49128532
_cell_length_b   3.49128532
_cell_length_c   6.58152342
_cell_angle_alpha   74.61914825
_cell_angle_beta   74.61914825
_cell_angle_gamma   60.00001144
_symmetry_Int_Tables_number   1
_chemical_formula_structural   KHoO2
_chemical_formula_sum   'K1 Ho1 O2'
_cell_volume   66.13633690
_cell_formula_units_Z   1
loop_
 _symmetry_equiv_pos_site_id
 _symmetry_equiv_pos_as_xyz
  1  'x, y, z'
loop_
 _atom_site_type_symbol
 _atom_site_label
 _atom_site_symmetry_multiplicity
 _atom_site_fract_x
 _atom_site_fract_y
 _atom_site_fract_z
 _atom_site_occupancy
  K  K0  1  0.00000000  0.00000000  0.00000000  1
  Ho  Ho1  1  0.50000000  0.50000001  0.50000000  1
  O  O2  1  0.22868200  0.22868200  0.31395400  1
  O  O3  1  0.77131800  0.77131801  0.68604599  1
