# generated using pymatgen
data_Y2MgSe4
_symmetry_space_group_name_H-M   'P 1'
_cell_length_a   8.14817238
_cell_length_b   8.14817238
_cell_length_c   8.14817238
_cell_angle_alpha   60.00000000
_cell_angle_beta   60.00000000
_cell_angle_gamma   60.00000000
_symmetry_Int_Tables_number   1
_chemical_formula_structural   Y2MgSe4
_chemical_formula_sum   'Y4 Mg2 Se8'
_cell_volume   382.53011108
_cell_formula_units_Z   2
loop_
 _symmetry_equiv_pos_site_id
 _symmetry_equiv_pos_as_xyz
  1  'x, y, z'
loop_
 _atom_site_type_symbol
 _atom_site_label
 _atom_site_symmetry_multiplicity
 _atom_site_fract_x
 _atom_site_fract_y
 _atom_site_fract_z
 _atom_site_occupancy
  Y  Y0  1  0.37500000  0.37500000  0.37500000  1
  Y  Y1  1  0.87500001  0.37500000  0.37500000  1
  Y  Y2  1  0.37500000  0.37500000  0.87500001  1
  Y  Y3  1  0.37500000  0.87500001  0.37500000  1
  Mg  Mg4  1  0.75000001  0.75000001  0.75000001  1
  Mg  Mg5  1  0.00000000  0.00000000  0.00000000  1
  Se  Se6  1  0.13083200  0.60750201  0.13083300  1
  Se  Se7  1  0.61916801  0.61916701  0.61916701  1
  Se  Se8  1  0.61916801  0.14249800  0.61916701  1
  Se  Se9  1  0.60750101  0.13083300  0.13083300  1
  Se  Se10  1  0.13083200  0.13083300  0.13083300  1
  Se  Se11  1  0.61916801  0.61916701  0.14249800  1
  Se  Se12  1  0.14249900  0.61916701  0.61916701  1
  Se  Se13  1  0.13083200  0.13083300  0.60750201  1
