# generated using pymatgen
data_Li3V3F8
_symmetry_space_group_name_H-M   'P 1'
_cell_length_a   5.79349995
_cell_length_b   5.80813503
_cell_length_c   6.23129368
_cell_angle_alpha   117.77799225
_cell_angle_beta   117.54113770
_cell_angle_gamma   89.99996185
_symmetry_Int_Tables_number   1
_chemical_formula_structural   Li3V3F8
_chemical_formula_sum   'Li3 V3 F8'
_cell_volume   158.16566982
_cell_formula_units_Z   1
loop_
 _symmetry_equiv_pos_site_id
 _symmetry_equiv_pos_as_xyz
  1  'x, y, z'
loop_
 _atom_site_type_symbol
 _atom_site_label
 _atom_site_symmetry_multiplicity
 _atom_site_fract_x
 _atom_site_fract_y
 _atom_site_fract_z
 _atom_site_occupancy
  Li  Li0  1  0.62513003  0.37511301  0.75024003  1
  Li  Li1  1  0.62496707  0.87501803  0.24999108  1
  Li  Li2  1  0.62497603  0.37498601  0.25000204  1
  V  V3  1  0.12499303  0.37499801  0.74998801  1
  V  V4  1  0.25022306  0.74987202  0.49974705  1
  V  V5  1  0.99976100  0.00010000  0.00020703  1
  F  F6  1  0.86924901  0.14078900  0.73766302  1
  F  F7  1  0.86924505  0.59687602  0.73766005  1
  F  F8  1  0.38075201  0.15310301  0.76230500  1
  F  F9  1  0.38075805  0.60920302  0.76230604  1
  F  F10  1  0.86093301  0.13185100  0.26370603  1
  F  F11  1  0.40420501  0.13031500  0.26063102  1
  F  F12  1  0.84578305  0.61964402  0.23929007  1
  F  F13  1  0.38902405  0.61813202  0.23626405  1
