# generated using pymatgen
data_Li2BeAgS2
_symmetry_space_group_name_H-M   'P 1'
_cell_length_a   3.89734292
_cell_length_b   4.40723324
_cell_length_c   5.90434885
_cell_angle_alpha   90.00000000
_cell_angle_beta   90.00000000
_cell_angle_gamma   90.00000000
_symmetry_Int_Tables_number   1
_chemical_formula_structural   Li2BeAgS2
_chemical_formula_sum   'Li2 Be1 Ag1 S2'
_cell_volume   101.41604365
_cell_formula_units_Z   1
loop_
 _symmetry_equiv_pos_site_id
 _symmetry_equiv_pos_as_xyz
  1  'x, y, z'
loop_
 _atom_site_type_symbol
 _atom_site_label
 _atom_site_symmetry_multiplicity
 _atom_site_fract_x
 _atom_site_fract_y
 _atom_site_fract_z
 _atom_site_occupancy
  Li  Li0  1  0.00000000  0.00000000  0.00000000  1
  Li  Li1  1  0.50000001  0.49999997  0.50000001  1
  Be  Be2  1  0.00000000  0.88665695  0.56446801  1
  Ag  Ag3  1  0.50000001  0.61334297  0.06446800  1
  S  S4  1  0.50000001  0.38665698  0.93553202  1
  S  S5  1  0.00000000  0.11334299  0.43553201  1
