# generated using pymatgen
data_K2GeAuO3
_symmetry_space_group_name_H-M   'P 1'
_cell_length_a   6.88580275
_cell_length_b   6.88580275
_cell_length_c   6.89648628
_cell_angle_alpha   97.54331970
_cell_angle_beta   97.54331970
_cell_angle_gamma   115.61289978
_symmetry_Int_Tables_number   1
_chemical_formula_structural   K2GeAuO3
_chemical_formula_sum   'K4 Ge2 Au2 O6'
_cell_volume   285.76928481
_cell_formula_units_Z   2
loop_
 _symmetry_equiv_pos_site_id
 _symmetry_equiv_pos_as_xyz
  1  'x, y, z'
loop_
 _atom_site_type_symbol
 _atom_site_label
 _atom_site_symmetry_multiplicity
 _atom_site_fract_x
 _atom_site_fract_y
 _atom_site_fract_z
 _atom_site_occupancy
  K  K0  1  0.37061601  0.37061600  0.65408798  1
  K  K1  1  0.62938401  0.62938399  0.34591198  1
  K  K2  1  0.79972399  0.20027600  0.49999998  1
  K  K3  1  0.20027603  0.79972399  0.49999998  1
  Au  Au4  1  0.73479199  0.26520800  -0.00000001  1
  Au  Au5  1  0.26520803  0.73479199  -0.00000000  1
  Ge  Ge6  1  0.84443101  0.84443099  0.85350297  1
  Ge  Ge7  1  0.15556900  0.15556900  0.14649699  1
  O  O8  1  0.60189702  0.85312999  0.73831497  1
  O  O9  1  0.14687001  0.39810300  0.26168499  1
  O  O10  1  0.39810300  0.14687000  0.26168499  1
  O  O11  1  0.85313000  0.60189700  0.73831497  1
  O  O12  1  0.89990802  0.89990799  0.13100199  1
  O  O13  1  0.10009200  0.10009200  0.86899797  1
