# generated using pymatgen
data_Rb2Zn3Se4
_symmetry_space_group_name_H-M   'P 1'
_cell_length_a   6.03210211
_cell_length_b   9.54606247
_cell_length_c   9.54606247
_cell_angle_alpha   74.27301025
_cell_angle_beta   71.58200073
_cell_angle_gamma   71.58200073
_symmetry_Int_Tables_number   1
_chemical_formula_structural   Rb2Zn3Se4
_chemical_formula_sum   'Rb4 Zn6 Se8'
_cell_volume   485.78324469
_cell_formula_units_Z   2
loop_
 _symmetry_equiv_pos_site_id
 _symmetry_equiv_pos_as_xyz
  1  'x, y, z'
loop_
 _atom_site_type_symbol
 _atom_site_label
 _atom_site_symmetry_multiplicity
 _atom_site_fract_x
 _atom_site_fract_y
 _atom_site_fract_z
 _atom_site_occupancy
  Rb  Rb0  1  0.26539699  0.62234301  0.37765804  1
  Rb  Rb1  1  0.73460298  0.37765701  0.62234204  1
  Rb  Rb2  1  0.23460199  0.12234200  0.87765804  1
  Rb  Rb3  1  0.76539798  0.87765802  0.12234205  1
  Zn  Zn4  1  0.24999999  0.25000001  0.25000002  1
  Zn  Zn5  1  0.74999998  0.75000002  0.75000006  1
  Zn  Zn6  1  0.74999998  0.47496601  0.02503403  1
  Zn  Zn7  1  0.74999998  0.02503400  0.47496602  1
  Zn  Zn8  1  0.24999999  0.52503401  0.97496606  1
  Zn  Zn9  1  0.24999999  0.97496602  0.52503406  1
  Se  Se10  1  0.42125399  0.72320302  0.98682707  1
  Se  Se11  1  0.86871598  0.98682702  0.72320307  1
  Se  Se12  1  0.07874599  0.51317301  0.77679705  1
  Se  Se13  1  0.63128398  0.77679702  0.51317305  1
  Se  Se14  1  0.57874599  0.27679701  0.01317302  1
  Se  Se15  1  0.13128400  0.01317300  0.27679701  1
  Se  Se16  1  0.92125398  0.48682701  0.22320303  1
  Se  Se17  1  0.36871599  0.22320300  0.48682703  1
