# generated using pymatgen
data_Sb2TeSe3
_symmetry_space_group_name_H-M   'P 1'
_cell_length_a   6.24657297
_cell_length_b   6.24657297
_cell_length_c   6.24657297
_cell_angle_alpha   90.00000000
_cell_angle_beta   90.00000000
_cell_angle_gamma   90.00000000
_symmetry_Int_Tables_number   1
_chemical_formula_structural   Sb2TeSe3
_chemical_formula_sum   'Sb4 Te2 Se6'
_cell_volume   243.73924025
_cell_formula_units_Z   2
loop_
 _symmetry_equiv_pos_site_id
 _symmetry_equiv_pos_as_xyz
  1  'x, y, z'
loop_
 _atom_site_type_symbol
 _atom_site_label
 _atom_site_symmetry_multiplicity
 _atom_site_fract_x
 _atom_site_fract_y
 _atom_site_fract_z
 _atom_site_occupancy
  Sb  Sb0  1  0.12139100  0.62139100  0.87860900  1
  Sb  Sb1  1  0.62139100  0.87860900  0.12139100  1
  Sb  Sb2  1  0.87860900  0.12139100  0.62139100  1
  Sb  Sb3  1  0.37860900  0.37860900  0.37860900  1
  Te  Te4  1  0.87659100  0.37659100  0.12340900  1
  Te  Te5  1  0.37659100  0.12340900  0.87659100  1
  Se  Se6  1  0.12340900  0.87659100  0.37659100  1
  Se  Se7  1  0.62340900  0.62340900  0.62340900  1
  Se  Se8  1  0.48891100  0.98891100  0.51108900  1
  Se  Se9  1  0.98891100  0.51108900  0.48891100  1
  Se  Se10  1  0.51108900  0.48891100  0.98891100  1
  Se  Se11  1  0.01108900  0.01108900  0.01108900  1
