# generated using pymatgen
data_KPb5S2OF11
_symmetry_space_group_name_H-M   'P 1'
_cell_length_a   5.89176083
_cell_length_b   7.43618631
_cell_length_c   8.32526970
_cell_angle_alpha   103.75733185
_cell_angle_beta   91.05770874
_cell_angle_gamma   91.58282471
_symmetry_Int_Tables_number   1
_chemical_formula_structural   KPb5S2OF11
_chemical_formula_sum   'K1 Pb5 S2 O1 F11'
_cell_volume   354.03174194
_cell_formula_units_Z   1
loop_
 _symmetry_equiv_pos_site_id
 _symmetry_equiv_pos_as_xyz
  1  'x, y, z'
loop_
 _atom_site_type_symbol
 _atom_site_label
 _atom_site_symmetry_multiplicity
 _atom_site_fract_x
 _atom_site_fract_y
 _atom_site_fract_z
 _atom_site_occupancy
  Pb  Pb0  1  0.74269005  0.60881501  0.41351298  1
  K  K1  1  0.25217904  0.92330001  0.62166398  1
  Pb  Pb2  1  0.23293204  0.76502401  0.15751900  1
  Pb  Pb3  1  0.76706803  0.23497600  0.84248095  1
  Pb  Pb4  1  0.25731002  0.39118500  0.58648697  1
  Pb  Pb5  1  0.74782103  0.07670000  0.37833598  1
  S  S6  1  0.26489202  0.30114400  0.14411100  1
  S  S7  1  0.73510805  0.69885601  0.85588896  1
  F  F8  1  0.08018902  0.44185500  0.17261900  1
  F  F9  1  0.51196604  0.59522501  0.84178396  1
  O  O10  1  0.99336106  0.82669801  0.37883399  1
  F  F11  1  0.91981105  0.55814500  0.82738096  1
  F  F12  1  0.25147602  0.19383900  0.27721399  1
  F  F13  1  0.48803403  0.40477500  0.15821599  1
  F  F14  1  0.49368205  0.81960001  0.38024099  1
  F  F15  1  0.23387401  0.17213700  0.97994895  1
  F  F16  1  0.00663901  0.17330200  0.62116597  1
  F  F17  1  0.76612606  0.82786301  0.02005101  1
  F  F18  1  0.74852405  0.80616101  0.72278597  1
  F  F19  1  0.50631802  0.18040000  0.61975897  1
