# generated using pymatgen
data_Sr2P
_symmetry_space_group_name_H-M   'P 1'
_cell_length_a   4.89283800
_cell_length_b   8.32261086
_cell_length_c   9.63777828
_cell_angle_alpha   90.00000000
_cell_angle_beta   90.00000000
_cell_angle_gamma   90.00000000
_symmetry_Int_Tables_number   1
_chemical_formula_structural   Sr2P
_chemical_formula_sum   'Sr8 P4'
_cell_volume   392.46176843
_cell_formula_units_Z   4
loop_
 _symmetry_equiv_pos_site_id
 _symmetry_equiv_pos_as_xyz
  1  'x, y, z'
loop_
 _atom_site_type_symbol
 _atom_site_label
 _atom_site_symmetry_multiplicity
 _atom_site_fract_x
 _atom_site_fract_y
 _atom_site_fract_z
 _atom_site_occupancy
  Sr  Sr0  1  0.25000000  0.26446600  0.12035800  1
  Sr  Sr1  1  0.75000000  0.73553401  0.87964197  1
  Sr  Sr2  1  0.25000000  0.76446601  0.37964199  1
  Sr  Sr3  1  0.75000000  0.23553400  0.62035798  1
  Sr  Sr4  1  0.25000000  0.02928700  0.83135398  1
  Sr  Sr5  1  0.75000000  0.97071302  0.16864600  1
  Sr  Sr6  1  0.25000000  0.52928701  0.66864598  1
  Sr  Sr7  1  0.75000000  0.47071301  0.33135399  1
  P  P8  1  0.25000000  0.14256500  0.43142099  1
  P  P9  1  0.75000000  0.85743501  0.56857898  1
  P  P10  1  0.25000000  0.64256501  0.06857900  1
  P  P11  1  0.75000000  0.35743501  0.93142097  1
