# generated using pymatgen
data_Na2Bi3O8
_symmetry_space_group_name_H-M   'P 1'
_cell_length_a   5.76958752
_cell_length_b   5.76958752
_cell_length_c   7.59407854
_cell_angle_alpha   68.70590210
_cell_angle_beta   68.70590210
_cell_angle_gamma   68.03185272
_symmetry_Int_Tables_number   1
_chemical_formula_structural   Na2Bi3O8
_chemical_formula_sum   'Na2 Bi3 O8'
_cell_volume   210.73940703
_cell_formula_units_Z   1
loop_
 _symmetry_equiv_pos_site_id
 _symmetry_equiv_pos_as_xyz
  1  'x, y, z'
loop_
 _atom_site_type_symbol
 _atom_site_label
 _atom_site_symmetry_multiplicity
 _atom_site_fract_x
 _atom_site_fract_y
 _atom_site_fract_z
 _atom_site_occupancy
  Na  Na0  1  0.59818598  0.59433902  0.19989207  1
  Na  Na1  1  0.40566098  0.40181401  0.80010805  1
  Bi  Bi2  1  0.29534500  0.16587700  0.37697003  1
  Bi  Bi3  1  0.83412297  0.70465502  0.62303009  1
  Bi  Bi4  1  0.01352495  0.98647503  0.00000006  1
  O  O5  1  0.77672597  0.68314202  0.95868609  1
  O  O6  1  0.31685799  0.22327401  0.04131403  1
  O  O7  1  0.65184797  0.76015202  0.32725409  1
  O  O8  1  0.23984798  0.34815201  0.67274604  1
  O  O9  1  0.26342497  0.66155502  0.23104206  1
  O  O10  1  0.74387999  0.30135001  0.71172606  1
  O  O11  1  0.69865000  0.25612001  0.28827406  1
  O  O12  1  0.33844496  0.73657502  0.76895807  1
