# generated using pymatgen
data_In4Se3
_symmetry_space_group_name_H-M   'P 1'
_cell_length_a   4.17808819
_cell_length_b   10.35527420
_cell_length_c   10.98042965
_cell_angle_alpha   104.19271088
_cell_angle_beta   100.96746826
_cell_angle_gamma   90.00000000
_symmetry_Int_Tables_number   1
_chemical_formula_structural   In4Se3
_chemical_formula_sum   'In8 Se6'
_cell_volume   451.61469284
_cell_formula_units_Z   2
loop_
 _symmetry_equiv_pos_site_id
 _symmetry_equiv_pos_as_xyz
  1  'x, y, z'
loop_
 _atom_site_type_symbol
 _atom_site_label
 _atom_site_symmetry_multiplicity
 _atom_site_fract_x
 _atom_site_fract_y
 _atom_site_fract_z
 _atom_site_occupancy
  In  In0  1  0.00000000  0.00000000  0.00000000  1
  In  In1  1  0.79445097  0.15594200  0.58890200  1
  In  In2  1  0.49999999  0.50000000  -0.00000000  1
  In  In3  1  0.15580400  0.47829900  0.31160799  1
  In  In4  1  0.84419597  0.52170100  0.68839199  1
  In  In5  1  0.20554900  0.84405800  0.41109798  1
  In  In6  1  0.07506801  0.66535400  0.15013598  1
  In  In7  1  0.92493197  0.33464600  0.84986399  1
  Se  Se8  1  0.41548399  0.68395600  0.83096798  1
  Se  Se9  1  0.58451598  0.31604400  0.16903200  1
  Se  Se10  1  0.33528199  0.00331200  0.67056399  1
  Se  Se11  1  0.66471799  0.99668799  0.32943598  1
  Se  Se12  1  0.26177699  0.34167500  0.52355399  1
  Se  Se13  1  0.73822298  0.65832500  0.47644599  1
