# generated using pymatgen
data_BaLa2HBrN
_symmetry_space_group_name_H-M   'P 1'
_cell_length_a   4.30008841
_cell_length_b   4.30008841
_cell_length_c   12.25718021
_cell_angle_alpha   79.89742279
_cell_angle_beta   79.89742279
_cell_angle_gamma   59.99999237
_symmetry_Int_Tables_number   1
_chemical_formula_structural   BaLa2HBrN
_chemical_formula_sum   'Ba1 La2 H1 Br1 N1'
_cell_volume   192.21155832
_cell_formula_units_Z   1
loop_
 _symmetry_equiv_pos_site_id
 _symmetry_equiv_pos_as_xyz
  1  'x, y, z'
loop_
 _atom_site_type_symbol
 _atom_site_label
 _atom_site_symmetry_multiplicity
 _atom_site_fract_x
 _atom_site_fract_y
 _atom_site_fract_z
 _atom_site_occupancy
  La  La0  1  0.91639297  0.91639301  0.25082099  1
  La  La1  1  0.08360700  0.08360700  0.74917899  1
  Ba  Ba2  1  0.79043697  0.79043701  0.62868899  1
  H  H3  1  0.20956299  0.20956300  0.37131099  1
  N  N4  1  0.62338198  0.62338201  0.12985400  1
  Br  Br5  1  0.37661799  0.37661800  0.87014598  1
