# generated using pymatgen
data_LiVCuPO8
_symmetry_space_group_name_H-M   'P 1'
_cell_length_a   4.86777163
_cell_length_b   4.86777163
_cell_length_c   7.03914452
_cell_angle_alpha   85.94934845
_cell_angle_beta   85.94934845
_cell_angle_gamma   66.92923737
_symmetry_Int_Tables_number   1
_chemical_formula_structural   LiVCuPO8
_chemical_formula_sum   'Li1 V1 Cu1 P1 O8'
_cell_volume   152.90291152
_cell_formula_units_Z   1
loop_
 _symmetry_equiv_pos_site_id
 _symmetry_equiv_pos_as_xyz
  1  'x, y, z'
loop_
 _atom_site_type_symbol
 _atom_site_label
 _atom_site_symmetry_multiplicity
 _atom_site_fract_x
 _atom_site_fract_y
 _atom_site_fract_z
 _atom_site_occupancy
  Li  Li0  1  0.00000000  0.00000000  0.00000000  1
  V  V1  1  0.33858600  0.33858599  0.72912097  1
  P  P2  1  0.66141400  0.66141399  0.27087897  1
  Cu  Cu3  1  0.00000000  0.00000000  0.49999999  1
  O  O4  1  0.23517000  0.23517000  0.54816998  1
  O  O5  1  0.23655200  0.23655200  0.91333197  1
  O  O6  1  0.69060699  0.21809600  0.70222796  1
  O  O7  1  0.21809600  0.69060699  0.70222796  1
  O  O8  1  0.78190399  0.30939299  0.29777197  1
  O  O9  1  0.30939300  0.78190398  0.29777197  1
  O  O10  1  0.76344800  0.76344798  0.08666797  1
  O  O11  1  0.76483000  0.76482998  0.45182996  1
