# generated using pymatgen
data_KLuF3
_symmetry_space_group_name_H-M   'P 1'
_cell_length_a   6.07328415
_cell_length_b   6.13875580
_cell_length_c   8.61221886
_cell_angle_alpha   90.00000000
_cell_angle_beta   90.00000000
_cell_angle_gamma   90.00000000
_symmetry_Int_Tables_number   1
_chemical_formula_structural   KLuF3
_chemical_formula_sum   'K4 Lu4 F12'
_cell_volume   321.08425967
_cell_formula_units_Z   4
loop_
 _symmetry_equiv_pos_site_id
 _symmetry_equiv_pos_as_xyz
  1  'x, y, z'
loop_
 _atom_site_type_symbol
 _atom_site_label
 _atom_site_symmetry_multiplicity
 _atom_site_fract_x
 _atom_site_fract_y
 _atom_site_fract_z
 _atom_site_occupancy
  K  K0  1  0.26001199  0.96538903  -0.00000000  1
  K  K1  1  0.73998798  0.46538902  -0.00000000  1
  K  K2  1  0.24252099  0.04292900  0.50000001  1
  K  K3  1  0.75747898  0.54292902  0.50000001  1
  Lu  Lu4  1  0.25039499  0.49979202  0.74402801  1
  Lu  Lu5  1  0.74960498  0.99979203  0.25597200  1
  Lu  Lu6  1  0.25039499  0.49979202  0.25597200  1
  Lu  Lu7  1  0.74960498  0.99979203  0.74402801  1
  F  F8  1  0.04125000  0.78725503  0.69494901  1
  F  F9  1  0.95874998  0.28725501  0.30505101  1
  F  F10  1  0.45756499  0.20688701  0.21569700  1
  F  F11  1  0.54243499  0.70688702  0.78430301  1
  F  F12  1  0.45756499  0.20688701  0.78430301  1
  F  F13  1  0.54243499  0.70688702  0.21569700  1
  F  F14  1  0.04125000  0.78725503  0.30505101  1
  F  F15  1  0.95874998  0.28725501  0.69494901  1
  F  F16  1  0.17948600  0.51127302  0.00000000  1
  F  F17  1  0.82051398  0.01127300  0.00000000  1
  F  F18  1  0.34612499  0.45614001  0.50000001  1
  F  F19  1  0.65387498  0.95614003  0.50000001  1
