# generated using pymatgen
data_RbThBr7NO5F3
_symmetry_space_group_name_H-M   'P 1'
_cell_length_a   6.91041994
_cell_length_b   6.91041994
_cell_length_c   9.53067303
_cell_angle_alpha   90.00000000
_cell_angle_beta   90.00000000
_cell_angle_gamma   90.00000000
_symmetry_Int_Tables_number   1
_chemical_formula_structural   RbThBr7NO5F3
_chemical_formula_sum   'Rb1 Th1 Br7 N1 O5 F3'
_cell_volume   455.12684250
_cell_formula_units_Z   1
loop_
 _symmetry_equiv_pos_site_id
 _symmetry_equiv_pos_as_xyz
  1  'x, y, z'
loop_
 _atom_site_type_symbol
 _atom_site_label
 _atom_site_symmetry_multiplicity
 _atom_site_fract_x
 _atom_site_fract_y
 _atom_site_fract_z
 _atom_site_occupancy
  Rb  Rb0  1  0.00000000  0.00000000  0.75000000  1
  Th  Th1  1  0.00000000  0.00000000  0.25000000  1
  Br  Br2  1  0.65699101  0.05493400  0.00000000  1
  Br  Br3  1  0.34300900  0.94506601  -0.00000000  1
  Br  Br4  1  0.05493400  0.34300900  0.50000000  1
  Br  Br5  1  0.94506601  0.65699101  0.50000000  1
  O  O6  1  0.20326700  0.30567200  0.68088100  1
  N  N7  1  0.69432801  0.20326700  0.18088100  1
  Br  Br8  1  0.15846500  0.17688600  -0.00000000  1
  Br  Br9  1  0.82311401  0.15846500  0.50000000  1
  Br  Br10  1  0.17688600  0.84153501  0.50000000  1
  O  O11  1  0.84153501  0.82311401  -0.00000000  1
  F  F12  1  0.20326700  0.30567200  0.31911900  1
  O  O13  1  0.69432801  0.20326700  0.81911900  1
  O  O14  1  0.30567200  0.79673301  0.81911900  1
  F  F15  1  0.79673301  0.69432801  0.31911900  1
  O  O16  1  0.79673301  0.69432801  0.68088100  1
  F  F17  1  0.30567200  0.79673301  0.18088100  1
