# generated using pymatgen
data_V4O3F11
_symmetry_space_group_name_H-M   'P 1'
_cell_length_a   5.28256464
_cell_length_b   5.47590446
_cell_length_c   8.26156139
_cell_angle_alpha   88.98525238
_cell_angle_beta   89.33914948
_cell_angle_gamma   63.57904053
_symmetry_Int_Tables_number   1
_chemical_formula_structural   V4O3F11
_chemical_formula_sum   'V4 O3 F11'
_cell_volume   213.98358652
_cell_formula_units_Z   1
loop_
 _symmetry_equiv_pos_site_id
 _symmetry_equiv_pos_as_xyz
  1  'x, y, z'
loop_
 _atom_site_type_symbol
 _atom_site_label
 _atom_site_symmetry_multiplicity
 _atom_site_fract_x
 _atom_site_fract_y
 _atom_site_fract_z
 _atom_site_occupancy
  V  V0  1  0.00068804  0.99970702  0.00339898  1
  V  V1  1  0.49972200  0.50100701  0.50273597  1
  V  V2  1  0.01442602  0.50142201  0.32228198  1
  V  V3  1  0.51787198  0.00702100  0.82117196  1
  O  O4  1  0.98533298  0.49795701  0.68449495  1
  O  O5  1  0.48273502  0.99394602  0.18434897  1
  F  F6  1  0.58152498  0.18502200  0.01138298  1
  O  O7  1  0.08333802  0.68448502  0.50968198  1
  F  F8  1  0.41879201  0.81552602  0.99493195  1
  F  F9  1  0.91633397  0.31496601  0.49698896  1
  F  F10  1  0.92932299  0.80199902  0.83734994  1
  F  F11  1  0.41381099  0.29883801  0.33112398  1
  F  F12  1  0.92542099  0.77624902  0.17386096  1
  F  F13  1  0.45028599  0.27495301  0.66746497  1
  F  F14  1  0.07075400  0.19775700  0.16922699  1
  F  F15  1  0.58592200  0.70071402  0.67554296  1
  F  F16  1  0.07437201  0.22379001  0.83300197  1
  F  F17  1  0.54934700  0.72464302  0.33850796  1
