# generated using pymatgen
data_Ga2Ag2TeSe3
_symmetry_space_group_name_H-M   'P 1'
_cell_length_a   6.12122011
_cell_length_b   6.17648792
_cell_length_c   7.16839218
_cell_angle_alpha   114.70748901
_cell_angle_beta   115.27472687
_cell_angle_gamma   90.00000000
_symmetry_Int_Tables_number   1
_chemical_formula_structural   Ga2Ag2TeSe3
_chemical_formula_sum   'Ga2 Ag2 Te1 Se3'
_cell_volume   217.32253220
_cell_formula_units_Z   1
loop_
 _symmetry_equiv_pos_site_id
 _symmetry_equiv_pos_as_xyz
  1  'x, y, z'
loop_
 _atom_site_type_symbol
 _atom_site_label
 _atom_site_symmetry_multiplicity
 _atom_site_fract_x
 _atom_site_fract_y
 _atom_site_fract_z
 _atom_site_occupancy
  Ga  Ga0  1  0.48678196  0.61022796  0.74110697  1
  Ga  Ga1  1  0.74567496  0.38977198  0.25889296  1
  Ag  Ag2  1  0.00562599  0.12924899  0.74374301  1
  Ag  Ag3  1  0.26188296  0.87075095  0.25625695  1
  Te  Te4  1  0.85310797  0.00000000  -0.00000002  1
  Se  Se5  1  0.40010797  0.49999997  -0.00000004  1
  Se  Se6  1  0.62340497  0.28003698  0.49999098  1
  Se  Se7  1  0.12341397  0.71996296  0.50000896  1
