# generated using pymatgen
data_Na3(CuS5)2
_symmetry_space_group_name_H-M   'P 1'
_cell_length_a   6.78368616
_cell_length_b   6.78368568
_cell_length_c   7.14940691
_cell_angle_alpha   90.00000000
_cell_angle_beta   90.00000000
_cell_angle_gamma   120.00000000
_symmetry_Int_Tables_number   1
_chemical_formula_structural   Na3(CuS5)2
_chemical_formula_sum   'Na3 Cu2 S10'
_cell_volume   284.92602029
_cell_formula_units_Z   1
loop_
 _symmetry_equiv_pos_site_id
 _symmetry_equiv_pos_as_xyz
  1  'x, y, z'
loop_
 _atom_site_type_symbol
 _atom_site_label
 _atom_site_symmetry_multiplicity
 _atom_site_fract_x
 _atom_site_fract_y
 _atom_site_fract_z
 _atom_site_occupancy
  Na  Na0  1  0.99999996  0.60126299  0.16666700  1
  Na  Na1  1  0.60126295  0.99999998  0.50000001  1
  Na  Na2  1  0.39873698  0.39873699  0.83333301  1
  S  S3  1  0.12279299  0.33907499  0.45751201  1
  Cu  Cu4  1  0.78371796  0.66092499  0.54248801  1
  S  S5  1  0.87720697  0.21628200  0.87582201  1
  Cu  Cu6  1  0.21628196  0.87720698  0.79084501  1
  S  S7  1  0.66092496  0.78371798  0.12417800  1
  S  S8  1  0.33907499  0.12279300  0.20915500  1
  S  S9  1  0.12973500  0.00000000  0.50000001  1
  S  S10  1  0.87026495  0.87026498  0.83333301  1
  S  S11  1  0.50997695  0.99999998  -0.00000000  1
  S  S12  1  -0.00000002  0.50997699  0.66666668  1
  S  S13  1  0.49002297  0.49002299  0.33333334  1
  S  S14  1  0.99999997  0.12973500  0.16666700  1
