# generated using pymatgen
data_ScInO3
_symmetry_space_group_name_H-M   'P 1'
_cell_length_a   5.41101980
_cell_length_b   5.60651493
_cell_length_c   7.90669680
_cell_angle_alpha   90.00001526
_cell_angle_beta   89.99993134
_cell_angle_gamma   89.99934387
_symmetry_Int_Tables_number   1
_chemical_formula_structural   ScInO3
_chemical_formula_sum   'Sc4 In4 O12'
_cell_volume   239.86517061
_cell_formula_units_Z   4
loop_
 _symmetry_equiv_pos_site_id
 _symmetry_equiv_pos_as_xyz
  1  'x, y, z'
loop_
 _atom_site_type_symbol
 _atom_site_label
 _atom_site_symmetry_multiplicity
 _atom_site_fract_x
 _atom_site_fract_y
 _atom_site_fract_z
 _atom_site_occupancy
  Sc  Sc0  1  0.99999903  0.50000101  0.00000098  1
  Sc  Sc1  1  0.99999903  0.50000001  0.49999999  1
  Sc  Sc2  1  0.49999802  0.00000000  -0.00000000  1
  Sc  Sc3  1  0.49999802  0.00000100  0.50000001  1
  In  In4  1  0.50858101  0.45508301  0.24999299  1
  In  In5  1  0.49144801  0.54491301  0.75000400  1
  In  In6  1  0.99159202  0.95529001  0.24999797  1
  In  In7  1  0.00840200  0.04470500  0.75000202  1
  O  O8  1  0.87625403  0.43885001  0.75000100  1
  O  O9  1  0.62375301  0.93885601  0.74999999  1
  O  O10  1  0.37624501  0.06114500  0.25000000  1
  O  O11  1  0.12374200  0.56115301  0.24999999  1
  O  O12  1  0.81821603  0.18655200  0.43372700  1
  O  O13  1  0.81821503  0.18655400  0.06627299  1
  O  O14  1  0.68179001  0.68656601  0.43372699  1
  O  O15  1  0.68178901  0.68656601  0.06627498  1
  O  O16  1  0.31820701  0.31343500  0.93372601  1
  O  O17  1  0.31820701  0.31343500  0.56627500  1
  O  O18  1  0.18178199  0.81344701  0.93372600  1
  O  O19  1  0.18178099  0.81344701  0.56627299  1
