# generated using pymatgen
data_P8Ru
_symmetry_space_group_name_H-M   'P 1'
_cell_length_a   4.97029018
_cell_length_b   5.66587687
_cell_length_c   6.20829296
_cell_angle_alpha   85.59443665
_cell_angle_beta   68.27005768
_cell_angle_gamma   70.75441742
_symmetry_Int_Tables_number   1
_chemical_formula_structural   P8Ru
_chemical_formula_sum   'P8 Ru1'
_cell_volume   153.12812972
_cell_formula_units_Z   1
loop_
 _symmetry_equiv_pos_site_id
 _symmetry_equiv_pos_as_xyz
  1  'x, y, z'
loop_
 _atom_site_type_symbol
 _atom_site_label
 _atom_site_symmetry_multiplicity
 _atom_site_fract_x
 _atom_site_fract_y
 _atom_site_fract_z
 _atom_site_occupancy
  P  P0  1  0.67021994  0.77561598  0.22638102  1
  P  P1  1  0.23746297  0.34375299  0.43228800  1
  P  P2  1  0.35883996  0.59448299  0.88089701  1
  P  P3  1  0.84426192  0.97282598  0.68936101  1
  P  P4  1  0.15994200  0.01516900  0.31871399  1
  P  P5  1  0.62157296  0.41102199  0.12206100  1
  P  P6  1  0.76643495  0.64220299  0.56357600  1
  P  P7  1  0.34135498  0.22699900  0.75871198  1
  Ru  Ru8  1  0.99980992  0.99972898  0.99951100  1
