# generated using pymatgen
data_LiMgF3
_symmetry_space_group_name_H-M   'P 1'
_cell_length_a   5.12920046
_cell_length_b   5.12920046
_cell_length_c   5.55059099
_cell_angle_alpha   62.48111343
_cell_angle_beta   62.48111343
_cell_angle_gamma   59.99999237
_symmetry_Int_Tables_number   1
_chemical_formula_structural   LiMgF3
_chemical_formula_sum   'Li2 Mg2 F6'
_cell_volume   106.96230380
_cell_formula_units_Z   2
loop_
 _symmetry_equiv_pos_site_id
 _symmetry_equiv_pos_as_xyz
  1  'x, y, z'
loop_
 _atom_site_type_symbol
 _atom_site_label
 _atom_site_symmetry_multiplicity
 _atom_site_fract_x
 _atom_site_fract_y
 _atom_site_fract_z
 _atom_site_occupancy
  Li  Li0  1  0.85439797  0.85439801  0.43680604  1
  Li  Li1  1  0.14560199  0.14560200  0.56319399  1
  Mg  Mg2  1  0.63932397  0.63932401  0.08202804  1
  Mg  Mg3  1  0.36067599  0.36067601  0.91797199  1
  F  F4  1  0.22353996  0.94950001  0.26373203  1
  F  F5  1  0.56322799  0.22354000  0.26373201  1
  F  F6  1  0.94949998  0.56322801  0.26373204  1
  F  F7  1  0.77646000  0.05050000  0.73626800  1
  F  F8  1  0.05049998  0.43677201  0.73626799  1
  F  F9  1  0.43677197  0.77646001  0.73626801  1
