# generated using pymatgen
data_CaCuS2
_symmetry_space_group_name_H-M   'P 1'
_cell_length_a   5.39028931
_cell_length_b   5.43588591
_cell_length_c   6.59014845
_cell_angle_alpha   65.64273071
_cell_angle_beta   68.85143280
_cell_angle_gamma   90.00000000
_symmetry_Int_Tables_number   1
_chemical_formula_structural   CaCuS2
_chemical_formula_sum   'Ca2 Cu2 S4'
_cell_volume   161.52706416
_cell_formula_units_Z   2
loop_
 _symmetry_equiv_pos_site_id
 _symmetry_equiv_pos_as_xyz
  1  'x, y, z'
loop_
 _atom_site_type_symbol
 _atom_site_label
 _atom_site_symmetry_multiplicity
 _atom_site_fract_x
 _atom_site_fract_y
 _atom_site_fract_z
 _atom_site_occupancy
  Ca  Ca0  1  0.99879801  0.76605200  0.00126003  1
  Ca  Ca1  1  0.49879801  0.23268800  0.00126001  1
  Cu  Cu2  1  0.31724800  0.50088100  0.44253201  1
  Cu  Cu3  1  0.81724801  0.05658700  0.44253200  1
  S  S4  1  0.47600600  0.71769800  0.04292503  1
  S  S5  1  0.97600601  0.23937700  0.04292501  1
  S  S6  1  0.71419801  0.44097200  0.52037201  1
  S  S7  1  0.21419800  0.03865600  0.52037199  1
