# generated using pymatgen
data_NbTe2Pt2S7
_symmetry_space_group_name_H-M   'P 1'
_cell_length_a   6.00849104
_cell_length_b   6.00849104
_cell_length_c   6.00849104
_cell_angle_alpha   90.00000000
_cell_angle_beta   90.00000000
_cell_angle_gamma   90.00000000
_symmetry_Int_Tables_number   1
_chemical_formula_structural   NbTe2Pt2S7
_chemical_formula_sum   'Nb1 Te2 Pt2 S7'
_cell_volume   216.91833061
_cell_formula_units_Z   1
loop_
 _symmetry_equiv_pos_site_id
 _symmetry_equiv_pos_as_xyz
  1  'x, y, z'
loop_
 _atom_site_type_symbol
 _atom_site_label
 _atom_site_symmetry_multiplicity
 _atom_site_fract_x
 _atom_site_fract_y
 _atom_site_fract_z
 _atom_site_occupancy
  Te  Te0  1  0.00000000  0.50000000  0.50000000  1
  Nb  Nb1  1  0.50000000  0.50000000  -0.00000000  1
  Te  Te2  1  0.50000000  0.00000000  0.50000000  1
  Pt  Pt3  1  0.00000000  0.00000000  0.00000000  1
  Pt  Pt4  1  0.37924800  0.12075200  0.87924799  1
  S  S5  1  0.12075200  0.87924799  0.37924800  1
  S  S6  1  0.87924799  0.37924800  0.12075200  1
  S  S7  1  0.62075200  0.62075200  0.62075200  1
  S  S8  1  0.37924800  0.37924800  0.37924800  1
  S  S9  1  0.12075200  0.62075200  0.87924799  1
  S  S10  1  0.87924799  0.12075200  0.62075200  1
  S  S11  1  0.62075200  0.87924799  0.12075200  1
