# generated using pymatgen
data_PbI2
_symmetry_space_group_name_H-M   'P 1'
_cell_length_a   4.68243551
_cell_length_b   4.68243551
_cell_length_c   22.11188126
_cell_angle_alpha   83.92210388
_cell_angle_beta   83.92210388
_cell_angle_gamma   60.00000763
_symmetry_Int_Tables_number   1
_chemical_formula_structural   PbI2
_chemical_formula_sum   'Pb3 I6'
_cell_volume   416.70589371
_cell_formula_units_Z   3
loop_
 _symmetry_equiv_pos_site_id
 _symmetry_equiv_pos_as_xyz
  1  'x, y, z'
loop_
 _atom_site_type_symbol
 _atom_site_label
 _atom_site_symmetry_multiplicity
 _atom_site_fract_x
 _atom_site_fract_y
 _atom_site_fract_z
 _atom_site_occupancy
  Pb  Pb0  1  0.00000000  0.00000000  0.00000000  1
  Pb  Pb1  1  0.55554000  0.55554000  0.33337999  1
  Pb  Pb2  1  0.44446000  0.44446000  0.66661998  1
  I  I3  1  0.08234300  0.08234300  0.75297098  1
  I  I4  1  0.30458100  0.30458100  0.08625700  1
  I  I5  1  0.80658700  0.80658699  0.58023898  1
  I  I6  1  0.19341300  0.19341300  0.41976099  1
  I  I7  1  0.91765700  0.91765699  0.24702899  1
  I  I8  1  0.69541900  0.69541899  0.91374297  1
