# generated using pymatgen
data_RbPO2F
_symmetry_space_group_name_H-M   'P 1'
_cell_length_a   4.88563299
_cell_length_b   6.03002501
_cell_length_c   7.40027142
_cell_angle_alpha   90.00000000
_cell_angle_beta   107.79201508
_cell_angle_gamma   90.00000000
_symmetry_Int_Tables_number   1
_chemical_formula_structural   RbPO2F
_chemical_formula_sum   'Rb2 P2 O4 F2'
_cell_volume   207.58836157
_cell_formula_units_Z   2
loop_
 _symmetry_equiv_pos_site_id
 _symmetry_equiv_pos_as_xyz
  1  'x, y, z'
loop_
 _atom_site_type_symbol
 _atom_site_label
 _atom_site_symmetry_multiplicity
 _atom_site_fract_x
 _atom_site_fract_y
 _atom_site_fract_z
 _atom_site_occupancy
  Rb  Rb0  1  0.84315601  0.75000000  0.71523000  1
  Rb  Rb1  1  0.15684400  0.25000000  0.28476999  1
  P  P2  1  0.60099701  0.75000000  0.18390301  1
  P  P3  1  0.39900300  0.25000000  0.81609698  1
  O  O4  1  0.66522501  0.54699700  0.30174000  1
  O  O5  1  0.33477500  0.04699700  0.69825999  1
  O  O6  1  0.33477500  0.45300300  0.69825999  1
  O  O7  1  0.66522501  0.95300300  0.30174000  1
  F  F8  1  0.79198901  0.25000000  0.87669699  1
  F  F9  1  0.20801100  0.75000000  0.12330300  1
