# generated using pymatgen
data_Al3Fe5O12
_symmetry_space_group_name_H-M   'P 1'
_cell_length_a   6.45118904
_cell_length_b   6.45123100
_cell_length_c   6.45123196
_cell_angle_alpha   109.56880188
_cell_angle_beta   109.43531036
_cell_angle_gamma   109.40945435
_symmetry_Int_Tables_number   1
_chemical_formula_structural   Al3Fe5O12
_chemical_formula_sum   'Al3 Fe5 O12'
_cell_volume   206.68212265
_cell_formula_units_Z   1
loop_
 _symmetry_equiv_pos_site_id
 _symmetry_equiv_pos_as_xyz
  1  'x, y, z'
loop_
 _atom_site_type_symbol
 _atom_site_label
 _atom_site_symmetry_multiplicity
 _atom_site_fract_x
 _atom_site_fract_y
 _atom_site_fract_z
 _atom_site_occupancy
  Al  Al0  1  0.00000000  0.00000000  0.00000000  1
  Al  Al1  1  0.00000000  0.50000002  0.00000003  1
  Fe  Fe2  1  0.50000000  0.00000000  -0.00000001  1
  Al  Al3  1  0.50000000  0.50000002  0.50000000  1
  Fe  Fe4  1  0.00000000  0.00000000  0.49999998  1
  Fe  Fe5  1  0.50000000  0.00000000  0.49999998  1
  Fe  Fe6  1  0.50000000  0.50000002  0.00000002  1
  Fe  Fe7  1  0.00000000  0.50000002  0.50000001  1
  O  O8  1  0.14112401  0.83028004  0.31084404  1
  O  O9  1  0.51943600  0.83028004  0.68915602  1
  O  O10  1  0.48056400  0.16972001  0.31084399  1
  O  O11  1  0.85887599  0.16972001  0.68915597  1
  O  O12  1  0.16914600  0.31079702  0.47994200  1
  O  O13  1  0.16914700  0.68920403  0.85835101  1
  O  O14  1  0.83085299  0.31079602  0.14164900  1
  O  O15  1  0.83085400  0.68920303  0.52005801  1
  O  O16  1  0.68890900  0.85859504  0.16968603  1
  O  O17  1  0.31109100  0.48077702  0.16968502  1
  O  O18  1  0.68890900  0.51922303  0.83031499  1
  O  O19  1  0.31109200  0.14140601  0.83031498  1
