# generated using pymatgen
data_LiVF4
_symmetry_space_group_name_H-M   'P 1'
_cell_length_a   5.64252758
_cell_length_b   5.64252758
_cell_length_c   5.64252758
_cell_angle_alpha   107.55813599
_cell_angle_beta   107.55813599
_cell_angle_gamma   113.36912537
_symmetry_Int_Tables_number   1
_chemical_formula_structural   LiVF4
_chemical_formula_sum   'Li2 V2 F8'
_cell_volume   137.80918446
_cell_formula_units_Z   2
loop_
 _symmetry_equiv_pos_site_id
 _symmetry_equiv_pos_as_xyz
  1  'x, y, z'
loop_
 _atom_site_type_symbol
 _atom_site_label
 _atom_site_symmetry_multiplicity
 _atom_site_fract_x
 _atom_site_fract_y
 _atom_site_fract_z
 _atom_site_occupancy
  Li  Li0  1  0.51136000  0.51136000  0.99999999  1
  Li  Li1  1  0.26136000  0.76136000  0.49999999  1
  V  V2  1  0.98778000  0.98778000  -0.00000004  1
  V  V3  1  0.73778000  0.23778000  0.49999999  1
  F  F4  1  0.98901600  0.68984200  0.70082598  1
  F  F5  1  0.98901600  0.28819000  0.29917398  1
  F  F6  1  0.51141400  0.81274500  0.30133098  1
  F  F7  1  0.56274400  0.76141300  0.80132998  1
  F  F8  1  0.03819000  0.23901600  0.79917400  1
  F  F9  1  0.43984200  0.23901600  0.20082599  1
  F  F10  1  0.96008300  0.76141400  0.19866897  1
  F  F11  1  0.51141400  0.21008300  0.69866999  1
