# generated using pymatgen
data_LuCoO3
_symmetry_space_group_name_H-M   'P 1'
_cell_length_a   5.13520098
_cell_length_b   5.52408695
_cell_length_c   7.38460541
_cell_angle_alpha   90.00000000
_cell_angle_beta   89.78651428
_cell_angle_gamma   90.00000000
_symmetry_Int_Tables_number   1
_chemical_formula_structural   LuCoO3
_chemical_formula_sum   'Lu4 Co4 O12'
_cell_volume   209.47983859
_cell_formula_units_Z   4
loop_
 _symmetry_equiv_pos_site_id
 _symmetry_equiv_pos_as_xyz
  1  'x, y, z'
loop_
 _atom_site_type_symbol
 _atom_site_label
 _atom_site_symmetry_multiplicity
 _atom_site_fract_x
 _atom_site_fract_y
 _atom_site_fract_z
 _atom_site_occupancy
  Lu  Lu0  1  0.47783200  0.57899101  0.24873499  1
  Lu  Lu1  1  0.97783200  0.92100901  0.74873497  1
  Lu  Lu2  1  0.52216800  0.42100900  0.75126498  1
  Lu  Lu3  1  0.02216800  0.07899100  0.25126499  1
  Co  Co4  1  0.00000000  0.50000000  0.49999999  1
  Co  Co5  1  0.50000000  0.00000000  -0.00000001  1
  Co  Co6  1  0.00000000  0.50000000  -0.00000000  1
  Co  Co7  1  0.50000000  0.00000000  0.49999998  1
  O  O8  1  0.61572000  0.95952401  0.25528098  1
  O  O9  1  0.11572000  0.54047600  0.75528098  1
  O  O10  1  0.38428000  0.04047600  0.74471898  1
  O  O11  1  0.88428000  0.45952400  0.24471898  1
  O  O12  1  0.19460700  0.81386301  0.44485099  1
  O  O13  1  0.69460700  0.68613701  0.94485097  1
  O  O14  1  0.80539300  0.18613700  0.55514897  1
  O  O15  1  0.30539300  0.31386300  0.05514899  1
  O  O16  1  0.68384400  0.69851801  0.55961598  1
  O  O17  1  0.18384400  0.80148201  0.05961600  1
  O  O18  1  0.31615600  0.30148200  0.44038399  1
  O  O19  1  0.81615600  0.19851800  0.94038397  1
