# generated using pymatgen
data_PO5
_symmetry_space_group_name_H-M   'P 1'
_cell_length_a   5.08984947
_cell_length_b   5.08984947
_cell_length_c   6.27863789
_cell_angle_alpha   90.00000000
_cell_angle_beta   90.00000000
_cell_angle_gamma   107.56945038
_symmetry_Int_Tables_number   1
_chemical_formula_structural   PO5
_chemical_formula_sum   'P2 O10'
_cell_volume   155.07024863
_cell_formula_units_Z   2
loop_
 _symmetry_equiv_pos_site_id
 _symmetry_equiv_pos_as_xyz
  1  'x, y, z'
loop_
 _atom_site_type_symbol
 _atom_site_label
 _atom_site_symmetry_multiplicity
 _atom_site_fract_x
 _atom_site_fract_y
 _atom_site_fract_z
 _atom_site_occupancy
  P  P0  1  0.68818103  0.31181901  0.24948700  1
  O  O1  1  0.31181904  0.68818103  0.74948701  1
  P  P2  1  0.82167505  0.59426102  0.26706500  1
  O  O3  1  0.17832502  0.40573902  0.76706501  1
  O  O4  1  0.40573902  0.17832501  0.26706500  1
  O  O5  1  0.59426105  0.82167503  0.76706501  1
  O  O6  1  0.64918803  0.35081201  0.98896402  1
  O  O7  1  0.72517003  0.27483001  0.50920101  1
  O  O8  1  0.12270804  0.87729203  0.70121801  1
  O  O9  1  0.87729203  0.12270800  0.20121800  1
  O  O10  1  0.27483004  0.72517003  0.00920100  1
  O  O11  1  0.35081204  0.64918803  0.48896401  1
