# generated using pymatgen
data_Rb3CoCl5
_symmetry_space_group_name_H-M   'P 1'
_cell_length_a   8.98296642
_cell_length_b   8.98296642
_cell_length_c   9.58432007
_cell_angle_alpha   117.94528198
_cell_angle_beta   117.94529724
_cell_angle_gamma   90.00000000
_symmetry_Int_Tables_number   1
_chemical_formula_structural   Rb3CoCl5
_chemical_formula_sum   'Rb6 Co2 Cl10'
_cell_volume   579.15556979
_cell_formula_units_Z   2
loop_
 _symmetry_equiv_pos_site_id
 _symmetry_equiv_pos_as_xyz
  1  'x, y, z'
loop_
 _atom_site_type_symbol
 _atom_site_label
 _atom_site_symmetry_multiplicity
 _atom_site_fract_x
 _atom_site_fract_y
 _atom_site_fract_z
 _atom_site_occupancy
  Rb  Rb0  1  0.25000000  0.24999999  0.50000003  1
  Rb  Rb1  1  0.75000001  0.74999998  0.50000007  1
  Rb  Rb2  1  0.83272100  0.66727898  0.00000006  1
  Rb  Rb3  1  0.16727901  0.33272099  0.00000002  1
  Rb  Rb4  1  0.33272102  0.83272097  0.00000004  1
  Rb  Rb5  1  0.66727899  0.16727899  0.00000003  1
  Co  Co6  1  0.74999999  0.24999999  0.50000006  1
  Co  Co7  1  0.25000002  0.74999998  0.50000005  1
  Cl  Cl8  1  0.51395500  0.29546599  0.30942104  1
  Cl  Cl9  1  0.48604501  0.70453398  0.69057906  1
  Cl  Cl10  1  0.79546598  0.01395500  0.30942104  1
  Cl  Cl11  1  0.01395502  0.51395498  0.30942103  1
  Cl  Cl12  1  0.70453399  0.20453399  0.69057906  1
  Cl  Cl13  1  0.20453403  0.98604497  0.69057906  1
  Cl  Cl14  1  0.98604499  0.48604498  0.69057908  1
  Cl  Cl15  1  0.29546602  0.79546598  0.30942105  1
  Cl  Cl16  1  0.00000000  0.00000000  0.00000000  1
  Cl  Cl17  1  0.50000001  0.49999998  0.00000004  1
