# generated using pymatgen
data_AcPO2
_symmetry_space_group_name_H-M   'P 1'
_cell_length_a   4.24743748
_cell_length_b   4.24743748
_cell_length_c   4.24743748
_cell_angle_alpha   60.00000000
_cell_angle_beta   60.00000000
_cell_angle_gamma   60.00000000
_symmetry_Int_Tables_number   1
_chemical_formula_structural   AcPO2
_chemical_formula_sum   'Ac1 P1 O2'
_cell_volume   54.18336667
_cell_formula_units_Z   1
loop_
 _symmetry_equiv_pos_site_id
 _symmetry_equiv_pos_as_xyz
  1  'x, y, z'
loop_
 _atom_site_type_symbol
 _atom_site_label
 _atom_site_symmetry_multiplicity
 _atom_site_fract_x
 _atom_site_fract_y
 _atom_site_fract_z
 _atom_site_occupancy
  Ac  Ac0  1  0.00000000  0.00000000  0.00000000  1
  P  P1  1  0.50000003  0.50000003  0.50000003  1
  O  O2  1  0.75000004  0.75000004  0.75000004  1
  O  O3  1  0.25000001  0.25000001  0.25000001  1
