# generated using pymatgen
data_K2PbCl6
_symmetry_space_group_name_H-M   'P 1'
_cell_length_a   7.34560585
_cell_length_b   7.35371685
_cell_length_c   10.43128395
_cell_angle_alpha   90.00000000
_cell_angle_beta   90.52529144
_cell_angle_gamma   90.00000000
_symmetry_Int_Tables_number   1
_chemical_formula_structural   K2PbCl6
_chemical_formula_sum   'K4 Pb2 Cl12'
_cell_volume   563.44825765
_cell_formula_units_Z   2
loop_
 _symmetry_equiv_pos_site_id
 _symmetry_equiv_pos_as_xyz
  1  'x, y, z'
loop_
 _atom_site_type_symbol
 _atom_site_label
 _atom_site_symmetry_multiplicity
 _atom_site_fract_x
 _atom_site_fract_y
 _atom_site_fract_z
 _atom_site_occupancy
  K  K0  1  0.50940901  0.95996402  0.24512702  1
  K  K1  1  0.49059101  0.04003600  0.75487304  1
  K  K2  1  0.99059102  0.45996401  0.25487303  1
  K  K3  1  0.00940900  0.54003601  0.74512703  1
  Pb  Pb4  1  0.50000001  0.50000001  0.50000003  1
  Pb  Pb5  1  0.00000000  0.00000000  0.00000000  1
  Cl  Cl6  1  0.78146802  0.70690201  0.47518004  1
  Cl  Cl7  1  0.21853200  0.29309801  0.52482003  1
  Cl  Cl8  1  0.71853201  0.20690200  0.02482002  1
  Cl  Cl9  1  0.28146801  0.79309802  0.97518005  1
  Cl  Cl10  1  0.70423701  0.21682900  0.47794404  1
  Cl  Cl11  1  0.29576301  0.78317102  0.52205603  1
  Cl  Cl12  1  0.79576302  0.71682901  0.02205602  1
  Cl  Cl13  1  0.20423700  0.28317101  0.97794405  1
  Cl  Cl14  1  0.45198601  0.50342601  0.25579902  1
  Cl  Cl15  1  0.54801401  0.49657401  0.74420104  1
  Cl  Cl16  1  0.04801400  0.00342600  0.24420101  1
  Cl  Cl17  1  0.95198602  0.99657402  0.75579905  1
