# generated using pymatgen
data_CoNiH4ClO4
_symmetry_space_group_name_H-M   'P 1'
_cell_length_a   3.82911086
_cell_length_b   5.86215782
_cell_length_c   5.86215782
_cell_angle_alpha   90.23387146
_cell_angle_beta   91.31090546
_cell_angle_gamma   91.31090546
_symmetry_Int_Tables_number   1
_chemical_formula_structural   CoNiH4ClO4
_chemical_formula_sum   'Co1 Ni1 H4 Cl1 O4'
_cell_volume   131.51672329
_cell_formula_units_Z   1
loop_
 _symmetry_equiv_pos_site_id
 _symmetry_equiv_pos_as_xyz
  1  'x, y, z'
loop_
 _atom_site_type_symbol
 _atom_site_label
 _atom_site_symmetry_multiplicity
 _atom_site_fract_x
 _atom_site_fract_y
 _atom_site_fract_z
 _atom_site_occupancy
  Co  Co0  1  1.00000001  0.99916402  0.00083597  1
  Ni  Ni1  1  0.79792901  0.79696002  0.60053199  1
  H  H2  1  0.20207101  0.39946801  0.20303999  1
  H  H3  1  0.19710101  0.71422701  0.64528199  1
  H  H4  1  0.12603600  0.22472700  0.41477800  1
  H  H5  1  0.80289900  0.35471801  0.28577300  1
  Cl  Cl6  1  0.87396401  0.58522201  0.77527300  1
  O  O7  1  0.03258500  0.27393801  0.25730000  1
  O  O8  1  0.96741501  0.74270002  0.72606200  1
  O  O9  1  0.50000001  0.78301102  0.21698898  1
  O  O10  1  0.50000000  0.21586500  0.78413501  1
