# generated using pymatgen
data_BaGaH5
_symmetry_space_group_name_H-M   'P 1'
_cell_length_a   4.60669279
_cell_length_b   5.01670027
_cell_length_c   8.74794102
_cell_angle_alpha   89.99687195
_cell_angle_beta   90.00000000
_cell_angle_gamma   90.00000000
_symmetry_Int_Tables_number   1
_chemical_formula_structural   BaGaH5
_chemical_formula_sum   'Ba2 Ga2 H10'
_cell_volume   202.16838917
_cell_formula_units_Z   2
loop_
 _symmetry_equiv_pos_site_id
 _symmetry_equiv_pos_as_xyz
  1  'x, y, z'
loop_
 _atom_site_type_symbol
 _atom_site_label
 _atom_site_symmetry_multiplicity
 _atom_site_fract_x
 _atom_site_fract_y
 _atom_site_fract_z
 _atom_site_occupancy
  Ba  Ba0  1  0.25968201  0.75009499  0.66229600  1
  Ba  Ba1  1  0.75968203  0.24990500  0.33770400  1
  Ga  Ga2  1  0.67023003  0.25019600  0.85742101  1
  Ga  Ga3  1  0.17023001  0.74980399  0.14257900  1
  H  H4  1  0.32364801  0.25033400  0.83830601  1
  H  H5  1  0.82364804  0.74966599  0.16169400  1
  H  H6  1  0.77596404  0.99197498  0.76364500  1
  H  H7  1  0.27596401  0.00802500  0.23635500  1
  H  H8  1  0.77609404  0.50910599  0.76434700  1
  H  H9  1  0.27609401  0.49089399  0.23565300  1
  H  H10  1  0.78231904  0.24941400  0.02722900  1
  H  H11  1  0.28231901  0.75058599  0.97277100  1
  H  H12  1  0.26357201  0.25012900  0.51476400  1
  H  H13  1  0.76357203  0.74987099  0.48523600  1
