# generated using pymatgen
data_K3Nb3(BO6)2
_symmetry_space_group_name_H-M   'P 1'
_cell_length_a   4.03286505
_cell_length_b   8.91678429
_cell_length_c   8.91678333
_cell_angle_alpha   120.00000000
_cell_angle_beta   90.00000000
_cell_angle_gamma   90.00000000
_symmetry_Int_Tables_number   1
_chemical_formula_structural   K3Nb3(BO6)2
_chemical_formula_sum   'K3 Nb3 B2 O12'
_cell_volume   277.69035480
_cell_formula_units_Z   1
loop_
 _symmetry_equiv_pos_site_id
 _symmetry_equiv_pos_as_xyz
  1  'x, y, z'
loop_
 _atom_site_type_symbol
 _atom_site_label
 _atom_site_symmetry_multiplicity
 _atom_site_fract_x
 _atom_site_fract_y
 _atom_site_fract_z
 _atom_site_occupancy
  K  K0  1  0.50166099  0.00000000  0.59660702  1
  K  K1  1  0.50166099  0.40339298  0.40339300  1
  K  K2  1  0.50166099  0.59660697  -0.00000002  1
  Nb  Nb3  1  0.97988899  0.75285096  0.75285100  1
  Nb  Nb4  1  0.97988899  0.24714899  -0.00000001  1
  Nb  Nb5  1  0.97988899  0.00000000  0.24714901  1
  B  B6  1  0.01776100  0.66666664  0.33333332  1
  B  B7  1  0.01776100  0.33333332  0.66666668  1
  O  O8  1  0.51855499  0.73769897  0.73769900  1
  O  O9  1  0.01821600  0.68362997  0.49557299  1
  O  O10  1  0.01821600  0.81194296  0.31637099  1
  O  O11  1  0.01365500  0.17909199  0.17909200  1
  O  O12  1  0.01821600  0.18805699  0.50442701  1
  O  O13  1  0.01821600  0.50442798  0.18805799  1
  O  O14  1  0.01365500  0.00000000  0.82090802  1
  O  O15  1  0.01365500  0.82090796  -0.00000002  1
  O  O16  1  0.01821600  0.31636999  0.81194201  1
  O  O17  1  0.51855499  0.26230099  1.00000002  1
  O  O18  1  0.01821600  0.49557198  0.68362901  1
  O  O19  1  0.51855499  0.99999995  0.26230098  1
