# generated using pymatgen
data_Al2H7NF6
_symmetry_space_group_name_H-M   'P 1'
_cell_length_a   5.52014399
_cell_length_b   5.55812359
_cell_length_c   5.58437109
_cell_angle_alpha   90.00000000
_cell_angle_beta   90.00000000
_cell_angle_gamma   119.77421570
_symmetry_Int_Tables_number   1
_chemical_formula_structural   Al2H7NF6
_chemical_formula_sum   'Al2 H7 N1 F6'
_cell_volume   148.71922167
_cell_formula_units_Z   1
loop_
 _symmetry_equiv_pos_site_id
 _symmetry_equiv_pos_as_xyz
  1  'x, y, z'
loop_
 _atom_site_type_symbol
 _atom_site_label
 _atom_site_symmetry_multiplicity
 _atom_site_fract_x
 _atom_site_fract_y
 _atom_site_fract_z
 _atom_site_occupancy
  Al  Al0  1  0.14123997  0.78247996  0.74987799  1
  Al  Al1  1  0.64123997  0.78247996  0.25012200  1
  H  H2  1  0.37733199  0.25466399  0.96536098  1
  H  H3  1  0.87733199  0.25466399  0.03463900  1
  H  H4  1  0.23608499  0.27603399  0.71159799  1
  H  H5  1  0.03994899  0.27603399  0.28840200  1
  H  H6  1  0.73608499  0.27603399  0.28840200  1
  H  H7  1  0.53994899  0.27603399  0.71159799  1
  N  N8  1  0.34563099  0.19126199  0.78794899  1
  H  H9  1  0.84563099  0.19126199  0.21205100  1
  F  F10  1  0.89838297  0.79676596  0.49999999  1
  F  F11  1  0.39838297  0.79676596  0.49999999  1
  F  F12  1  0.87535997  0.75071997  0.99999998  1
  F  F13  1  0.37535997  0.75071997  0.99999998  1
  F  F14  1  0.94761899  0.39523798  0.72587799  1
  F  F15  1  0.44761898  0.39523798  0.27412200  1
