# generated using pymatgen
data_NaV(GaH8)2
_symmetry_space_group_name_H-M   'P 1'
_cell_length_a   5.01705599
_cell_length_b   6.30931234
_cell_length_c   8.46170902
_cell_angle_alpha   110.34020233
_cell_angle_beta   90.14665222
_cell_angle_gamma   92.95130920
_symmetry_Int_Tables_number   1
_chemical_formula_structural   NaV(GaH8)2
_chemical_formula_sum   'Na1 V1 Ga2 H16'
_cell_volume   250.75382582
_cell_formula_units_Z   1
loop_
 _symmetry_equiv_pos_site_id
 _symmetry_equiv_pos_as_xyz
  1  'x, y, z'
loop_
 _atom_site_type_symbol
 _atom_site_label
 _atom_site_symmetry_multiplicity
 _atom_site_fract_x
 _atom_site_fract_y
 _atom_site_fract_z
 _atom_site_occupancy
  Na  Na0  1  0.23935203  0.29246100  0.72709600  1
  V  V1  1  0.76064807  0.70753901  0.27290402  1
  Ga  Ga2  1  0.70452009  0.93716601  0.65686902  1
  Ga  Ga3  1  0.21904803  0.35695800  0.13845901  1
  H  H4  1  0.78095206  0.64304201  0.86154101  1
  H  H5  1  0.29548001  0.06283400  0.34313100  1
  H  H6  1  0.74150108  0.87173301  0.82265202  1
  H  H7  1  0.06181105  0.57410001  0.79719300  1
  H  H8  1  0.76358107  0.72467901  0.05199102  1
  H  H9  1  0.56626104  0.46735900  0.76579801  1
  H  H10  1  0.23641903  0.27532100  0.94800900  1
  H  H11  1  0.58466209  0.99070601  0.34094902  1
  H  H12  1  0.74572107  0.71938501  0.50576702  1
  H  H13  1  0.25427903  0.28061500  0.49423300  1
  H  H14  1  0.25849901  0.12826700  0.17734800  1
  H  H15  1  0.41533800  0.00929400  0.65905100  1
  H  H16  1  0.43373905  0.53264101  0.23420201  1
  H  H17  1  0.93818904  0.42590000  0.20280702  1
  H  H18  1  0.90191901  0.13377800  0.67234501  1
  H  H19  1  0.09808108  0.86622201  0.32765501  1
