# generated using pymatgen
data_RbTl(SO4)2
_symmetry_space_group_name_H-M   'P 1'
_cell_length_a   5.01198483
_cell_length_b   5.01198483
_cell_length_c   9.26504993
_cell_angle_alpha   74.30728912
_cell_angle_beta   74.30728912
_cell_angle_gamma   59.99999237
_symmetry_Int_Tables_number   1
_chemical_formula_structural   RbTl(SO4)2
_chemical_formula_sum   'Rb1 Tl1 S2 O8'
_cell_volume   191.47442360
_cell_formula_units_Z   1
loop_
 _symmetry_equiv_pos_site_id
 _symmetry_equiv_pos_as_xyz
  1  'x, y, z'
loop_
 _atom_site_type_symbol
 _atom_site_label
 _atom_site_symmetry_multiplicity
 _atom_site_fract_x
 _atom_site_fract_y
 _atom_site_fract_z
 _atom_site_occupancy
  Rb  Rb0  1  0.00000000  0.00000000  0.00000000  1
  Tl  Tl1  1  0.49999997  0.49999997  0.50000002  1
  S  S2  1  0.75919895  0.75919896  0.72240303  1
  S  S3  1  0.24080098  0.24080099  0.27759701  1
  O  O4  1  0.70380495  0.70380496  0.88858503  1
  O  O5  1  0.29619498  0.29619498  0.11141501  1
  O  O6  1  0.93279295  0.23389199  0.33483202  1
  O  O7  1  0.06720699  0.50151697  0.66516801  1
  O  O8  1  0.50151696  0.76610796  0.66516803  1
  O  O9  1  0.49848296  0.93279295  0.33483203  1
  O  O10  1  0.23389198  0.49848297  0.33483201  1
  O  O11  1  0.76610796  0.06720700  0.66516802  1
