# generated using pymatgen
data_AlCuSe2
_symmetry_space_group_name_H-M   'P 1'
_cell_length_a   5.65408993
_cell_length_b   5.65408993
_cell_length_c   6.86824131
_cell_angle_alpha   114.30609131
_cell_angle_beta   114.30609131
_cell_angle_gamma   90.00000000
_symmetry_Int_Tables_number   1
_chemical_formula_structural   AlCuSe2
_chemical_formula_sum   'Al2 Cu2 Se4'
_cell_volume   178.53433233
_cell_formula_units_Z   2
loop_
 _symmetry_equiv_pos_site_id
 _symmetry_equiv_pos_as_xyz
  1  'x, y, z'
loop_
 _atom_site_type_symbol
 _atom_site_label
 _atom_site_symmetry_multiplicity
 _atom_site_fract_x
 _atom_site_fract_y
 _atom_site_fract_z
 _atom_site_occupancy
  Al  Al0  1  0.50000005  0.50000003  0.00000007  1
  Al  Al1  1  0.75000005  0.25000001  0.50000006  1
  Cu  Cu2  1  0.25000006  0.75000004  0.50000007  1
  Cu  Cu3  1  0.00000000  0.00000000  0.00000000  1
  Se  Se4  1  0.62363603  0.12392601  0.75262204  1
  Se  Se5  1  0.12898605  0.62869603  0.75262206  1
  Se  Se6  1  0.87607410  0.87101505  0.24737912  1
  Se  Se7  1  0.37130404  0.37636302  0.24737705  1
