# generated using pymatgen
data_Co3OF5
_symmetry_space_group_name_H-M   'P 1'
_cell_length_a   4.73155785
_cell_length_b   5.67537117
_cell_length_c   7.83299112
_cell_angle_alpha   86.21051025
_cell_angle_beta   88.69669342
_cell_angle_gamma   88.04059601
_symmetry_Int_Tables_number   1
_chemical_formula_structural   Co3OF5
_chemical_formula_sum   'Co6 O2 F10'
_cell_volume   209.71515932
_cell_formula_units_Z   2
loop_
 _symmetry_equiv_pos_site_id
 _symmetry_equiv_pos_as_xyz
  1  'x, y, z'
loop_
 _atom_site_type_symbol
 _atom_site_label
 _atom_site_symmetry_multiplicity
 _atom_site_fract_x
 _atom_site_fract_y
 _atom_site_fract_z
 _atom_site_occupancy
  Co  Co0  1  0.51386103  0.49784302  0.99363004  1
  Co  Co1  1  0.52541705  0.81431503  0.66042304  1
  Co  Co2  1  0.49434702  0.16543701  0.33453902  1
  Co  Co3  1  0.98675905  0.66638802  0.34281704  1
  Co  Co4  1  0.98030504  0.34119701  0.67595204  1
  Co  Co5  1  0.99672603  0.01541400  0.99426905  1
  O  O6  1  0.79809505  0.61244402  0.57984304  1
  O  O7  1  0.81150604  0.30690001  0.88136604  1
  F  F8  1  0.80514406  0.96649703  0.23284304  1
  F  F9  1  0.69631904  0.46406802  0.23447903  1
  F  F10  1  0.68917305  0.81286803  0.89794105  1
  F  F11  1  0.70520503  0.11354200  0.56201103  1
  F  F12  1  0.30733104  0.85831803  0.43606303  1
  F  F13  1  0.29618903  0.54906602  0.76636303  1
  F  F14  1  0.30548502  0.20438301  0.10167701  1
  F  F15  1  0.20613201  0.04672700  0.75209702  1
  F  F16  1  0.19433103  0.70378102  0.10343402  1
  F  F17  1  0.18767802  0.36080901  0.45024902  1
