# generated using pymatgen
data_Nb2Bi4O13
_symmetry_space_group_name_H-M   'P 1'
_cell_length_a   3.86469436
_cell_length_b   3.86469436
_cell_length_c   16.97887421
_cell_angle_alpha   84.22256470
_cell_angle_beta   84.22256470
_cell_angle_gamma   88.83345795
_symmetry_Int_Tables_number   1
_chemical_formula_structural   Nb2Bi4O13
_chemical_formula_sum   'Nb2 Bi4 O13'
_cell_volume   251.01098186
_cell_formula_units_Z   1
loop_
 _symmetry_equiv_pos_site_id
 _symmetry_equiv_pos_as_xyz
  1  'x, y, z'
loop_
 _atom_site_type_symbol
 _atom_site_label
 _atom_site_symmetry_multiplicity
 _atom_site_fract_x
 _atom_site_fract_y
 _atom_site_fract_z
 _atom_site_occupancy
  Nb  Nb0  1  0.63527802  0.63527800  0.74296504  1
  Nb  Nb1  1  0.36472201  0.36472200  0.25703502  1
  Bi  Bi2  1  0.50000002  0.50000000  1.00000005  1
  Bi  Bi3  1  0.13955601  0.13955600  0.86753903  1
  Bi  Bi4  1  0.77775603  0.77775600  0.42349404  1
  Bi  Bi5  1  0.22224401  0.22224400  0.57650602  1
  O  O6  1  0.86044403  0.86044400  0.13246103  1
  O  O7  1  0.53499202  0.53499200  0.88152304  1
  O  O8  1  0.46500802  0.46500800  0.11847702  1
  O  O9  1  0.89330901  0.41085900  0.23262103  1
  O  O10  1  0.24973303  0.75026700  0.50000003  1
  O  O11  1  0.10669102  0.58914100  0.76737903  1
  O  O12  1  0.75026701  0.24973300  0.50000003  1
  O  O13  1  0.41085903  0.89330900  0.23262103  1
  O  O14  1  0.50000000  0.00000000  1.00000004  1
  O  O15  1  0.32292501  0.32292500  0.36326802  1
  O  O16  1  0.67707503  0.67707500  0.63673204  1
  O  O17  1  0.58914100  0.10669100  0.76737903  1
  O  O18  1  0.00000002  0.50000000  0.00000001  1
