# generated using pymatgen
data_Sc2Te3
_symmetry_space_group_name_H-M   'P 1'
_cell_length_a   7.19923735
_cell_length_b   7.19923735
_cell_length_c   13.09619236
_cell_angle_alpha   100.58364105
_cell_angle_beta   100.58364105
_cell_angle_gamma   109.37600708
_symmetry_Int_Tables_number   1
_chemical_formula_structural   Sc2Te3
_chemical_formula_sum   'Sc8 Te12'
_cell_volume   607.13318341
_cell_formula_units_Z   4
loop_
 _symmetry_equiv_pos_site_id
 _symmetry_equiv_pos_as_xyz
  1  'x, y, z'
loop_
 _atom_site_type_symbol
 _atom_site_label
 _atom_site_symmetry_multiplicity
 _atom_site_fract_x
 _atom_site_fract_y
 _atom_site_fract_z
 _atom_site_occupancy
  Sc  Sc0  1  0.33204893  0.83204895  0.66409801  1
  Sc  Sc1  1  0.16795095  0.66795096  0.33590200  1
  Sc  Sc2  1  0.91795091  0.91795095  0.83590201  1
  Sc  Sc3  1  0.08204899  0.08204900  0.16409800  1
  Sc  Sc4  1  0.00042696  0.50042697  0.00085399  1
  Sc  Sc5  1  0.49957291  0.99957294  0.99914602  1
  Sc  Sc6  1  0.24957297  0.24957299  0.49914601  1
  Sc  Sc7  1  0.75042692  0.75042696  0.50085401  1
  Te  Te8  1  0.99758193  0.49758197  0.50000001  1
  Te  Te9  1  0.50241798  0.00241800  0.50000001  1
  Te  Te10  1  0.25241797  0.25241799  1.00000002  1
  Te  Te11  1  0.74758192  0.74758196  1.00000002  1
  Te  Te12  1  0.66666663  0.16575599  0.83403269  1
  Te  Te13  1  0.33174293  0.83263395  0.16598700  1
  Te  Te14  1  0.83424395  0.33333331  0.16598700  1
  Te  Te15  1  0.16736595  0.66825696  0.83403268  1
  Te  Te16  1  0.58335394  0.58424397  0.66598801  1
  Te  Te17  1  0.91825691  0.91736595  0.33401300  1
  Te  Te18  1  0.41575596  0.41664598  0.33401300  1
  Te  Te19  1  0.08263399  0.08174300  0.66598802  1
