# generated using pymatgen
data_Na2Ag9S3O4
_symmetry_space_group_name_H-M   'P 1'
_cell_length_a   6.51967955
_cell_length_b   6.51968241
_cell_length_c   8.13028336
_cell_angle_alpha   90.00001526
_cell_angle_beta   89.99998474
_cell_angle_gamma   89.99993896
_symmetry_Int_Tables_number   1
_chemical_formula_structural   Na2Ag9S3O4
_chemical_formula_sum   'Na2 Ag9 S3 O4'
_cell_volume   345.58777591
_cell_formula_units_Z   1
loop_
 _symmetry_equiv_pos_site_id
 _symmetry_equiv_pos_as_xyz
  1  'x, y, z'
loop_
 _atom_site_type_symbol
 _atom_site_label
 _atom_site_symmetry_multiplicity
 _atom_site_fract_x
 _atom_site_fract_y
 _atom_site_fract_z
 _atom_site_occupancy
  Na  Na0  1  0.00000000  0.00000000  0.49999998  1
  Na  Na1  1  0.50000000  0.49999998  0.49999998  1
  Ag  Ag2  1  0.74999699  0.25000299  0.25398701  1
  Ag  Ag3  1  0.25000401  0.74999598  0.25398696  1
  Ag  Ag4  1  0.25000400  0.25000299  0.25399899  1
  Ag  Ag5  1  0.74999700  0.74999598  0.25399899  1
  Ag  Ag6  1  0.74999599  0.25000399  0.74599799  1
  Ag  Ag7  1  0.25000301  0.74999698  0.74599794  1
  Ag  Ag8  1  0.25000300  0.25000399  0.74601597  1
  Ag  Ag9  1  0.74999600  0.74999698  0.74601597  1
  Ag  Ag10  1  0.50000000  0.49999998  -0.00000000  1
  S  S11  1  0.00000000  0.00000000  0.00000000  1
  S  S12  1  0.00000001  0.49999998  0.49999995  1
  S  S13  1  0.49999999  0.00000000  0.50000000  1
  O  O14  1  0.00000000  0.00000000  0.78192897  1
  O  O15  1  0.50000000  0.49999998  0.78194097  1
  O  O16  1  0.00000000  0.00000000  0.21807099  1
  O  O17  1  0.50000000  0.49999998  0.21805899  1
