# generated using pymatgen
data_Ag2S
_symmetry_space_group_name_H-M   'P 1'
_cell_length_a   3.70559192
_cell_length_b   6.39049244
_cell_length_c   6.82465029
_cell_angle_alpha   106.33606720
_cell_angle_beta   105.75270081
_cell_angle_gamma   90.00000000
_symmetry_Int_Tables_number   1
_chemical_formula_structural   Ag2S
_chemical_formula_sum   'Ag4 S2'
_cell_volume   148.75128277
_cell_formula_units_Z   2
loop_
 _symmetry_equiv_pos_site_id
 _symmetry_equiv_pos_as_xyz
  1  'x, y, z'
loop_
 _atom_site_type_symbol
 _atom_site_label
 _atom_site_symmetry_multiplicity
 _atom_site_fract_x
 _atom_site_fract_y
 _atom_site_fract_z
 _atom_site_occupancy
  Ag  Ag0  1  0.13090799  0.34841500  0.26181598  1
  Ag  Ag1  1  0.86909199  0.65158499  0.73818396  1
  Ag  Ag2  1  0.63872098  0.84900099  0.27744195  1
  Ag  Ag3  1  0.36127900  0.15099900  0.72255799  1
  S  S4  1  0.74911900  0.21840900  0.49823798  1
  S  S5  1  0.25088097  0.78159099  0.50176196  1
