# generated using pymatgen
data_MgGeO3
_symmetry_space_group_name_H-M   'P 1'
_cell_length_a   5.07224798
_cell_length_b   5.98990107
_cell_length_c   7.77857924
_cell_angle_alpha   90.00000000
_cell_angle_beta   90.00000000
_cell_angle_gamma   90.00000000
_symmetry_Int_Tables_number   1
_chemical_formula_structural   MgGeO3
_chemical_formula_sum   'Mg4 Ge4 O12'
_cell_volume   236.33084470
_cell_formula_units_Z   4
loop_
 _symmetry_equiv_pos_site_id
 _symmetry_equiv_pos_as_xyz
  1  'x, y, z'
loop_
 _atom_site_type_symbol
 _atom_site_label
 _atom_site_symmetry_multiplicity
 _atom_site_fract_x
 _atom_site_fract_y
 _atom_site_fract_z
 _atom_site_occupancy
  Mg  Mg0  1  0.50000000  0.00000000  -0.00000000  1
  Mg  Mg1  1  0.00000000  0.49999999  -0.00000000  1
  Mg  Mg2  1  0.00000000  0.49999999  0.49999998  1
  Mg  Mg3  1  0.50000000  0.00000000  0.49999998  1
  Ge  Ge4  1  0.98191700  0.02197200  0.24999999  1
  Ge  Ge5  1  0.48191700  0.47802799  0.74999998  1
  Ge  Ge6  1  0.51808300  0.52197199  0.24999999  1
  Ge  Ge7  1  0.01808300  0.97802799  0.74999998  1
  O  O8  1  0.85933900  0.18313700  0.42131699  1
  O  O9  1  0.35933900  0.31686300  0.57868298  1
  O  O10  1  0.64066100  0.68313699  0.07868300  1
  O  O11  1  0.14066100  0.81686299  0.92131697  1
  O  O12  1  0.14066100  0.81686299  0.57868298  1
  O  O13  1  0.64066100  0.68313699  0.42131699  1
  O  O14  1  0.35933900  0.31686300  0.92131697  1
  O  O15  1  0.85933900  0.18313700  0.07868300  1
  O  O16  1  0.32141600  0.07102500  0.24999999  1
  O  O17  1  0.82141600  0.42897500  0.74999998  1
  O  O18  1  0.17858400  0.57102499  0.24999999  1
  O  O19  1  0.67858400  0.92897499  0.74999998  1
