# generated using pymatgen
data_Rb4Li2V2ClF3
_symmetry_space_group_name_H-M   'P 1'
_cell_length_a   6.30203009
_cell_length_b   8.03589249
_cell_length_c   8.03589249
_cell_angle_alpha   81.15533447
_cell_angle_beta   66.91367340
_cell_angle_gamma   66.91367340
_symmetry_Int_Tables_number   1
_chemical_formula_structural   Rb4Li2V2ClF3
_chemical_formula_sum   'Rb4 Li2 V2 Cl1 F3'
_cell_volume   344.38498129
_cell_formula_units_Z   1
loop_
 _symmetry_equiv_pos_site_id
 _symmetry_equiv_pos_as_xyz
  1  'x, y, z'
loop_
 _atom_site_type_symbol
 _atom_site_label
 _atom_site_symmetry_multiplicity
 _atom_site_fract_x
 _atom_site_fract_y
 _atom_site_fract_z
 _atom_site_occupancy
  Rb  Rb0  1  0.80731398  0.69268601  0.69268606  1
  Rb  Rb1  1  0.49999999  0.69268601  0.30731404  1
  Rb  Rb2  1  0.19268600  0.30731400  0.30731402  1
  Rb  Rb3  1  0.49999999  0.30731400  0.69268603  1
  V  V4  1  0.14064900  0.00000000  0.71870202  1
  Li  Li5  1  0.85935098  1.00000001  0.28129806  1
  V  V6  1  0.85934998  0.28129900  0.00000002  1
  Li  Li7  1  0.14065000  0.71870101  1.00000006  1
  Cl  Cl8  1  0.71698998  0.28301000  0.28301003  1
  F  F9  1  0.99999998  0.28301000  0.71699004  1
  F  F10  1  -0.00000000  0.71699001  0.28301004  1
  F  F11  1  0.28300999  0.71699001  0.71699005  1
