# generated using pymatgen
data_BaNaLaTl(N2F)2
_symmetry_space_group_name_H-M   'P 1'
_cell_length_a   4.00859690
_cell_length_b   4.00859690
_cell_length_c   8.02223301
_cell_angle_alpha   90.00000000
_cell_angle_beta   90.00000000
_cell_angle_gamma   90.00000000
_symmetry_Int_Tables_number   1
_chemical_formula_structural   BaNaLaTl(N2F)2
_chemical_formula_sum   'Ba1 Na1 La1 Tl1 N4 F2'
_cell_volume   128.90805154
_cell_formula_units_Z   1
loop_
 _symmetry_equiv_pos_site_id
 _symmetry_equiv_pos_as_xyz
  1  'x, y, z'
loop_
 _atom_site_type_symbol
 _atom_site_label
 _atom_site_symmetry_multiplicity
 _atom_site_fract_x
 _atom_site_fract_y
 _atom_site_fract_z
 _atom_site_occupancy
  Ba  Ba0  1  0.50000001  0.50000001  0.50000000  1
  La  La1  1  0.50000001  0.50000001  -0.00000000  1
  Tl  Tl2  1  0.00000000  0.00000000  0.74998700  1
  Na  Na3  1  0.00000000  0.00000000  0.25001300  1
  F  F4  1  0.50000001  0.00000000  -0.00000000  1
  N  N5  1  0.50000001  0.00000000  0.50000000  1
  N  N6  1  0.50000001  0.50000001  0.74852300  1
  N  N7  1  0.50000001  0.50000001  0.25147700  1
  F  F8  1  0.00000000  0.50000001  -0.00000000  1
  N  N9  1  0.00000000  0.50000001  0.50000000  1
