# generated using pymatgen
data_RbFeO2
_symmetry_space_group_name_H-M   'P 1'
_cell_length_a   5.93197107
_cell_length_b   5.96192217
_cell_length_c   8.12047195
_cell_angle_alpha   89.99996948
_cell_angle_beta   89.99980164
_cell_angle_gamma   90.00009918
_symmetry_Int_Tables_number   1
_chemical_formula_structural   RbFeO2
_chemical_formula_sum   'Rb4 Fe4 O8'
_cell_volume   287.18820386
_cell_formula_units_Z   4
loop_
 _symmetry_equiv_pos_site_id
 _symmetry_equiv_pos_as_xyz
  1  'x, y, z'
loop_
 _atom_site_type_symbol
 _atom_site_label
 _atom_site_symmetry_multiplicity
 _atom_site_fract_x
 _atom_site_fract_y
 _atom_site_fract_z
 _atom_site_occupancy
  Rb  Rb0  1  0.98582403  0.93649097  0.37768400  1
  Rb  Rb1  1  0.48582102  0.56350998  0.87768501  1
  Rb  Rb2  1  0.98582401  0.43651399  0.12231498  1
  Rb  Rb3  1  0.48582300  0.06348600  0.62231499  1
  Fe  Fe4  1  0.99921301  0.45306399  0.62632098  1
  Fe  Fe5  1  0.49921400  0.04693800  0.12632098  1
  Fe  Fe6  1  0.99921104  0.95307397  0.87367800  1
  Fe  Fe7  1  0.49921102  0.54692298  0.37368000  1
  O  O8  1  0.29705305  0.99293397  0.95120303  1
  O  O9  1  0.79705202  0.50706599  0.45120299  1
  O  O10  1  0.29709102  0.49293299  0.54877901  1
  O  O11  1  0.79708999  0.00706700  0.04877897  1
  O  O12  1  0.45777504  0.84837398  0.30573801  1
  O  O13  1  0.95777502  0.65162598  0.80573899  1
  O  O14  1  0.45777101  0.34841199  0.19428000  1
  O  O15  1  0.95777000  0.15158800  0.69427897  1
