# generated using pymatgen
data_LiVFeCo(BO3)4
_symmetry_space_group_name_H-M   'P 1'
_cell_length_a   4.69952583
_cell_length_b   6.17787647
_cell_length_c   6.51196194
_cell_angle_alpha   96.63601685
_cell_angle_beta   100.22552490
_cell_angle_gamma   106.85436249
_symmetry_Int_Tables_number   1
_chemical_formula_structural   LiVFeCo(BO3)4
_chemical_formula_sum   'Li1 V1 Fe1 Co1 B4 O12'
_cell_volume   175.24457855
_cell_formula_units_Z   1
loop_
 _symmetry_equiv_pos_site_id
 _symmetry_equiv_pos_as_xyz
  1  'x, y, z'
loop_
 _atom_site_type_symbol
 _atom_site_label
 _atom_site_symmetry_multiplicity
 _atom_site_fract_x
 _atom_site_fract_y
 _atom_site_fract_z
 _atom_site_occupancy
  Li  Li0  1  0.77075906  0.33206301  0.18666801  1
  V  V1  1  0.57939005  0.31508401  0.66346000  1
  Co  Co2  1  0.42061008  0.68491603  0.33654000  1
  Fe  Fe3  1  0.22924107  0.66793703  0.81333199  1
  B  B4  1  0.08773902  0.20811601  0.87155299  1
  B  B5  1  0.23746503  0.19102201  0.25935500  1
  B  B6  1  0.91226111  0.79188403  0.12844701  1
  B  B7  1  0.76253511  0.80897803  0.74064500  1
  O  O8  1  0.83344909  0.61147003  0.66121600  1
  O  O9  1  0.73598409  0.62693203  0.22886501  1
  O  O10  1  0.17586808  0.73972703  0.09358800  1
  O  O11  1  0.48079810  0.81430203  0.62210200  1
  O  O12  1  0.69318510  0.80415603  0.94651800  1
  O  O13  1  0.16655104  0.38853002  0.33878400  1
  O  O14  1  0.51920204  0.18569801  0.37789800  1
  O  O15  1  0.02767510  0.99339704  0.72905799  1
  O  O16  1  0.26401605  0.37306802  0.77113499  1
  O  O17  1  0.97232504  0.00660300  0.27094201  1
  O  O18  1  0.30681503  0.19584401  0.05348200  1
  O  O19  1  0.82413206  0.26027301  0.90641200  1
