# generated using pymatgen
data_Li5Fe(Ni2O5)2
_symmetry_space_group_name_H-M   'P 1'
_cell_length_a   5.07928419
_cell_length_b   5.15493441
_cell_length_c   7.74177170
_cell_angle_alpha   83.45678711
_cell_angle_beta   70.84989929
_cell_angle_gamma   69.67349243
_symmetry_Int_Tables_number   1
_chemical_formula_structural   Li5Fe(Ni2O5)2
_chemical_formula_sum   'Li5 Fe1 Ni4 O10'
_cell_volume   179.56417404
_cell_formula_units_Z   1
loop_
 _symmetry_equiv_pos_site_id
 _symmetry_equiv_pos_as_xyz
  1  'x, y, z'
loop_
 _atom_site_type_symbol
 _atom_site_label
 _atom_site_symmetry_multiplicity
 _atom_site_fract_x
 _atom_site_fract_y
 _atom_site_fract_z
 _atom_site_occupancy
  Li  Li0  1  0.79971598  0.50000000  0.40056797  1
  Li  Li1  1  0.20028399  0.50000000  0.59943199  1
  Li  Li2  1  0.29850299  1.00000000  0.40299397  1
  Li  Li3  1  0.70149698  1.00000000  0.59700596  1
  Li  Li4  1  0.10179500  0.00000000  0.79641001  1
  Fe  Fe5  1  0.49999998  1.00000000  -0.00000004  1
  Ni  Ni6  1  0.89820497  1.00000000  0.20358995  1
  Ni  Ni7  1  0.39447399  0.50000000  0.21105198  1
  Ni  Ni8  1  0.60552598  0.50000000  0.78894798  1
  Ni  Ni9  1  -0.00000000  0.50000000  -0.00000002  1
  O  O10  1  0.75333298  0.25687600  -0.00000003  1
  O  O11  1  0.16117499  0.23759600  0.21101099  1
  O  O12  1  0.53479098  0.21744800  0.41021999  1
  O  O13  1  0.94501097  0.21744800  0.58977998  1
  O  O14  1  0.37218599  0.23759600  0.78898899  1
  O  O15  1  0.05498900  0.78255200  0.41021998  1
  O  O16  1  0.46520898  0.78255200  0.58977997  1
  O  O17  1  0.83882497  0.76240400  0.78898897  1
  O  O18  1  0.24666699  0.74312400  -0.00000003  1
  O  O19  1  0.62781398  0.76240400  0.21101096  1
