# generated using pymatgen
data_NbCu3(TeSe)2
_symmetry_space_group_name_H-M   'P 1'
_cell_length_a   5.75972223
_cell_length_b   5.77122736
_cell_length_c   5.77122736
_cell_angle_alpha   91.49324799
_cell_angle_beta   90.00000000
_cell_angle_gamma   90.00000000
_symmetry_Int_Tables_number   1
_chemical_formula_structural   NbCu3(TeSe)2
_chemical_formula_sum   'Nb1 Cu3 Te2 Se2'
_cell_volume   191.77429603
_cell_formula_units_Z   1
loop_
 _symmetry_equiv_pos_site_id
 _symmetry_equiv_pos_as_xyz
  1  'x, y, z'
loop_
 _atom_site_type_symbol
 _atom_site_label
 _atom_site_symmetry_multiplicity
 _atom_site_fract_x
 _atom_site_fract_y
 _atom_site_fract_z
 _atom_site_occupancy
  Nb  Nb0  1  0.99470396  0.00000000  -0.00000000  1
  Cu  Cu1  1  0.98790696  0.00000000  0.50000000  1
  Cu  Cu2  1  0.98790696  0.50000000  0.00000001  1
  Cu  Cu3  1  0.50689298  0.00000000  -0.00000000  1
  Te  Te4  1  0.25298599  0.73918900  0.73918901  1
  Te  Te5  1  0.25298599  0.26081100  0.26081101  1
  Se  Se6  1  0.75830797  0.76559700  0.23440302  1
  Se  Se7  1  0.75830797  0.23440300  0.76559700  1
