# generated using pymatgen
data_Ca4TaNbNiPtO12
_symmetry_space_group_name_H-M   'P 1'
_cell_length_a   5.52595425
_cell_length_b   5.59398222
_cell_length_c   7.70377350
_cell_angle_alpha   90.00004578
_cell_angle_beta   89.80854034
_cell_angle_gamma   90.00025940
_symmetry_Int_Tables_number   1
_chemical_formula_structural   Ca4TaNbNiPtO12
_chemical_formula_sum   'Ca4 Ta1 Nb1 Ni1 Pt1 O12'
_cell_volume   238.13840863
_cell_formula_units_Z   1
loop_
 _symmetry_equiv_pos_site_id
 _symmetry_equiv_pos_as_xyz
  1  'x, y, z'
loop_
 _atom_site_type_symbol
 _atom_site_label
 _atom_site_symmetry_multiplicity
 _atom_site_fract_x
 _atom_site_fract_y
 _atom_site_fract_z
 _atom_site_occupancy
  Ca  Ca0  1  0.48680202  0.45962798  0.74964600  1
  Ca  Ca1  1  0.98678901  0.04037700  0.24965200  1
  Ca  Ca2  1  0.01117203  0.96879196  0.75095702  1
  Ca  Ca3  1  0.51117702  0.53119698  0.25096701  1
  Nb  Nb4  1  0.00018802  0.49945698  0.50125001  1
  Ta  Ta5  1  0.50018600  0.00054000  0.00124500  1
  Ni  Ni6  1  0.00102202  0.49999698  0.99964000  1
  Pt  Pt7  1  0.50101800  0.00001000  0.49963999  1
  O  O8  1  0.41695203  0.98536796  0.24000503  1
  O  O9  1  0.91695202  0.51462898  0.74000301  1
  O  O10  1  0.78424203  0.78860297  0.04334003  1
  O  O11  1  0.28424802  0.71139197  0.54334302  1
  O  O12  1  0.78817603  0.78358597  0.45481702  1
  O  O13  1  0.28817202  0.71641597  0.95481901  1
  O  O14  1  0.07506502  0.48107098  0.25948701  1
  O  O15  1  0.57506100  0.01893300  0.75948599  1
  O  O16  1  0.71954801  0.28325999  0.45861600  1
  O  O17  1  0.21954601  0.21673999  0.95861699  1
  O  O18  1  0.71684001  0.28052199  0.04223601  1
  O  O19  1  0.21683901  0.21948199  0.54223800  1
