# generated using pymatgen
data_BaBO4
_symmetry_space_group_name_H-M   'P 1'
_cell_length_a   5.09193420
_cell_length_b   5.13465118
_cell_length_c   5.29811525
_cell_angle_alpha   96.95942688
_cell_angle_beta   115.98800659
_cell_angle_gamma   114.14693451
_symmetry_Int_Tables_number   1
_chemical_formula_structural   BaBO4
_chemical_formula_sum   'Ba1 B1 O4'
_cell_volume   105.72426311
_cell_formula_units_Z   1
loop_
 _symmetry_equiv_pos_site_id
 _symmetry_equiv_pos_as_xyz
  1  'x, y, z'
loop_
 _atom_site_type_symbol
 _atom_site_label
 _atom_site_symmetry_multiplicity
 _atom_site_fract_x
 _atom_site_fract_y
 _atom_site_fract_z
 _atom_site_occupancy
  Ba  Ba0  1  0.98377304  0.54518202  0.41278011  1
  B  B1  1  0.46896109  0.82101103  0.15007812  1
  O  O2  1  0.30401406  0.49705802  0.05737007  1
  O  O3  1  0.75826210  0.95551404  0.45233615  1
  O  O4  1  0.58154610  0.92063704  0.95750616  1
  O  O5  1  0.23944411  0.91459904  0.13792912  1
