# generated using pymatgen
data_Y4CuS3
_symmetry_space_group_name_H-M   'P 1'
_cell_length_a   4.61523724
_cell_length_b   6.48116589
_cell_length_c   9.26338577
_cell_angle_alpha   90.00000000
_cell_angle_beta   90.00000000
_cell_angle_gamma   90.00000000
_symmetry_Int_Tables_number   1
_chemical_formula_structural   Y4CuS3
_chemical_formula_sum   'Y4 Cu1 S3'
_cell_volume   277.08748951
_cell_formula_units_Z   1
loop_
 _symmetry_equiv_pos_site_id
 _symmetry_equiv_pos_as_xyz
  1  'x, y, z'
loop_
 _atom_site_type_symbol
 _atom_site_label
 _atom_site_symmetry_multiplicity
 _atom_site_fract_x
 _atom_site_fract_y
 _atom_site_fract_z
 _atom_site_occupancy
  Y  Y0  1  0.00000000  0.02049700  -0.00000000  1
  Y  Y1  1  0.49999997  0.49149001  0.76205502  1
  Y  Y2  1  0.00000000  0.99501102  0.50000001  1
  Y  Y3  1  0.49999997  0.49149001  0.23794501  1
  S  S4  1  0.00000000  0.75023601  0.75641602  1
  Cu  Cu5  1  0.49999997  0.25314100  0.50000001  1
  S  S6  1  0.00000000  0.75023601  0.24358401  1
  S  S7  1  0.49999997  0.24789800  -0.00000000  1
