# generated using pymatgen
data_Ba2GdWO6
_symmetry_space_group_name_H-M   'P 1'
_cell_length_a   6.04221106
_cell_length_b   6.05383968
_cell_length_c   6.05822611
_cell_angle_alpha   119.57834625
_cell_angle_beta   119.48028564
_cell_angle_gamma   90.66725922
_symmetry_Int_Tables_number   1
_chemical_formula_structural   Ba2GdWO6
_chemical_formula_sum   'Ba2 Gd1 W1 O6'
_cell_volume   158.00131599
_cell_formula_units_Z   1
loop_
 _symmetry_equiv_pos_site_id
 _symmetry_equiv_pos_as_xyz
  1  'x, y, z'
loop_
 _atom_site_type_symbol
 _atom_site_label
 _atom_site_symmetry_multiplicity
 _atom_site_fract_x
 _atom_site_fract_y
 _atom_site_fract_z
 _atom_site_occupancy
  Ba  Ba0  1  0.25328192  0.75169096  0.50266497  1
  Ba  Ba1  1  0.74671796  0.24830899  0.49733497  1
  Gd  Gd2  1  0.00000000  0.00000000  0.00000000  1
  W  W3  1  0.49999994  0.49999998  -0.00000004  1
  O  O4  1  0.72370391  0.73477397  0.47364495  1
  O  O5  1  0.27629597  0.26522599  0.52635499  1
  O  O6  1  0.75892895  0.28692599  0.00894196  1
  O  O7  1  0.24107093  0.71307397  0.99105798  1
  O  O8  1  0.71337591  0.75996796  0.01304395  1
  O  O9  1  0.28662397  0.24003199  0.98695599  1
