# generated using pymatgen
data_NaLi2Nd(SO3)2
_symmetry_space_group_name_H-M   'P 1'
_cell_length_a   5.26782608
_cell_length_b   5.94360971
_cell_length_c   5.28778887
_cell_angle_alpha   82.14551544
_cell_angle_beta   72.03851318
_cell_angle_gamma   63.69493866
_symmetry_Int_Tables_number   1
_chemical_formula_structural   NaLi2Nd(SO3)2
_chemical_formula_sum   'Na1 Li2 Nd1 S2 O6'
_cell_volume   141.18275253
_cell_formula_units_Z   1
loop_
 _symmetry_equiv_pos_site_id
 _symmetry_equiv_pos_as_xyz
  1  'x, y, z'
loop_
 _atom_site_type_symbol
 _atom_site_label
 _atom_site_symmetry_multiplicity
 _atom_site_fract_x
 _atom_site_fract_y
 _atom_site_fract_z
 _atom_site_occupancy
  Li  Li0  1  0.74345997  0.51308002  0.25000005  1
  Li  Li1  1  0.35337198  0.29325601  0.25000002  1
  Na  Na2  1  0.64662797  0.70674403  0.75000003  1
  Nd  Nd3  1  0.25653998  0.48692002  0.75000000  1
  S  S4  1  0.94099197  0.11801600  0.75000001  1
  S  S5  1  0.05900798  0.88198403  0.25000003  1
  O  O6  1  0.15216299  0.24450001  0.03765102  1
  O  O7  1  0.49999998  0.50000002  1.00000000  1
  O  O8  1  0.60333698  0.24450001  0.46234902  1
  O  O9  1  -0.00000001  0.50000002  0.50000000  1
  O  O10  1  0.39666298  0.75550003  0.53765103  1
  O  O11  1  0.84783696  0.75550003  0.96234903  1
