# generated using pymatgen
data_Mg2BBrN2
_symmetry_space_group_name_H-M   'P 1'
_cell_length_a   5.69037104
_cell_length_b   5.69037104
_cell_length_c   6.56604862
_cell_angle_alpha   74.30719757
_cell_angle_beta   74.30719757
_cell_angle_gamma   72.00766754
_symmetry_Int_Tables_number   1
_chemical_formula_structural   Mg2BBrN2
_chemical_formula_sum   'Mg4 B2 Br2 N4'
_cell_volume   190.57624127
_cell_formula_units_Z   2
loop_
 _symmetry_equiv_pos_site_id
 _symmetry_equiv_pos_as_xyz
  1  'x, y, z'
loop_
 _atom_site_type_symbol
 _atom_site_label
 _atom_site_symmetry_multiplicity
 _atom_site_fract_x
 _atom_site_fract_y
 _atom_site_fract_z
 _atom_site_occupancy
  Mg  Mg0  1  0.34432899  0.13853799  0.83791802  1
  Mg  Mg1  1  0.86146199  0.65567097  0.66208205  1
  Mg  Mg2  1  0.65567100  0.86146196  0.16208205  1
  Mg  Mg3  1  0.13853801  0.34432898  0.33791802  1
  B  B4  1  0.11527102  0.88472896  0.25000003  1
  B  B5  1  0.88472897  0.11527099  0.75000004  1
  Br  Br6  1  0.63076299  0.36923698  0.25000003  1
  Br  Br7  1  0.36923701  0.63076297  0.75000003  1
  N  N8  1  0.26890099  0.04131900  0.18037901  1
  N  N9  1  0.95868099  0.73109896  0.31962106  1
  N  N10  1  0.73109900  0.95868095  0.81962106  1
  N  N11  1  0.04131901  0.26890099  0.68037901  1
