# generated using pymatgen
data_V2OF7
_symmetry_space_group_name_H-M   'P 1'
_cell_length_a   5.97817516
_cell_length_b   5.98458529
_cell_length_c   5.99913692
_cell_angle_alpha   117.35821533
_cell_angle_beta   115.87306213
_cell_angle_gamma   95.78143311
_symmetry_Int_Tables_number   1
_chemical_formula_structural   V2OF7
_chemical_formula_sum   'V2 O1 F7'
_cell_volume   158.86078570
_cell_formula_units_Z   1
loop_
 _symmetry_equiv_pos_site_id
 _symmetry_equiv_pos_as_xyz
  1  'x, y, z'
loop_
 _atom_site_type_symbol
 _atom_site_label
 _atom_site_symmetry_multiplicity
 _atom_site_fract_x
 _atom_site_fract_y
 _atom_site_fract_z
 _atom_site_occupancy
  V  V0  1  0.96097503  0.96686704  0.42799010  1
  V  V1  1  0.47749199  0.01367800  0.99139100  1
  O  O2  1  0.78599002  0.77953403  0.06503409  1
  F  F3  1  0.73740500  0.18677401  0.42466003  1
  F  F4  1  0.28488601  0.22723301  0.01332303  1
  F  F5  1  0.22790703  0.81770803  0.54558206  1
  F  F6  1  0.29178003  0.75333503  0.97698904  1
  F  F7  1  0.72339700  0.18538701  0.97700702  1
  F  F8  1  0.79187402  0.81740803  0.53439208  1
  F  F9  1  0.21725601  0.24263301  0.53538501  1
