# generated using pymatgen
data_EuH2
_symmetry_space_group_name_H-M   'P 1'
_cell_length_a   4.11217785
_cell_length_b   4.11217833
_cell_length_c   5.74676418
_cell_angle_alpha   90.00000000
_cell_angle_beta   90.00000000
_cell_angle_gamma   120.00000000
_symmetry_Int_Tables_number   1
_chemical_formula_structural   EuH2
_chemical_formula_sum   'Eu2 H4'
_cell_volume   84.15847109
_cell_formula_units_Z   2
loop_
 _symmetry_equiv_pos_site_id
 _symmetry_equiv_pos_as_xyz
  1  'x, y, z'
loop_
 _atom_site_type_symbol
 _atom_site_label
 _atom_site_symmetry_multiplicity
 _atom_site_fract_x
 _atom_site_fract_y
 _atom_site_fract_z
 _atom_site_occupancy
  Eu  Eu0  1  0.66666671  0.33333334  0.74999998  1
  Eu  Eu1  1  0.33333338  0.66666669  0.24999999  1
  H  H2  1  0.33333338  0.66666669  0.74999998  1
  H  H3  1  0.66666671  0.33333334  0.24999999  1
  H  H4  1  0.00000000  0.00000000  0.49999998  1
  H  H5  1  0.00000000  0.00000000  0.00000000  1
