# generated using pymatgen
data_Li2CoF6
_symmetry_space_group_name_H-M   'P 1'
_cell_length_a   4.65269709
_cell_length_b   4.65269709
_cell_length_c   9.03835201
_cell_angle_alpha   90.00000000
_cell_angle_beta   90.00000000
_cell_angle_gamma   90.00000000
_symmetry_Int_Tables_number   1
_chemical_formula_structural   Li2CoF6
_chemical_formula_sum   'Li4 Co2 F12'
_cell_volume   195.65854025
_cell_formula_units_Z   2
loop_
 _symmetry_equiv_pos_site_id
 _symmetry_equiv_pos_as_xyz
  1  'x, y, z'
loop_
 _atom_site_type_symbol
 _atom_site_label
 _atom_site_symmetry_multiplicity
 _atom_site_fract_x
 _atom_site_fract_y
 _atom_site_fract_z
 _atom_site_occupancy
  Li  Li0  1  0.49999999  0.49999999  0.33648500  1
  Li  Li1  1  0.49999999  0.49999999  0.66351500  1
  Li  Li2  1  0.00000000  0.00000000  0.16351500  1
  Li  Li3  1  0.00000000  0.00000000  0.83648500  1
  Co  Co4  1  0.49999999  0.49999999  -0.00000000  1
  Co  Co5  1  0.00000000  0.00000000  0.50000000  1
  F  F6  1  0.69564099  0.69564099  0.16132000  1
  F  F7  1  0.69564099  0.69564099  0.83868000  1
  F  F8  1  0.70044899  0.70044899  0.50000000  1
  F  F9  1  0.79955099  0.20044900  -0.00000000  1
  F  F10  1  0.80435899  0.19564100  0.33868000  1
  F  F11  1  0.80435899  0.19564100  0.66132000  1
  F  F12  1  0.19564100  0.80435899  0.33868000  1
  F  F13  1  0.19564100  0.80435899  0.66132000  1
  F  F14  1  0.20044900  0.79955099  -0.00000000  1
  F  F15  1  0.29955099  0.29955099  0.50000000  1
  F  F16  1  0.30435899  0.30435899  0.16132000  1
  F  F17  1  0.30435899  0.30435899  0.83868000  1
