# generated using pymatgen
data_K3YF6
_symmetry_space_group_name_H-M   'P 1'
_cell_length_a   6.43453407
_cell_length_b   6.64779091
_cell_length_c   9.15625000
_cell_angle_alpha   90.00000000
_cell_angle_beta   89.56588745
_cell_angle_gamma   90.00000000
_symmetry_Int_Tables_number   1
_chemical_formula_structural   K3YF6
_chemical_formula_sum   'K6 Y2 F12'
_cell_volume   391.65135416
_cell_formula_units_Z   2
loop_
 _symmetry_equiv_pos_site_id
 _symmetry_equiv_pos_as_xyz
  1  'x, y, z'
loop_
 _atom_site_type_symbol
 _atom_site_label
 _atom_site_symmetry_multiplicity
 _atom_site_fract_x
 _atom_site_fract_y
 _atom_site_fract_z
 _atom_site_occupancy
  K  K0  1  0.49999999  0.50000001  -0.00000002  1
  K  K1  1  0.00000000  0.00000000  0.49999999  1
  K  K2  1  0.48715999  0.04882300  0.24613198  1
  K  K3  1  0.51283999  0.95117701  0.75386797  1
  K  K4  1  0.01284000  0.54882301  0.25386799  1
  K  K5  1  0.98715999  0.45117701  0.74613195  1
  Y  Y6  1  0.49999999  0.50000001  0.49999997  1
  Y  Y7  1  0.00000000  0.00000000  0.00000000  1
  F  F8  1  0.33264400  0.77465301  0.43240498  1
  F  F9  1  0.66735599  0.22534700  0.56759497  1
  F  F10  1  0.16735600  0.27465300  0.06759499  1
  F  F11  1  0.83264399  0.72534701  0.93240495  1
  F  F12  1  0.61092399  0.44469701  0.27462797  1
  F  F13  1  0.38907600  0.55530301  0.72537197  1
  F  F14  1  0.88907599  0.94469701  0.22537197  1
  F  F15  1  0.11092400  0.05530300  0.77462798  1
  F  F16  1  0.21848800  0.32597800  0.44932398  1
  F  F17  1  0.78151199  0.67402201  0.55067596  1
  F  F18  1  0.28151200  0.82597801  0.05067599  1
  F  F19  1  0.71848799  0.17402200  0.94932396  1
