# generated using pymatgen
data_Al6H3O7
_symmetry_space_group_name_H-M   'P 1'
_cell_length_a   5.60933399
_cell_length_b   5.60933399
_cell_length_c   7.21346426
_cell_angle_alpha   104.03247833
_cell_angle_beta   104.03247833
_cell_angle_gamma   106.25843048
_symmetry_Int_Tables_number   1
_chemical_formula_structural   Al6H3O7
_chemical_formula_sum   'Al6 H3 O7'
_cell_volume   199.30810072
_cell_formula_units_Z   1
loop_
 _symmetry_equiv_pos_site_id
 _symmetry_equiv_pos_as_xyz
  1  'x, y, z'
loop_
 _atom_site_type_symbol
 _atom_site_label
 _atom_site_symmetry_multiplicity
 _atom_site_fract_x
 _atom_site_fract_y
 _atom_site_fract_z
 _atom_site_occupancy
  Al  Al0  1  0.17260802  0.82739200  0.74999997  1
  Al  Al1  1  0.82739199  0.17260800  0.24999996  1
  Al  Al2  1  0.50000001  0.50000000  -0.00000004  1
  Al  Al3  1  0.50000001  0.50000000  0.49999997  1
  Al  Al4  1  0.18330402  0.81669600  0.24999997  1
  Al  Al5  1  0.81669599  0.18330400  0.74999997  1
  H  H6  1  0.56746400  0.43253600  0.24999996  1
  O  O7  1  0.43253601  0.56746400  0.74999997  1
  H  H8  1  0.24934300  0.13081700  0.42108199  1
  H  H9  1  0.86918301  0.75065700  0.07891794  1
  O  O10  1  0.75065701  0.86918300  0.57891795  1
  O  O11  1  0.13081700  0.24934300  0.92108200  1
  O  O12  1  0.59961500  0.18533100  0.89196998  1
  O  O13  1  0.81466900  0.40038500  0.60802996  1
  O  O14  1  0.40038501  0.81466900  0.10802996  1
  O  O15  1  0.18533101  0.59961500  0.39196998  1
