# generated using pymatgen
data_V2O3F
_symmetry_space_group_name_H-M   'P 1'
_cell_length_a   5.52092457
_cell_length_b   5.52092457
_cell_length_c   7.32959270
_cell_angle_alpha   70.12252808
_cell_angle_beta   70.12252808
_cell_angle_gamma   71.83676147
_symmetry_Int_Tables_number   1
_chemical_formula_structural   V2O3F
_chemical_formula_sum   'V6 O9 F3'
_cell_volume   192.66337110
_cell_formula_units_Z   3
loop_
 _symmetry_equiv_pos_site_id
 _symmetry_equiv_pos_as_xyz
  1  'x, y, z'
loop_
 _atom_site_type_symbol
 _atom_site_label
 _atom_site_symmetry_multiplicity
 _atom_site_fract_x
 _atom_site_fract_y
 _atom_site_fract_z
 _atom_site_occupancy
  V  V0  1  0.32609402  0.32609400  0.15348396  1
  V  V1  1  0.68057005  0.68057000  0.32867392  1
  V  V2  1  0.34399402  0.34399400  0.68198296  1
  V  V3  1  0.66178005  0.66178000  0.84035892  1
  V  V4  1  0.00035500  0.00035500  0.48491600  1
  V  V5  1  0.98801207  0.98801200  0.01259089  1
  O  O6  1  0.96004803  0.36211300  0.34070393  1
  O  O7  1  0.63143701  0.03895900  0.66580896  1
  O  O8  1  0.76219805  0.76219800  0.03468792  1
  O  O9  1  0.90309206  0.90309200  0.30339190  1
  O  O10  1  0.22793402  0.22793400  0.96202997  1
  O  O11  1  0.56733504  0.56733500  0.63113993  1
  O  O12  1  0.70590403  0.30341800  0.99336394  1
  O  O13  1  0.36211306  0.96004800  0.34070392  1
  F  F14  1  0.03895904  0.63143700  0.66580895  1
  O  O15  1  0.30341804  0.70590400  0.99336393  1
  F  F16  1  0.43574303  0.43574300  0.36700695  1
  F  F17  1  0.10101201  0.10101200  0.69998198  1
