# generated using pymatgen
data_Ni3OF5
_symmetry_space_group_name_H-M   'P 1'
_cell_length_a   4.74367189
_cell_length_b   5.69800711
_cell_length_c   7.91161394
_cell_angle_alpha   92.82558441
_cell_angle_beta   90.00000000
_cell_angle_gamma   90.00000000
_symmetry_Int_Tables_number   1
_chemical_formula_structural   Ni3OF5
_chemical_formula_sum   'Ni6 O2 F10'
_cell_volume   213.58679083
_cell_formula_units_Z   2
loop_
 _symmetry_equiv_pos_site_id
 _symmetry_equiv_pos_as_xyz
  1  'x, y, z'
loop_
 _atom_site_type_symbol
 _atom_site_label
 _atom_site_symmetry_multiplicity
 _atom_site_fract_x
 _atom_site_fract_y
 _atom_site_fract_z
 _atom_site_occupancy
  Ni  Ni0  1  0.48528001  0.25466400  0.98640598  1
  Ni  Ni1  1  0.48384201  0.92733598  0.67063799  1
  Ni  Ni2  1  0.52953501  0.59662899  0.32950799  1
  Ni  Ni3  1  0.98384202  0.07266400  0.32936199  1
  Ni  Ni4  1  0.02953500  0.40337099  0.67049198  1
  Ni  Ni5  1  0.98528002  0.74533599  0.01359400  1
  O  O6  1  0.80098802  0.78242799  0.23871400  1
  O  O7  1  0.30098801  0.21757200  0.76128598  1
  F  F8  1  0.80251602  0.12444800  0.56223199  1
  F  F9  1  0.80426102  0.45293199  0.89618898  1
  F  F10  1  0.69192202  0.28798399  0.22551600  1
  F  F11  1  0.70102502  0.95419798  0.89695498  1
  F  F12  1  0.70063002  0.61516599  0.57509799  1
  F  F13  1  0.30251601  0.87555198  0.43776799  1
  F  F14  1  0.30426101  0.54706799  0.10381100  1
  F  F15  1  0.19192200  0.71201599  0.77448398  1
  F  F16  1  0.20102500  0.04580200  0.10304500  1
  F  F17  1  0.20063000  0.38483399  0.42490199  1
