# generated using pymatgen
data_NaF2
_symmetry_space_group_name_H-M   'P 1'
_cell_length_a   4.09177113
_cell_length_b   4.09177113
_cell_length_c   5.85720587
_cell_angle_alpha   90.00000000
_cell_angle_beta   90.00000000
_cell_angle_gamma   90.00000000
_symmetry_Int_Tables_number   1
_chemical_formula_structural   NaF2
_chemical_formula_sum   'Na2 F4'
_cell_volume   98.06480193
_cell_formula_units_Z   2
loop_
 _symmetry_equiv_pos_site_id
 _symmetry_equiv_pos_as_xyz
  1  'x, y, z'
loop_
 _atom_site_type_symbol
 _atom_site_label
 _atom_site_symmetry_multiplicity
 _atom_site_fract_x
 _atom_site_fract_y
 _atom_site_fract_z
 _atom_site_occupancy
  Na  Na0  1  0.49999998  0.00000000  0.71426802  1
  Na  Na1  1  0.00000000  0.49999998  0.28573201  1
  F  F2  1  0.00000000  0.00000000  0.50000001  1
  F  F3  1  0.49999998  0.49999998  0.50000001  1
  F  F4  1  0.49999998  0.49999998  -0.00000000  1
  F  F5  1  0.00000000  0.00000000  0.00000000  1
