# generated using pymatgen
data_Li3Mn2CoO6
_symmetry_space_group_name_H-M   'P 1'
_cell_length_a   3.07618189
_cell_length_b   5.09806776
_cell_length_c   7.65069962
_cell_angle_alpha   73.31236267
_cell_angle_beta   81.95461273
_cell_angle_gamma   87.72456360
_symmetry_Int_Tables_number   1
_chemical_formula_structural   Li3Mn2CoO6
_chemical_formula_sum   'Li3 Mn2 Co1 O6'
_cell_volume   113.79839308
_cell_formula_units_Z   1
loop_
 _symmetry_equiv_pos_site_id
 _symmetry_equiv_pos_as_xyz
  1  'x, y, z'
loop_
 _atom_site_type_symbol
 _atom_site_label
 _atom_site_symmetry_multiplicity
 _atom_site_fract_x
 _atom_site_fract_y
 _atom_site_fract_z
 _atom_site_occupancy
  Li  Li0  1  0.82824507  0.49745701  0.33467798  1
  Li  Li1  1  0.17175505  0.50254301  0.66532197  1
  Li  Li2  1  0.50000006  0.50000001  -0.00000002  1
  Mn  Mn3  1  0.34660101  0.00151500  0.33067600  1
  Mn  Mn4  1  0.65339912  0.99848502  0.66932395  1
  Co  Co5  1  0.00000000  0.00000000  0.00000000  1
  O  O6  1  0.44555709  0.77624402  0.16219596  1
  O  O7  1  0.72027910  0.76660602  0.50239496  1
  O  O8  1  0.03785207  0.76596002  0.83782495  1
  O  O9  1  0.27972103  0.23339401  0.49760498  1
  O  O10  1  0.55444304  0.22375601  0.83780398  1
  O  O11  1  0.96214805  0.23404001  0.16217500  1
