# generated using pymatgen
data_V4SnO12
_symmetry_space_group_name_H-M   'P 1'
_cell_length_a   5.98518658
_cell_length_b   6.92478609
_cell_length_c   6.92478609
_cell_angle_alpha   83.00530243
_cell_angle_beta   74.50035858
_cell_angle_gamma   74.50035858
_symmetry_Int_Tables_number   1
_chemical_formula_structural   V4SnO12
_chemical_formula_sum   'V4 Sn1 O12'
_cell_volume   266.11737459
_cell_formula_units_Z   1
loop_
 _symmetry_equiv_pos_site_id
 _symmetry_equiv_pos_as_xyz
  1  'x, y, z'
loop_
 _atom_site_type_symbol
 _atom_site_label
 _atom_site_symmetry_multiplicity
 _atom_site_fract_x
 _atom_site_fract_y
 _atom_site_fract_z
 _atom_site_occupancy
  V  V0  1  0.98890597  0.38693101  0.20481498  1
  V  V1  1  0.47587398  0.21227100  0.39083699  1
  V  V2  1  0.01109393  0.79518502  0.61306906  1
  V  V3  1  0.52412595  0.60916301  0.78772902  1
  Sn  Sn4  1  0.50000000  0.08213400  0.91786599  1
  O  O5  1  0.14424298  0.21105200  0.02661501  1
  O  O6  1  0.94557995  0.60727801  0.09007799  1
  O  O7  1  0.55511200  0.04359500  0.20868098  1
  O  O8  1  0.19912397  0.37136501  0.35930402  1
  O  O9  1  0.05441992  0.90992202  0.39272206  1
  O  O10  1  0.69564997  0.34927101  0.35012499  1
  O  O11  1  0.80087595  0.64069601  0.62863501  1
  O  O12  1  0.44219699  0.09682400  0.62836199  1
  O  O13  1  0.30434995  0.64987501  0.65072903  1
  O  O14  1  0.85575692  0.97338502  0.78894803  1
  O  O15  1  0.55780297  0.37163801  0.90317601  1
  O  O16  1  0.44488794  0.79131902  0.95640504  1
