# generated using pymatgen
data_Cs2TcF6
_symmetry_space_group_name_H-M   'P 1'
_cell_length_a   5.12955189
_cell_length_b   6.33971977
_cell_length_c   6.33972025
_cell_angle_alpha   60.00000381
_cell_angle_beta   90.00000000
_cell_angle_gamma   90.00000000
_symmetry_Int_Tables_number   1
_chemical_formula_structural   Cs2TcF6
_chemical_formula_sum   'Cs2 Tc1 F6'
_cell_volume   178.54604381
_cell_formula_units_Z   1
loop_
 _symmetry_equiv_pos_site_id
 _symmetry_equiv_pos_as_xyz
  1  'x, y, z'
loop_
 _atom_site_type_symbol
 _atom_site_label
 _atom_site_symmetry_multiplicity
 _atom_site_fract_x
 _atom_site_fract_y
 _atom_site_fract_z
 _atom_site_occupancy
  Cs  Cs0  1  0.79758202  0.66666668  0.66666670  1
  Cs  Cs1  1  0.20241800  0.33333334  0.33333335  1
  Tc  Tc2  1  0.50000001  0.00000000  0.00000000  1
  F  F3  1  0.28571701  0.85029201  0.85029105  1
  F  F4  1  0.28571701  0.29941701  0.85029103  1
  F  F5  1  0.71428302  0.14970800  0.14970901  1
  F  F6  1  0.28571701  0.85029201  0.29941604  1
  F  F7  1  0.71428302  0.70058301  0.14970903  1
  F  F8  1  0.71428302  0.14970800  0.70058402  1
