# generated using pymatgen
data_LiFeF10
_symmetry_space_group_name_H-M   'P 1'
_cell_length_a   5.81974888
_cell_length_b   5.81974888
_cell_length_c   5.81974888
_cell_angle_alpha   71.84692383
_cell_angle_beta   71.83600616
_cell_angle_gamma   112.12975311
_symmetry_Int_Tables_number   1
_chemical_formula_structural   LiFeF10
_chemical_formula_sum   'Li1 Fe1 F10'
_cell_volume   151.49050902
_cell_formula_units_Z   1
loop_
 _symmetry_equiv_pos_site_id
 _symmetry_equiv_pos_as_xyz
  1  'x, y, z'
loop_
 _atom_site_type_symbol
 _atom_site_label
 _atom_site_symmetry_multiplicity
 _atom_site_fract_x
 _atom_site_fract_y
 _atom_site_fract_z
 _atom_site_occupancy
  Fe  Fe0  1  0.24640101  0.75000000  0.00359898  1
  Li  Li1  1  0.75359900  0.25000000  0.99640097  1
  F  F2  1  0.00000002  1.00000001  0.49999998  1
  F  F3  1  0.50000001  0.50000000  0.49999997  1
  F  F4  1  0.69078202  0.99727801  0.80649596  1
  F  F5  1  0.75406002  0.94350500  0.30243496  1
  F  F6  1  0.19622701  0.50272300  0.80649598  1
  F  F7  1  0.75406001  0.55649500  0.68944496  1
  F  F8  1  0.24594001  0.44350500  0.31055498  1
  F  F9  1  0.24594000  0.05649500  0.69756499  1
  F  F10  1  0.80377301  0.49727700  0.19350397  1
  F  F11  1  0.30921800  0.00272200  0.19350399  1
