# generated using pymatgen
data_NaGa2F7
_symmetry_space_group_name_H-M   'P 1'
_cell_length_a   5.33532715
_cell_length_b   5.54697800
_cell_length_c   7.64367580
_cell_angle_alpha   90.00000000
_cell_angle_beta   90.00000000
_cell_angle_gamma   90.00000000
_symmetry_Int_Tables_number   1
_chemical_formula_structural   NaGa2F7
_chemical_formula_sum   'Na2 Ga4 F14'
_cell_volume   226.21414437
_cell_formula_units_Z   2
loop_
 _symmetry_equiv_pos_site_id
 _symmetry_equiv_pos_as_xyz
  1  'x, y, z'
loop_
 _atom_site_type_symbol
 _atom_site_label
 _atom_site_symmetry_multiplicity
 _atom_site_fract_x
 _atom_site_fract_y
 _atom_site_fract_z
 _atom_site_occupancy
  Na  Na0  1  0.49456099  0.71547700  0.50000001  1
  Na  Na1  1  0.99456097  0.28452300  -0.00000000  1
  Ga  Ga2  1  0.01659600  0.18049500  0.50000001  1
  Ga  Ga3  1  0.51659599  0.81950500  -0.00000000  1
  Ga  Ga4  1  0.51221799  0.26459700  0.75267202  1
  Ga  Ga5  1  0.01221800  0.73540300  0.25267201  1
  F  F6  1  0.51221799  0.26459700  0.24732801  1
  F  F7  1  0.01221800  0.73540300  0.74732802  1
  F  F8  1  0.92302497  0.77209700  0.50000001  1
  F  F9  1  0.59887198  0.27564200  0.50000001  1
  F  F10  1  0.09887200  0.72435800  0.00000000  1
  F  F11  1  0.42302499  0.22790300  -0.00000000  1
  F  F12  1  0.19223399  0.44588200  0.69868402  1
  F  F13  1  0.27902099  0.96348000  0.29000201  1
  F  F14  1  0.77902098  0.03652000  0.20999801  1
  F  F15  1  0.69223398  0.55411800  0.80131602  1
  F  F16  1  0.77902098  0.03652000  0.79000202  1
  F  F17  1  0.69223398  0.55411800  0.19868401  1
  F  F18  1  0.19223399  0.44588200  0.30131601  1
  F  F19  1  0.27902099  0.96348000  0.70999802  1
