# generated using pymatgen
data_Mg3CoNi2F8
_symmetry_space_group_name_H-M   'P 1'
_cell_length_a   5.76457644
_cell_length_b   5.76457644
_cell_length_c   5.76457644
_cell_angle_alpha   60.00000000
_cell_angle_beta   60.00000000
_cell_angle_gamma   60.00000000
_symmetry_Int_Tables_number   1
_chemical_formula_structural   Mg3CoNi2F8
_chemical_formula_sum   'Mg3 Co1 Ni2 F8'
_cell_volume   135.45255717
_cell_formula_units_Z   1
loop_
 _symmetry_equiv_pos_site_id
 _symmetry_equiv_pos_as_xyz
  1  'x, y, z'
loop_
 _atom_site_type_symbol
 _atom_site_label
 _atom_site_symmetry_multiplicity
 _atom_site_fract_x
 _atom_site_fract_y
 _atom_site_fract_z
 _atom_site_occupancy
  Mg  Mg0  1  0.24999999  0.24999999  0.24999999  1
  Mg  Mg1  1  0.49999999  0.49999999  0.49999999  1
  Mg  Mg2  1  0.87499998  0.37499999  0.87499998  1
  Ni  Ni3  1  0.87499998  0.87499998  0.87499998  1
  Ni  Ni4  1  0.87499998  0.87499998  0.37499999  1
  Co  Co5  1  0.37499999  0.87499998  0.87499998  1
  F  F6  1  0.64438899  0.06683300  0.64438899  1
  F  F7  1  0.64438899  0.64438899  0.64438899  1
  F  F8  1  0.64438899  0.64438899  0.06683300  1
  F  F9  1  0.06683300  0.64438899  0.64438899  1
  F  F10  1  0.10561100  0.68316699  0.10561100  1
  F  F11  1  0.10561100  0.10561100  0.10561100  1
  F  F12  1  0.10561100  0.10561100  0.68316699  1
  F  F13  1  0.68316699  0.10561100  0.10561100  1
