# generated using pymatgen
data_H4S8Br
_symmetry_space_group_name_H-M   'P 1'
_cell_length_a   5.56418514
_cell_length_b   5.56418514
_cell_length_c   7.56020880
_cell_angle_alpha   68.40820312
_cell_angle_beta   68.40820312
_cell_angle_gamma   60.00001144
_symmetry_Int_Tables_number   1
_chemical_formula_structural   H4S8Br
_chemical_formula_sum   'H4 S8 Br1'
_cell_volume   183.49617068
_cell_formula_units_Z   1
loop_
 _symmetry_equiv_pos_site_id
 _symmetry_equiv_pos_as_xyz
  1  'x, y, z'
loop_
 _atom_site_type_symbol
 _atom_site_label
 _atom_site_symmetry_multiplicity
 _atom_site_fract_x
 _atom_site_fract_y
 _atom_site_fract_z
 _atom_site_occupancy
  H  H0  1  0.59666303  0.59666299  0.21001097  1
  H  H1  1  0.40333702  0.40333700  0.78998898  1
  H  H2  1  0.78663203  0.78663199  0.64010396  1
  H  H3  1  0.21336801  0.21336800  0.35989599  1
  S  S4  1  0.00000000  0.00000000  0.00000000  1
  S  S5  1  0.72374203  0.72374199  0.28703596  1
  S  S6  1  0.72374201  0.26548000  0.28703598  1
  S  S7  1  0.26548003  0.72374199  0.28703597  1
  S  S8  1  0.73452002  0.27625800  0.71296398  1
  S  S9  1  0.27625801  0.27625800  0.71296399  1
  S  S10  1  0.32789301  0.32789300  0.01632098  1
  Br  Br11  1  0.67210703  0.67210699  0.98367897  1
  S  S12  1  0.27625803  0.73451999  0.71296397  1
