# generated using pymatgen
data_Na2YTe3S2
_symmetry_space_group_name_H-M   'P 1'
_cell_length_a   6.56344891
_cell_length_b   6.56344891
_cell_length_c   8.03348160
_cell_angle_alpha   114.11101532
_cell_angle_beta   114.11100769
_cell_angle_gamma   90.00000000
_symmetry_Int_Tables_number   1
_chemical_formula_structural   Na2YTe3S2
_chemical_formula_sum   'Na2 Y1 Te3 S2'
_cell_volume   282.47842867
_cell_formula_units_Z   1
loop_
 _symmetry_equiv_pos_site_id
 _symmetry_equiv_pos_as_xyz
  1  'x, y, z'
loop_
 _atom_site_type_symbol
 _atom_site_label
 _atom_site_symmetry_multiplicity
 _atom_site_fract_x
 _atom_site_fract_y
 _atom_site_fract_z
 _atom_site_occupancy
  Na  Na0  1  0.02349100  0.02349100  0.00481900  1
  Na  Na1  1  0.26867201  0.72650901  0.49518101  1
  Y  Y2  1  0.48132801  0.48132801  0.00481901  1
  Te  Te3  1  0.72650902  0.26867201  0.49518101  1
  S  S4  1  0.37500001  0.37500001  0.25000001  1
  Te  Te5  1  0.62500001  0.12500000  0.75000001  1
  S  S6  1  0.12500001  0.62500001  0.75000002  1
  Te  Te7  1  0.87500003  0.87500002  0.25000002  1
