# generated using pymatgen
data_Te4O5F11
_symmetry_space_group_name_H-M   'P 1'
_cell_length_a   5.49500322
_cell_length_b   5.55847311
_cell_length_c   9.54624271
_cell_angle_alpha   90.00000000
_cell_angle_beta   90.00000000
_cell_angle_gamma   90.00000000
_symmetry_Int_Tables_number   1
_chemical_formula_structural   Te4O5F11
_chemical_formula_sum   'Te4 O5 F11'
_cell_volume   291.57879223
_cell_formula_units_Z   1
loop_
 _symmetry_equiv_pos_site_id
 _symmetry_equiv_pos_as_xyz
  1  'x, y, z'
loop_
 _atom_site_type_symbol
 _atom_site_label
 _atom_site_symmetry_multiplicity
 _atom_site_fract_x
 _atom_site_fract_y
 _atom_site_fract_z
 _atom_site_occupancy
  Te  Te0  1  0.14013999  0.61541399  0.11379600  1
  Te  Te1  1  0.35985999  0.38458599  0.61379602  1
  Te  Te2  1  0.64013997  0.88458598  0.88620403  1
  Te  Te3  1  0.85985997  0.11541400  0.38620401  1
  O  O4  1  0.12915299  0.20453900  0.49035301  1
  O  O5  1  0.37084698  0.79546098  0.99035303  1
  O  O6  1  0.62915297  0.29546099  0.50964702  1
  O  O7  1  0.87084696  0.70453899  0.00964700  1
  F  F8  1  0.06765700  0.92328498  0.24221001  1
  F  F9  1  0.10083500  0.43092999  0.74365902  1
  F  F10  1  0.28305999  0.68098099  0.52394002  1
  O  O11  1  0.21693999  0.31901899  0.02394000  1
  F  F12  1  0.39916498  0.56906999  0.24365901  1
  F  F13  1  0.43234298  0.07671500  0.74221002  1
  F  F14  1  0.56765698  0.57671499  0.75779002  1
  F  F15  1  0.60083498  0.06907000  0.25634101  1
  F  F16  1  0.78305997  0.81901898  0.47606001  1
  F  F17  1  0.71693997  0.18098100  0.97606003  1
  F  F18  1  0.89916496  0.93092998  0.75634102  1
  F  F19  1  0.93234296  0.42328499  0.25779001  1
