# generated using pymatgen
data_LiVO2
_symmetry_space_group_name_H-M   'P 1'
_cell_length_a   4.06747103
_cell_length_b   4.07088518
_cell_length_c   5.34104872
_cell_angle_alpha   67.60435486
_cell_angle_beta   67.62899780
_cell_angle_gamma   89.99796295
_symmetry_Int_Tables_number   1
_chemical_formula_structural   LiVO2
_chemical_formula_sum   'Li2 V2 O4'
_cell_volume   74.51887574
_cell_formula_units_Z   2
loop_
 _symmetry_equiv_pos_site_id
 _symmetry_equiv_pos_as_xyz
  1  'x, y, z'
loop_
 _atom_site_type_symbol
 _atom_site_label
 _atom_site_symmetry_multiplicity
 _atom_site_fract_x
 _atom_site_fract_y
 _atom_site_fract_z
 _atom_site_occupancy
  Li  Li0  1  0.62575110  0.62168200  0.24741193  1
  Li  Li1  1  0.37676711  0.86854999  0.75182991  1
  V  V2  1  0.87642910  0.36906800  0.75095393  1
  V  V3  1  0.12452602  0.11968800  0.25143498  1
  O  O4  1  0.11029707  0.60583900  0.27941195  1
  O  O5  1  0.89049915  0.88282899  0.72317189  1
  O  O6  1  0.63885406  0.13442800  0.22267296  1
  O  O7  1  0.36186206  0.35413500  0.78012095  1
