# generated using pymatgen
data_DyRhO3
_symmetry_space_group_name_H-M   'P 1'
_cell_length_a   5.46703386
_cell_length_b   5.78394985
_cell_length_c   7.77724981
_cell_angle_alpha   90.00000000
_cell_angle_beta   90.00000000
_cell_angle_gamma   90.00000000
_symmetry_Int_Tables_number   1
_chemical_formula_structural   DyRhO3
_chemical_formula_sum   'Dy4 Rh4 O12'
_cell_volume   245.92480289
_cell_formula_units_Z   4
loop_
 _symmetry_equiv_pos_site_id
 _symmetry_equiv_pos_as_xyz
  1  'x, y, z'
loop_
 _atom_site_type_symbol
 _atom_site_label
 _atom_site_symmetry_multiplicity
 _atom_site_fract_x
 _atom_site_fract_y
 _atom_site_fract_z
 _atom_site_occupancy
  Dy  Dy0  1  0.02468100  0.41629301  0.75000002  1
  Dy  Dy1  1  0.47531901  0.91629302  0.75000002  1
  Dy  Dy2  1  0.52468101  0.08370700  0.25000001  1
  Dy  Dy3  1  0.97531902  0.58370701  0.25000001  1
  Rh  Rh4  1  0.00000000  0.00000000  0.00000000  1
  Rh  Rh5  1  0.00000000  0.00000000  0.50000001  1
  Rh  Rh6  1  0.50000001  0.50000001  -0.00000000  1
  Rh  Rh7  1  0.50000001  0.50000001  0.50000001  1
  O  O8  1  0.13588700  0.95304202  0.25000001  1
  O  O9  1  0.18197500  0.68109602  0.56812001  1
  O  O10  1  0.18197500  0.68109602  0.93188002  1
  O  O11  1  0.31802501  0.18109600  0.56812001  1
  O  O12  1  0.31802501  0.18109600  0.93188002  1
  O  O13  1  0.36411301  0.45304201  0.25000001  1
  O  O14  1  0.63588702  0.54695801  0.75000002  1
  O  O15  1  0.68197502  0.81890402  0.06812000  1
  O  O16  1  0.68197502  0.81890402  0.43188001  1
  O  O17  1  0.81802502  0.31890401  0.06812000  1
  O  O18  1  0.81802502  0.31890401  0.43188001  1
  O  O19  1  0.86411302  0.04695800  0.75000002  1
