# generated using pymatgen
data_Cs4Sb2Se5Br9
_symmetry_space_group_name_H-M   'P 1'
_cell_length_a   6.86725092
_cell_length_b   7.71160889
_cell_length_c   13.81637192
_cell_angle_alpha   96.14517975
_cell_angle_beta   90.00000000
_cell_angle_gamma   90.00000000
_symmetry_Int_Tables_number   1
_chemical_formula_structural   Cs4Sb2Se5Br9
_chemical_formula_sum   'Cs4 Sb2 Se5 Br9'
_cell_volume   727.47689505
_cell_formula_units_Z   1
loop_
 _symmetry_equiv_pos_site_id
 _symmetry_equiv_pos_as_xyz
  1  'x, y, z'
loop_
 _atom_site_type_symbol
 _atom_site_label
 _atom_site_symmetry_multiplicity
 _atom_site_fract_x
 _atom_site_fract_y
 _atom_site_fract_z
 _atom_site_occupancy
  Cs  Cs0  1  0.61249201  0.85615201  0.13922898  1
  Cs  Cs1  1  0.11249200  0.14384800  0.36077100  1
  Cs  Cs2  1  0.38750800  0.14384800  0.86077101  1
  Cs  Cs3  1  0.88750801  0.85615201  0.63922899  1
  Se  Se4  1  0.43581901  0.62577201  0.37305199  1
  Sb  Sb5  1  0.93581901  0.37422800  0.12694799  1
  Se  Se6  1  0.56418101  0.37422800  0.62694800  1
  Sb  Sb7  1  0.06418100  0.62577201  0.87305200  1
  Br  Br8  1  0.49588101  0.35125800  0.20969700  1
  Br  Br9  1  0.99588101  0.64874201  0.29030299  1
  Se  Se10  1  0.50411901  0.64874201  0.79030300  1
  Br  Br11  1  0.00411900  0.35125800  0.70969700  1
  Se  Se12  1  0.80008301  0.54768601  0.41613299  1
  Se  Se13  1  0.30008300  0.45231400  0.08386699  1
  Br  Br14  1  0.19991700  0.45231400  0.58386700  1
  Br  Br15  1  0.69991701  0.54768601  0.91613300  1
  Br  Br16  1  0.90652901  0.11885100  0.97300801  1
  Br  Br17  1  0.40652900  0.88114901  0.52699199  1
  Br  Br18  1  0.09347100  0.88114901  0.02699198  1
  Br  Br19  1  0.59347101  0.11885100  0.47300800  1
