# generated using pymatgen
data_SrWN3
_symmetry_space_group_name_H-M   'P 1'
_cell_length_a   3.83002996
_cell_length_b   6.55367994
_cell_length_c   6.71311617
_cell_angle_alpha   103.29029083
_cell_angle_beta   90.00000000
_cell_angle_gamma   106.98998260
_symmetry_Int_Tables_number   1
_chemical_formula_structural   SrWN3
_chemical_formula_sum   'Sr2 W2 N6'
_cell_volume   156.42534500
_cell_formula_units_Z   2
loop_
 _symmetry_equiv_pos_site_id
 _symmetry_equiv_pos_as_xyz
  1  'x, y, z'
loop_
 _atom_site_type_symbol
 _atom_site_label
 _atom_site_symmetry_multiplicity
 _atom_site_fract_x
 _atom_site_fract_y
 _atom_site_fract_z
 _atom_site_occupancy
  Sr  Sr0  1  0.38223995  0.76447997  0.66584999  1
  Sr  Sr1  1  0.61775999  0.23551999  0.33415000  1
  W  W2  1  0.15308998  0.30617999  0.86841001  1
  W  W3  1  0.84690996  0.69381997  0.13158998  1
  N  N4  1  0.15437998  0.30875999  0.60139000  1
  N  N5  1  0.99880993  0.99761996  0.10417998  1
  N  N6  1  0.00119000  0.00238000  0.89582002  1
  N  N7  1  0.31934996  0.63869997  0.02220998  1
  N  N8  1  0.68064998  0.36129999  0.97779001  1
  N  N9  1  0.84561996  0.69123997  0.39860999  1
