# generated using pymatgen
data_TaRhO4
_symmetry_space_group_name_H-M   'P 1'
_cell_length_a   5.67313814
_cell_length_b   5.67313814
_cell_length_c   5.67313814
_cell_angle_alpha   106.71815491
_cell_angle_beta   106.71815491
_cell_angle_gamma   115.12989807
_symmetry_Int_Tables_number   1
_chemical_formula_structural   TaRhO4
_chemical_formula_sum   'Ta2 Rh2 O8'
_cell_volume   139.51720106
_cell_formula_units_Z   2
loop_
 _symmetry_equiv_pos_site_id
 _symmetry_equiv_pos_as_xyz
  1  'x, y, z'
loop_
 _atom_site_type_symbol
 _atom_site_label
 _atom_site_symmetry_multiplicity
 _atom_site_fract_x
 _atom_site_fract_y
 _atom_site_fract_z
 _atom_site_occupancy
  Ta  Ta0  1  0.73897895  0.23897898  0.49999994  1
  Ta  Ta1  1  0.98897888  0.98897891  -0.00000010  1
  Rh  Rh2  1  0.25130393  0.75130394  0.49999992  1
  Rh  Rh3  1  0.50130394  0.50130396  -0.00000005  1
  O  O4  1  0.56031192  0.76296293  0.79734890  1
  O  O5  1  0.04449498  0.24189598  0.80259895  1
  O  O6  1  0.99189593  0.29449497  0.30259894  1
  O  O7  1  0.51296292  0.81031193  0.29734992  1
  O  O8  1  0.99189590  0.68929694  0.69740090  1
  O  O9  1  0.51296296  0.21561398  0.70265094  1
  O  O10  1  0.43929696  0.24189598  0.19740096  1
  O  O11  1  0.96561290  0.76296193  0.20264991  1
