# generated using pymatgen
data_KAgF2
_symmetry_space_group_name_H-M   'P 1'
_cell_length_a   3.91647792
_cell_length_b   6.08945990
_cell_length_c   6.94072628
_cell_angle_alpha   116.01943207
_cell_angle_beta   106.38781738
_cell_angle_gamma   90.00000000
_symmetry_Int_Tables_number   1
_chemical_formula_structural   KAgF2
_chemical_formula_sum   'K2 Ag2 F4'
_cell_volume   141.23218763
_cell_formula_units_Z   2
loop_
 _symmetry_equiv_pos_site_id
 _symmetry_equiv_pos_as_xyz
  1  'x, y, z'
loop_
 _atom_site_type_symbol
 _atom_site_label
 _atom_site_symmetry_multiplicity
 _atom_site_fract_x
 _atom_site_fract_y
 _atom_site_fract_z
 _atom_site_occupancy
  K  K0  1  0.87980602  0.09688700  0.75961202  1
  K  K1  1  0.12019399  0.90311300  0.24038798  1
  Ag  Ag2  1  0.12019400  0.33727500  0.24038800  1
  Ag  Ag3  1  0.50000001  0.00000000  0.00000000  1
  F  F4  1  0.87980601  0.66272500  0.75961200  1
  F  F5  1  0.67365801  0.67365800  0.34731599  1
  F  F6  1  0.32634200  0.32634200  0.65268401  1
  F  F7  1  0.00000000  0.00000000  0.00000000  1
