# generated using pymatgen
data_TlGaF6
_symmetry_space_group_name_H-M   'P 1'
_cell_length_a   5.00587988
_cell_length_b   5.00587988
_cell_length_c   5.00587940
_cell_angle_alpha   97.96748352
_cell_angle_beta   97.96748352
_cell_angle_gamma   97.96746826
_symmetry_Int_Tables_number   1
_chemical_formula_structural   TlGaF6
_chemical_formula_sum   'Tl1 Ga1 F6'
_cell_volume   121.42806371
_cell_formula_units_Z   1
loop_
 _symmetry_equiv_pos_site_id
 _symmetry_equiv_pos_as_xyz
  1  'x, y, z'
loop_
 _atom_site_type_symbol
 _atom_site_label
 _atom_site_symmetry_multiplicity
 _atom_site_fract_x
 _atom_site_fract_y
 _atom_site_fract_z
 _atom_site_occupancy
  Tl  Tl0  1  0.00000000  0.00000000  0.00000000  1
  Ga  Ga1  1  0.49999997  0.49999999  0.49999998  1
  F  F2  1  0.58204198  0.22540799  0.26819198  1
  F  F3  1  0.26819197  0.58204199  0.22540798  1
  F  F4  1  0.77459196  0.73180798  0.41795797  1
  F  F5  1  0.73180797  0.41795799  0.77459198  1
  F  F6  1  0.41795796  0.77459198  0.73180798  1
  F  F7  1  0.22540799  0.26819199  0.58204200  1
