# generated using pymatgen
data_Sr2B5HO12
_symmetry_space_group_name_H-M   'P 1'
_cell_length_a   6.40882015
_cell_length_b   6.56054544
_cell_length_c   6.56054544
_cell_angle_alpha   76.88852692
_cell_angle_beta   61.56195450
_cell_angle_gamma   61.56195450
_symmetry_Int_Tables_number   1
_chemical_formula_structural   Sr2B5HO12
_chemical_formula_sum   'Sr2 B5 H1 O12'
_cell_volume   213.28694971
_cell_formula_units_Z   1
loop_
 _symmetry_equiv_pos_site_id
 _symmetry_equiv_pos_as_xyz
  1  'x, y, z'
loop_
 _atom_site_type_symbol
 _atom_site_label
 _atom_site_symmetry_multiplicity
 _atom_site_fract_x
 _atom_site_fract_y
 _atom_site_fract_z
 _atom_site_occupancy
  Sr  Sr0  1  0.91914598  0.75349402  0.83107504  1
  Sr  Sr1  1  0.08085399  0.16892500  0.24650601  1
  B  B2  1  0.25565800  0.09966800  0.75100101  1
  B  B3  1  0.74434200  0.24899901  0.90033201  1
  B  B4  1  0.49999999  0.34082101  0.65917902  1
  B  B5  1  0.50722097  0.65838802  0.80602404  1
  B  B6  1  0.49277900  0.19397601  0.34161201  1
  H  H7  1  0.28032997  0.64188102  0.29743703  1
  O  O8  1  0.71966998  0.70256302  0.35811903  1
  O  O9  1  0.58414199  0.30665401  0.40784201  1
  O  O10  1  0.41585798  0.59215802  0.69334604  1
  O  O11  1  0.45171396  0.88647202  0.82000105  1
  O  O12  1  0.54828600  0.17999901  0.11352800  1
  O  O13  1  0.73484800  0.19618001  0.70003501  1
  O  O14  1  0.26515199  0.29996501  0.80382002  1
  O  O15  1  1.00000001  0.09891400  0.90108600  1
  O  O16  1  0.67160898  0.50047501  0.90565703  1
  O  O17  1  0.32839100  0.09434300  0.49952501  1
  O  O18  1  0.10172096  0.75868902  0.38172505  1
  O  O19  1  0.89827898  0.61827502  0.24131102  1
