# generated using pymatgen
data_MgGeAs2
_symmetry_space_group_name_H-M   'P 1'
_cell_length_a   6.02101612
_cell_length_b   6.02101612
_cell_length_c   7.07991791
_cell_angle_alpha   115.16445923
_cell_angle_beta   115.16445923
_cell_angle_gamma   90.00000000
_symmetry_Int_Tables_number   1
_chemical_formula_structural   MgGeAs2
_chemical_formula_sum   'Mg2 Ge2 As4'
_cell_volume   205.07240998
_cell_formula_units_Z   2
loop_
 _symmetry_equiv_pos_site_id
 _symmetry_equiv_pos_as_xyz
  1  'x, y, z'
loop_
 _atom_site_type_symbol
 _atom_site_label
 _atom_site_symmetry_multiplicity
 _atom_site_fract_x
 _atom_site_fract_y
 _atom_site_fract_z
 _atom_site_occupancy
  Mg  Mg0  1  0.75000000  0.25000000  0.50000004  1
  Mg  Mg1  1  0.00000000  0.00000000  0.00000000  1
  Ge  Ge2  1  0.50000001  0.50000000  0.00000003  1
  Ge  Ge3  1  0.25000002  0.75000000  0.50000004  1
  As  As4  1  0.87500002  0.85158400  0.25000006  1
  As  As5  1  0.60158400  0.12500000  0.75000003  1
  As  As6  1  0.37500001  0.39841600  0.25000003  1
  As  As7  1  0.14841602  0.62500000  0.75000004  1
