# generated using pymatgen
data_K2ZrF6
_symmetry_space_group_name_H-M   'P 1'
_cell_length_a   6.66664791
_cell_length_b   6.72325468
_cell_length_c   7.08658743
_cell_angle_alpha   89.98276520
_cell_angle_beta   89.96523285
_cell_angle_gamma   60.27812958
_symmetry_Int_Tables_number   1
_chemical_formula_structural   K2ZrF6
_chemical_formula_sum   'K4 Zr2 F12'
_cell_volume   275.84501190
_cell_formula_units_Z   2
loop_
 _symmetry_equiv_pos_site_id
 _symmetry_equiv_pos_as_xyz
  1  'x, y, z'
loop_
 _atom_site_type_symbol
 _atom_site_label
 _atom_site_symmetry_multiplicity
 _atom_site_fract_x
 _atom_site_fract_y
 _atom_site_fract_z
 _atom_site_occupancy
  K  K0  1  0.32284301  0.31674000  0.50309499  1
  K  K1  1  0.36041701  0.31674000  0.99690498  1
  K  K2  1  0.67715703  0.68326001  0.49690500  1
  K  K3  1  0.63958303  0.68326001  0.00309501  1
  Zr  Zr4  1  0.04621303  0.90757401  0.75000001  1
  Zr  Zr5  1  0.95378702  0.09242600  0.24999998  1
  F  F6  1  0.13529203  0.80350301  0.04439602  1
  F  F7  1  0.06120503  0.80350301  0.45560401  1
  F  F8  1  0.86470802  0.19649700  0.95560397  1
  F  F9  1  0.93879502  0.19649700  0.54439598  1
  F  F10  1  0.00041802  0.61835800  0.77646200  1
  F  F11  1  0.38122402  0.61835800  0.72353800  1
  F  F12  1  0.72529804  0.96963901  0.21357201  1
  F  F13  1  0.30506303  0.96963901  0.28642802  1
  F  F14  1  0.27470200  0.03036100  0.78642798  1
  F  F15  1  0.69493701  0.03036100  0.71357197  1
  F  F16  1  0.61877602  0.38164200  0.27646199  1
  F  F17  1  0.99958202  0.38164200  0.22353799  1
