# generated using pymatgen
data_BaGdCl5
_symmetry_space_group_name_H-M   'P 1'
_cell_length_a   5.58017015
_cell_length_b   6.88046551
_cell_length_c   10.07486534
_cell_angle_alpha   89.12013245
_cell_angle_beta   73.92262268
_cell_angle_gamma   86.82133484
_symmetry_Int_Tables_number   1
_chemical_formula_structural   BaGdCl5
_chemical_formula_sum   'Ba2 Gd2 Cl10'
_cell_volume   371.11529925
_cell_formula_units_Z   2
loop_
 _symmetry_equiv_pos_site_id
 _symmetry_equiv_pos_as_xyz
  1  'x, y, z'
loop_
 _atom_site_type_symbol
 _atom_site_label
 _atom_site_symmetry_multiplicity
 _atom_site_fract_x
 _atom_site_fract_y
 _atom_site_fract_z
 _atom_site_occupancy
  Ba  Ba0  1  0.67168201  0.75000002  0.65663596  1
  Ba  Ba1  1  0.32831800  0.25000001  0.34336398  1
  Gd  Gd2  1  0.92376801  0.75000002  0.15246396  1
  Gd  Gd3  1  0.07623200  0.25000001  0.84753598  1
  Cl  Cl4  1  0.79049800  0.59538902  0.93678596  1
  Cl  Cl5  1  0.72728399  0.09538900  0.06321397  1
  Cl  Cl6  1  0.17971002  0.99985803  0.62578598  1
  Cl  Cl7  1  0.37328301  0.75000002  0.25343398  1
  Cl  Cl8  1  0.19450401  0.50014202  0.62578598  1
  Cl  Cl9  1  0.80549600  0.49985802  0.37421396  1
  Cl  Cl10  1  0.62671700  0.25000001  0.74656597  1
  Cl  Cl11  1  0.82028999  0.00014200  0.37421397  1
  Cl  Cl12  1  0.27271602  0.90461103  0.93678597  1
  Cl  Cl13  1  0.20950201  0.40461101  0.06321399  1
