# generated using pymatgen
data_LiTi3N4
_symmetry_space_group_name_H-M   'P 1'
_cell_length_a   5.83178806
_cell_length_b   5.83178806
_cell_length_c   5.83178806
_cell_angle_alpha   90.00000000
_cell_angle_beta   90.00000000
_cell_angle_gamma   90.00000000
_symmetry_Int_Tables_number   1
_chemical_formula_structural   LiTi3N4
_chemical_formula_sum   'Li2 Ti6 N8'
_cell_volume   198.33766581
_cell_formula_units_Z   2
loop_
 _symmetry_equiv_pos_site_id
 _symmetry_equiv_pos_as_xyz
  1  'x, y, z'
loop_
 _atom_site_type_symbol
 _atom_site_label
 _atom_site_symmetry_multiplicity
 _atom_site_fract_x
 _atom_site_fract_y
 _atom_site_fract_z
 _atom_site_occupancy
  Li  Li0  1  0.49999999  0.49999999  0.49999999  1
  Li  Li1  1  0.00000000  0.00000000  0.00000000  1
  Ti  Ti2  1  0.25180200  0.00000000  0.49999999  1
  Ti  Ti3  1  0.74819799  0.00000000  0.49999999  1
  Ti  Ti4  1  0.49999999  0.25180200  -0.00000000  1
  Ti  Ti5  1  0.49999999  0.74819799  -0.00000000  1
  Ti  Ti6  1  0.00000000  0.49999999  0.25180200  1
  Ti  Ti7  1  0.00000000  0.49999999  0.74819799  1
  N  N8  1  0.24187700  0.24187700  0.24187700  1
  N  N9  1  0.75812299  0.75812299  0.75812299  1
  N  N10  1  0.75812299  0.75812299  0.24187700  1
  N  N11  1  0.75812299  0.24187700  0.75812299  1
  N  N12  1  0.24187700  0.24187700  0.75812299  1
  N  N13  1  0.24187700  0.75812299  0.24187700  1
  N  N14  1  0.24187700  0.75812299  0.75812299  1
  N  N15  1  0.75812299  0.24187700  0.24187700  1
