# generated using pymatgen
data_Ca2NiPtO6
_symmetry_space_group_name_H-M   'P 1'
_cell_length_a   5.51452112
_cell_length_b   5.66410303
_cell_length_c   7.84991312
_cell_angle_alpha   90.00000000
_cell_angle_beta   90.13005066
_cell_angle_gamma   90.00000000
_symmetry_Int_Tables_number   1
_chemical_formula_structural   Ca2NiPtO6
_chemical_formula_sum   'Ca4 Ni2 Pt2 O12'
_cell_volume   245.18995876
_cell_formula_units_Z   2
loop_
 _symmetry_equiv_pos_site_id
 _symmetry_equiv_pos_as_xyz
  1  'x, y, z'
loop_
 _atom_site_type_symbol
 _atom_site_label
 _atom_site_symmetry_multiplicity
 _atom_site_fract_x
 _atom_site_fract_y
 _atom_site_fract_z
 _atom_site_occupancy
  Ca  Ca0  1  0.98746198  0.94322499  0.25063499  1
  Ca  Ca1  1  0.48746199  0.55677500  0.75063500  1
  Ca  Ca2  1  0.01253800  0.05677500  0.74936501  1
  Ca  Ca3  1  0.51253799  0.44322500  0.24936499  1
  Ni  Ni4  1  0.00000000  0.50000000  0.50000001  1
  Ni  Ni5  1  0.49999999  0.00000000  -0.00000001  1
  Pt  Pt6  1  0.49999999  0.00000000  0.50000000  1
  Pt  Pt7  1  0.00000000  0.50000000  -0.00000000  1
  O  O8  1  0.20576800  0.80252800  0.95351401  1
  O  O9  1  0.70576798  0.69747200  0.45351399  1
  O  O10  1  0.79423198  0.19747200  0.04648599  1
  O  O11  1  0.08982200  0.51883000  0.25720500  1
  O  O12  1  0.19376600  0.79074700  0.54705100  1
  O  O13  1  0.80623398  0.20925300  0.45294899  1
  O  O14  1  0.58982199  0.98116999  0.75720500  1
  O  O15  1  0.91017798  0.48117000  0.74279499  1
  O  O16  1  0.29423199  0.30252800  0.54648600  1
  O  O17  1  0.41017799  0.01883000  0.24279500  1
  O  O18  1  0.69376598  0.70925300  0.04705099  1
  O  O19  1  0.30623399  0.29074700  0.95294901  1
