# generated using pymatgen
data_MgCO3
_symmetry_space_group_name_H-M   'P 1'
_cell_length_a   4.86602974
_cell_length_b   4.86602974
_cell_length_c   6.12619877
_cell_angle_alpha   66.59992218
_cell_angle_beta   66.59992218
_cell_angle_gamma   60.00000381
_symmetry_Int_Tables_number   1
_chemical_formula_structural   MgCO3
_chemical_formula_sum   'Mg2 C2 O6'
_cell_volume   111.63526895
_cell_formula_units_Z   2
loop_
 _symmetry_equiv_pos_site_id
 _symmetry_equiv_pos_as_xyz
  1  'x, y, z'
loop_
 _atom_site_type_symbol
 _atom_site_label
 _atom_site_symmetry_multiplicity
 _atom_site_fract_x
 _atom_site_fract_y
 _atom_site_fract_z
 _atom_site_occupancy
  Mg  Mg0  1  0.00000000  0.00000000  0.00000000  1
  Mg  Mg1  1  0.50000004  0.50000000  0.49999998  1
  C  C2  1  0.24254102  0.24254100  0.27237699  1
  C  C3  1  0.75745905  0.75745901  0.72762297  1
  O  O4  1  0.96409005  0.49474700  0.26759598  1
  O  O5  1  0.27356705  0.96409001  0.26759598  1
  O  O6  1  0.49474703  0.27356700  0.26759599  1
  O  O7  1  0.03591002  0.50525300  0.73240397  1
  O  O8  1  0.72643302  0.03591000  0.73240398  1
  O  O9  1  0.50525305  0.72643301  0.73240397  1
