# generated using pymatgen
data_Na2Sr2TiH9C
_symmetry_space_group_name_H-M   'P 1'
_cell_length_a   3.98997903
_cell_length_b   4.49244118
_cell_length_c   11.86100006
_cell_angle_alpha   90.00000000
_cell_angle_beta   90.00000000
_cell_angle_gamma   90.00000000
_symmetry_Int_Tables_number   1
_chemical_formula_structural   Na2Sr2TiH9C
_chemical_formula_sum   'Na2 Sr2 Ti1 H9 C1'
_cell_volume   212.60541441
_cell_formula_units_Z   1
loop_
 _symmetry_equiv_pos_site_id
 _symmetry_equiv_pos_as_xyz
  1  'x, y, z'
loop_
 _atom_site_type_symbol
 _atom_site_label
 _atom_site_symmetry_multiplicity
 _atom_site_fract_x
 _atom_site_fract_y
 _atom_site_fract_z
 _atom_site_occupancy
  Sr  Sr0  1  0.00000000  0.53636698  -0.00000000  1
  Na  Na1  1  0.00000000  0.52992198  0.33794300  1
  Sr  Sr2  1  0.00000000  0.52992198  0.66205700  1
  Na  Na3  1  0.50000000  0.97794196  0.82484700  1
  Ti  Ti4  1  0.50000000  0.97794196  0.17515300  1
  C  C5  1  0.50000000  0.97587796  0.50000000  1
  H  H6  1  0.50000000  0.64673297  0.00000000  1
  H  H7  1  0.50000000  0.62440498  0.33773700  1
  H  H8  1  0.50000000  0.62440498  0.66226300  1
  H  H9  1  0.00000000  0.63081398  0.82292800  1
  H  H10  1  0.00000000  0.63081398  0.17707200  1
  H  H11  1  0.00000000  0.63436997  0.50000000  1
  H  H12  1  0.00000000  0.09823600  -0.00000000  1
  H  H13  1  0.00000000  0.13902399  0.33707800  1
  H  H14  1  0.00000000  0.13902399  0.66292200  1
