# generated using pymatgen
data_Na2BeH4
_symmetry_space_group_name_H-M   'P 1'
_cell_length_a   4.99306917
_cell_length_b   5.07872820
_cell_length_c   6.85350132
_cell_angle_alpha   98.52291107
_cell_angle_beta   90.00000000
_cell_angle_gamma   90.00000000
_symmetry_Int_Tables_number   1
_chemical_formula_structural   Na2BeH4
_chemical_formula_sum   'Na4 Be2 H8'
_cell_volume   171.87484614
_cell_formula_units_Z   2
loop_
 _symmetry_equiv_pos_site_id
 _symmetry_equiv_pos_as_xyz
  1  'x, y, z'
loop_
 _atom_site_type_symbol
 _atom_site_label
 _atom_site_symmetry_multiplicity
 _atom_site_fract_x
 _atom_site_fract_y
 _atom_site_fract_z
 _atom_site_occupancy
  Na  Na0  1  0.74999997  0.73046298  0.02508203  1
  Na  Na1  1  0.24999999  0.26953699  0.97491802  1
  Na  Na2  1  0.24999999  0.26486999  0.47527301  1
  Na  Na3  1  0.74999997  0.73512998  0.52472703  1
  Be  Be4  1  0.74999997  0.27728199  0.22192801  1
  Be  Be5  1  0.24999999  0.72271798  0.77807203  1
  H  H6  1  0.24999999  0.93825497  0.66237804  1
  H  H7  1  0.24999999  0.81448997  0.98666004  1
  H  H8  1  0.47922698  0.55353498  0.73430703  1
  H  H9  1  0.74999997  0.06174500  0.33762200  1
  H  H10  1  0.02077300  0.55353498  0.73430703  1
  H  H11  1  0.97922697  0.44646499  0.26569302  1
  H  H12  1  0.52077298  0.44646499  0.26569302  1
  H  H13  1  0.74999997  0.18550999  0.01334001  1
