# generated using pymatgen
data_HfZrTl4(PbSe4)2
_symmetry_space_group_name_H-M   'P 1'
_cell_length_a   7.11189413
_cell_length_b   8.59493160
_cell_length_c   9.14175224
_cell_angle_alpha   61.95972061
_cell_angle_beta   73.26785278
_cell_angle_gamma   90.00000000
_symmetry_Int_Tables_number   1
_chemical_formula_structural   HfZrTl4(PbSe4)2
_chemical_formula_sum   'Hf1 Zr1 Tl4 Pb2 Se8'
_cell_volume   466.23165549
_cell_formula_units_Z   1
loop_
 _symmetry_equiv_pos_site_id
 _symmetry_equiv_pos_as_xyz
  1  'x, y, z'
loop_
 _atom_site_type_symbol
 _atom_site_label
 _atom_site_symmetry_multiplicity
 _atom_site_fract_x
 _atom_site_fract_y
 _atom_site_fract_z
 _atom_site_occupancy
  Zr  Zr0  1  0.74999999  0.12383101  -0.00000000  1
  Hf  Hf1  1  0.25000000  0.87616905  -0.00000001  1
  Tl  Tl2  1  0.72936599  0.62204403  0.50352399  1
  Tl  Tl3  1  0.77063399  0.12556801  0.49647600  1
  Tl  Tl4  1  0.27063400  0.37795602  0.49647599  1
  Tl  Tl5  1  0.22936600  0.87443205  0.50352399  1
  Pb  Pb6  1  0.74999999  0.62329403  0.99999999  1
  Pb  Pb7  1  0.25000000  0.37670602  -0.00000001  1
  Se  Se8  1  0.50387299  0.19892201  0.80540399  1
  Se  Se9  1  0.99612698  0.00432600  0.19459600  1
  Se  Se10  1  0.49612700  0.80107804  0.19459599  1
  Se  Se11  1  0.00387301  0.99567405  0.80540398  1
  Se  Se12  1  0.96448699  0.44803702  0.78511599  1
  Se  Se13  1  0.53551299  0.23315301  0.21488400  1
  Se  Se14  1  0.03551300  0.55196303  0.21488399  1
  Se  Se15  1  0.46448700  0.76684704  0.78511599  1
