# generated using pymatgen
data_Ba2MoO3F4
_symmetry_space_group_name_H-M   'P 1'
_cell_length_a   7.30957985
_cell_length_b   7.53776264
_cell_length_c   7.53776264
_cell_angle_alpha   78.88613892
_cell_angle_beta   63.06860733
_cell_angle_gamma   63.06860733
_symmetry_Int_Tables_number   1
_chemical_formula_structural   Ba2MoO3F4
_chemical_formula_sum   'Ba4 Mo2 O6 F8'
_cell_volume   330.07723478
_cell_formula_units_Z   2
loop_
 _symmetry_equiv_pos_site_id
 _symmetry_equiv_pos_as_xyz
  1  'x, y, z'
loop_
 _atom_site_type_symbol
 _atom_site_label
 _atom_site_symmetry_multiplicity
 _atom_site_fract_x
 _atom_site_fract_y
 _atom_site_fract_z
 _atom_site_occupancy
  Ba  Ba0  1  0.17888199  0.55873800  0.32335599  1
  Ba  Ba1  1  0.67888200  0.32335600  0.55873798  1
  Ba  Ba2  1  0.00642199  0.32317200  0.97190798  1
  Ba  Ba3  1  0.50642199  0.97190799  0.32317198  1
  Mo  Mo4  1  0.12180199  0.79447799  0.85432598  1
  Mo  Mo5  1  0.62180199  0.85432599  0.79447797  1
  O  O6  1  0.99965699  0.90836599  0.08914097  1
  O  O7  1  0.49965700  0.08914100  0.90836598  1
  O  O8  1  0.28178599  0.54437300  0.90360198  1
  O  O9  1  0.78178599  0.90360199  0.54437297  1
  O  O10  1  0.38104199  0.87327199  0.74834897  1
  O  O11  1  0.88104200  0.74834899  0.87327196  1
  F  F12  1  0.30096500  0.29434100  0.59259598  1
  F  F13  1  0.80096500  0.59259600  0.29434097  1
  F  F14  1  0.78155700  0.54236600  0.72003497  1
  F  F15  1  0.28155699  0.72003499  0.54236598  1
  F  F16  1  0.47817199  0.74098399  0.07578298  1
  F  F17  1  0.97817201  0.07578300  0.74098397  1
  F  F18  1  0.12321500  0.22161900  0.29779499  1
  F  F19  1  0.62321500  0.29779500  0.22161898  1
