# generated using pymatgen
data_Al2SiPdS8
_symmetry_space_group_name_H-M   'P 1'
_cell_length_a   5.40381098
_cell_length_b   5.40381098
_cell_length_c   5.40381098
_cell_angle_alpha   90.00000000
_cell_angle_beta   90.00000000
_cell_angle_gamma   90.00000000
_symmetry_Int_Tables_number   1
_chemical_formula_structural   Al2SiPdS8
_chemical_formula_sum   'Al2 Si1 Pd1 S8'
_cell_volume   157.79761969
_cell_formula_units_Z   1
loop_
 _symmetry_equiv_pos_site_id
 _symmetry_equiv_pos_as_xyz
  1  'x, y, z'
loop_
 _atom_site_type_symbol
 _atom_site_label
 _atom_site_symmetry_multiplicity
 _atom_site_fract_x
 _atom_site_fract_y
 _atom_site_fract_z
 _atom_site_occupancy
  Si  Si0  1  0.00000000  0.50000000  0.50000000  1
  Al  Al1  1  0.50000000  0.50000000  0.00000000  1
  Al  Al2  1  0.50000000  0.00000000  0.50000000  1
  Pd  Pd3  1  0.00000000  0.00000000  0.00000000  1
  S  S4  1  0.38288800  0.11711200  0.88288800  1
  S  S5  1  0.11711200  0.88288800  0.38288800  1
  S  S6  1  0.88288800  0.38288800  0.11711200  1
  S  S7  1  0.61711200  0.61711200  0.61711200  1
  S  S8  1  0.38288800  0.38288800  0.38288800  1
  S  S9  1  0.11711200  0.61711200  0.88288800  1
  S  S10  1  0.88288800  0.11711200  0.61711200  1
  S  S11  1  0.61711200  0.88288800  0.11711200  1
