# generated using pymatgen
data_Li2MnF4
_symmetry_space_group_name_H-M   'P 1'
_cell_length_a   5.02608442
_cell_length_b   6.08296013
_cell_length_c   6.68338776
_cell_angle_alpha   62.92859268
_cell_angle_beta   77.03025055
_cell_angle_gamma   90.00152588
_symmetry_Int_Tables_number   1
_chemical_formula_structural   Li2MnF4
_chemical_formula_sum   'Li4 Mn2 F8'
_cell_volume   176.07246977
_cell_formula_units_Z   2
loop_
 _symmetry_equiv_pos_site_id
 _symmetry_equiv_pos_as_xyz
  1  'x, y, z'
loop_
 _atom_site_type_symbol
 _atom_site_label
 _atom_site_symmetry_multiplicity
 _atom_site_fract_x
 _atom_site_fract_y
 _atom_site_fract_z
 _atom_site_occupancy
  Li  Li0  1  0.74999997  0.30101600  0.99999703  1
  Li  Li1  1  0.25000001  0.69898500  0.00000199  1
  Li  Li2  1  0.23793299  0.12074700  0.49335101  1
  Li  Li3  1  0.26210201  0.61409000  0.50666400  1
  Mn  Mn4  1  0.76206399  0.87925300  0.50664801  1
  Mn  Mn5  1  0.73789998  0.38590900  0.49333702  1
  F  F6  1  0.02665903  0.77325400  0.69276298  1
  F  F7  1  0.47336599  0.46602800  0.30723001  1
  F  F8  1  0.97334796  0.22674600  0.30723703  1
  F  F9  1  0.52662799  0.53397100  0.69277001  1
  F  F10  1  0.47456101  0.95562000  0.32899799  1
  F  F11  1  0.02542101  0.28462200  0.67100200  1
  F  F12  1  0.52543297  0.04438100  0.67100203  1
  F  F13  1  0.97458497  0.71537800  0.32899802  1
