# generated using pymatgen
data_Te(HO2)2
_symmetry_space_group_name_H-M   'P 1'
_cell_length_a   4.89420319
_cell_length_b   5.38621902
_cell_length_c   5.88475704
_cell_angle_alpha   116.94730377
_cell_angle_beta   90.00000000
_cell_angle_gamma   90.00000000
_symmetry_Int_Tables_number   1
_chemical_formula_structural   Te(HO2)2
_chemical_formula_sum   'Te2 H4 O8'
_cell_volume   138.28615933
_cell_formula_units_Z   2
loop_
 _symmetry_equiv_pos_site_id
 _symmetry_equiv_pos_as_xyz
  1  'x, y, z'
loop_
 _atom_site_type_symbol
 _atom_site_label
 _atom_site_symmetry_multiplicity
 _atom_site_fract_x
 _atom_site_fract_y
 _atom_site_fract_z
 _atom_site_occupancy
  Te  Te0  1  0.49999998  0.50000001  0.00000002  1
  Te  Te1  1  0.00000000  0.00000000  0.00000000  1
  H  H2  1  0.20476199  0.71860901  0.39317804  1
  H  H3  1  0.70476197  0.78139101  0.60682204  1
  H  H4  1  0.79523797  0.28139101  0.60682202  1
  H  H5  1  0.29523799  0.21860900  0.39317801  1
  O  O6  1  0.38967899  0.63275101  0.35326103  1
  O  O7  1  0.88967897  0.86724902  0.64673904  1
  O  O8  1  0.61032098  0.36724901  0.64673902  1
  O  O9  1  0.11032100  0.13275100  0.35326101  1
  O  O10  1  0.17833599  0.63708401  0.89385503  1
  O  O11  1  0.67833597  0.86291602  0.10614504  1
  O  O12  1  0.82166397  0.36291601  0.10614502  1
  O  O13  1  0.32166399  0.13708400  0.89385501  1
