# generated using pymatgen
data_NbTlTeO6
_symmetry_space_group_name_H-M   'P 1'
_cell_length_a   7.32751179
_cell_length_b   7.38631725
_cell_length_c   7.38631725
_cell_angle_alpha   61.38498688
_cell_angle_beta   60.26301193
_cell_angle_gamma   60.26301193
_symmetry_Int_Tables_number   1
_chemical_formula_structural   NbTlTeO6
_chemical_formula_sum   'Nb2 Tl2 Te2 O12'
_cell_volume   286.67496499
_cell_formula_units_Z   2
loop_
 _symmetry_equiv_pos_site_id
 _symmetry_equiv_pos_as_xyz
  1  'x, y, z'
loop_
 _atom_site_type_symbol
 _atom_site_label
 _atom_site_symmetry_multiplicity
 _atom_site_fract_x
 _atom_site_fract_y
 _atom_site_fract_z
 _atom_site_occupancy
  Nb  Nb0  1  0.51015302  0.46984902  0.00984498  1
  Nb  Nb1  1  0.48984801  0.99015504  0.53014998  1
  Tl  Tl2  1  0.10580500  0.07728900  0.21110100  1
  Tl  Tl3  1  0.89419503  0.78889903  0.92271098  1
  Te  Te4  1  0.50000002  0.50304002  0.49695999  1
  Te  Te5  1  -0.00000001  0.50304002  0.49696000  1
  O  O6  1  0.82277603  0.43287102  0.42157598  1
  O  O7  1  0.43296301  0.81521303  0.81886099  1
  O  O8  1  0.43100701  0.44174602  0.80374100  1
  O  O9  1  0.82268003  0.81084103  0.43480497  1
  O  O10  1  0.82350603  0.44174602  0.80374099  1
  O  O11  1  0.43167401  0.81084103  0.43480498  1
  O  O12  1  0.17722300  0.57842502  0.56712900  1
  O  O13  1  0.56703802  0.18113901  0.18478598  1
  O  O14  1  0.56832602  0.56519502  0.18915898  1
  O  O15  1  0.17649401  0.19625901  0.55825400  1
  O  O16  1  0.17732000  0.56519502  0.18915899  1
  O  O17  1  0.56899302  0.19625901  0.55825399  1
