# generated using pymatgen
data_Na4(GeTe3)3
_symmetry_space_group_name_H-M   'P 1'
_cell_length_a   6.15249109
_cell_length_b   6.62428713
_cell_length_c   10.88529968
_cell_angle_alpha   95.62350464
_cell_angle_beta   90.00000000
_cell_angle_gamma   90.00000000
_symmetry_Int_Tables_number   1
_chemical_formula_structural   Na4(GeTe3)3
_chemical_formula_sum   'Na4 Ge3 Te9'
_cell_volume   441.50471984
_cell_formula_units_Z   1
loop_
 _symmetry_equiv_pos_site_id
 _symmetry_equiv_pos_as_xyz
  1  'x, y, z'
loop_
 _atom_site_type_symbol
 _atom_site_label
 _atom_site_symmetry_multiplicity
 _atom_site_fract_x
 _atom_site_fract_y
 _atom_site_fract_z
 _atom_site_occupancy
  Na  Na0  1  0.39080499  0.10287300  0.33094401  1
  Na  Na1  1  0.89080499  0.39712699  0.16905601  1
  Na  Na2  1  0.60919499  0.89712698  0.66905602  1
  Na  Na3  1  0.10919500  0.60287299  0.83094402  1
  Ge  Ge4  1  0.66357699  0.80393499  0.03239901  1
  Ge  Ge5  1  0.16357700  0.69606499  0.46760102  1
  Ge  Ge6  1  0.33642299  0.19606500  0.96760102  1
  Te  Te7  1  0.83642299  0.30393499  0.53239901  1
  Te  Te8  1  0.89401199  0.97595398  0.29169802  1
  Te  Te9  1  0.39401199  0.52404599  0.20830201  1
  Te  Te10  1  0.10598800  0.02404600  0.70830201  1
  Te  Te11  1  0.60598799  0.47595399  0.79169802  1
  Te  Te12  1  0.15963800  0.80962499  0.11088101  1
  Te  Te13  1  0.65963799  0.69037499  0.38911901  1
  Te  Te14  1  0.84036199  0.19037500  0.88911901  1
  Te  Te15  1  0.34036199  0.30962499  0.61088101  1
