# generated using pymatgen
data_Cs3K2SF5
_symmetry_space_group_name_H-M   'P 1'
_cell_length_a   6.93488407
_cell_length_b   7.20381212
_cell_length_c   7.20381260
_cell_angle_alpha   60.00000381
_cell_angle_beta   90.00000000
_cell_angle_gamma   90.00000000
_symmetry_Int_Tables_number   1
_chemical_formula_structural   Cs3K2SF5
_chemical_formula_sum   'Cs3 K2 S1 F5'
_cell_volume   311.66973960
_cell_formula_units_Z   1
loop_
 _symmetry_equiv_pos_site_id
 _symmetry_equiv_pos_as_xyz
  1  'x, y, z'
loop_
 _atom_site_type_symbol
 _atom_site_label
 _atom_site_symmetry_multiplicity
 _atom_site_fract_x
 _atom_site_fract_y
 _atom_site_fract_z
 _atom_site_occupancy
  K  K0  1  0.77677199  0.19845900  0.19845801  1
  Cs  Cs1  1  0.77677199  0.60308299  0.19845801  1
  Cs  Cs2  1  0.77677199  0.19845900  0.60308201  1
  Cs  Cs3  1  0.52726399  0.33333333  0.33333334  1
  K  K4  1  0.02379200  0.50092099  0.50092001  1
  F  F5  1  0.02379200  0.99815898  0.50092002  1
  F  F6  1  0.97916999  0.00000000  -0.00000000  1
  S  S7  1  0.56899099  0.83194898  0.83195002  1
  F  F8  1  0.56899099  0.83194898  0.33610202  1
  F  F9  1  0.56899099  0.33610099  0.83195002  1
  F  F10  1  0.02379200  0.50092099  0.99815802  1
