# generated using pymatgen
data_Tl3PbS3
_symmetry_space_group_name_H-M   'P 1'
_cell_length_a   7.19098186
_cell_length_b   8.30940628
_cell_length_c   8.32711887
_cell_angle_alpha   60.07034302
_cell_angle_beta   76.16573334
_cell_angle_gamma   90.00000000
_symmetry_Int_Tables_number   1
_chemical_formula_structural   Tl3PbS3
_chemical_formula_sum   'Tl6 Pb2 S6'
_cell_volume   414.47399477
_cell_formula_units_Z   2
loop_
 _symmetry_equiv_pos_site_id
 _symmetry_equiv_pos_as_xyz
  1  'x, y, z'
loop_
 _atom_site_type_symbol
 _atom_site_label
 _atom_site_symmetry_multiplicity
 _atom_site_fract_x
 _atom_site_fract_y
 _atom_site_fract_z
 _atom_site_occupancy
  Tl  Tl0  1  0.47651202  0.99174696  0.24488401  1
  Tl  Tl1  1  0.02348801  0.23663099  0.75511604  1
  Tl  Tl2  1  0.52348800  0.00825300  0.75511601  1
  Tl  Tl3  1  0.97651201  0.76336897  0.24488398  1
  Tl  Tl4  1  0.53974601  0.50228298  0.23902400  1
  Tl  Tl5  1  0.96025401  0.74130697  0.76097601  1
  Pb  Pb6  1  0.46025401  0.49771698  0.76097603  1
  Pb  Pb7  1  0.03974601  0.25869299  0.23902402  1
  S  S8  1  0.31117000  0.19080099  0.45354701  1
  S  S9  1  0.18883002  0.64434797  0.54645303  1
  S  S10  1  0.68883002  0.80919896  0.54645301  1
  S  S11  1  0.81117000  0.35565198  0.45354699  1
  S  S12  1  0.25000001  0.58925097  1.00000005  1
  S  S13  1  0.75000000  0.41074898  1.00000002  1
