# generated using pymatgen
data_PrGdMnSClO3
_symmetry_space_group_name_H-M   'P 1'
_cell_length_a   3.98889709
_cell_length_b   3.98889709
_cell_length_c   9.33318520
_cell_angle_alpha   90.00000000
_cell_angle_beta   90.00000000
_cell_angle_gamma   90.00000000
_symmetry_Int_Tables_number   1
_chemical_formula_structural   PrGdMnSClO3
_chemical_formula_sum   'Pr1 Gd1 Mn1 S1 Cl1 O3'
_cell_volume   148.50310920
_cell_formula_units_Z   1
loop_
 _symmetry_equiv_pos_site_id
 _symmetry_equiv_pos_as_xyz
  1  'x, y, z'
loop_
 _atom_site_type_symbol
 _atom_site_label
 _atom_site_symmetry_multiplicity
 _atom_site_fract_x
 _atom_site_fract_y
 _atom_site_fract_z
 _atom_site_occupancy
  Pr  Pr0  1  0.00000000  0.00000000  0.00000000  1
  Gd  Gd1  1  0.49999999  0.49999999  0.27837699  1
  Mn  Mn2  1  0.49999999  0.49999999  0.72162298  1
  S  S3  1  0.00000000  0.00000000  0.49999999  1
  O  O4  1  0.00000000  0.49999999  0.16165600  1
  Cl  Cl5  1  0.00000000  0.49999999  0.83834398  1
  O  O6  1  0.49999999  0.00000000  0.16165600  1
  O  O7  1  0.49999999  0.00000000  0.83834398  1
