# generated using pymatgen
data_LiFeOF4
_symmetry_space_group_name_H-M   'P 1'
_cell_length_a   5.52094412
_cell_length_b   5.52094412
_cell_length_c   7.73243475
_cell_angle_alpha   69.46000671
_cell_angle_beta   69.46000671
_cell_angle_gamma   72.85107422
_symmetry_Int_Tables_number   1
_chemical_formula_structural   LiFeOF4
_chemical_formula_sum   'Li2 Fe2 O2 F8'
_cell_volume   202.67346946
_cell_formula_units_Z   2
loop_
 _symmetry_equiv_pos_site_id
 _symmetry_equiv_pos_as_xyz
  1  'x, y, z'
loop_
 _atom_site_type_symbol
 _atom_site_label
 _atom_site_symmetry_multiplicity
 _atom_site_fract_x
 _atom_site_fract_y
 _atom_site_fract_z
 _atom_site_occupancy
  Li  Li0  1  0.51630101  0.48369902  0.24999995  1
  Li  Li1  1  0.48369901  0.51630103  0.74999995  1
  Fe  Fe2  1  0.00000000  0.00000000  0.00000000  1
  Fe  Fe3  1  0.00000000  0.00000000  0.50000000  1
  O  O4  1  0.13915199  0.86084804  0.74999995  1
  F  F5  1  0.86084804  0.13915201  0.24999995  1
  O  O6  1  0.71052202  0.77172604  0.63474893  1
  F  F7  1  0.22827400  0.28947801  0.86525098  1
  F  F8  1  0.67870002  0.30212502  0.94742995  1
  F  F9  1  0.69787502  0.32130002  0.55256995  1
  F  F10  1  0.32130000  0.69787504  0.05256995  1
  F  F11  1  0.30212500  0.67870003  0.44742996  1
  F  F12  1  0.77172602  0.71052204  0.13474893  1
  F  F13  1  0.28947801  0.22827401  0.36525098  1
