# generated using pymatgen
data_YCdSe5
_symmetry_space_group_name_H-M   'P 1'
_cell_length_a   4.30626392
_cell_length_b   4.30771303
_cell_length_c   12.82165337
_cell_angle_alpha   90.00000000
_cell_angle_beta   90.00000000
_cell_angle_gamma   90.00000000
_symmetry_Int_Tables_number   1
_chemical_formula_structural   YCdSe5
_chemical_formula_sum   'Y2 Cd2 Se10'
_cell_volume   237.84358322
_cell_formula_units_Z   2
loop_
 _symmetry_equiv_pos_site_id
 _symmetry_equiv_pos_as_xyz
  1  'x, y, z'
loop_
 _atom_site_type_symbol
 _atom_site_label
 _atom_site_symmetry_multiplicity
 _atom_site_fract_x
 _atom_site_fract_y
 _atom_site_fract_z
 _atom_site_occupancy
  Y  Y0  1  0.00000000  0.48653500  0.24999999  1
  Cd  Cd1  1  0.00000000  0.51346500  0.74999998  1
  Y  Y2  1  0.00000000  0.99059799  0.10651300  1
  Cd  Cd3  1  0.00000000  0.00940200  0.60651298  1
  Se  Se4  1  0.00000000  0.00940200  0.89348697  1
  Se  Se5  1  0.00000000  0.99059799  0.39348699  1
  Se  Se6  1  0.50000001  0.50997000  0.89359897  1
  Se  Se7  1  0.50000001  0.49003000  0.10640100  1
  Se  Se8  1  0.50000001  0.50997000  0.60640098  1
  Se  Se9  1  0.50000001  0.49003000  0.39359899  1
  Se  Se10  1  0.50000001  0.99029799  0.24999999  1
  Se  Se11  1  0.50000001  0.00970200  0.74999998  1
  Se  Se12  1  0.00000000  0.50000000  -0.00000000  1
  Se  Se13  1  0.00000000  0.50000000  0.49999999  1
