# generated using pymatgen
data_NaTiWIO8
_symmetry_space_group_name_H-M   'P 1'
_cell_length_a   5.26465988
_cell_length_b   5.26465988
_cell_length_c   7.04286385
_cell_angle_alpha   111.94760132
_cell_angle_beta   111.94760132
_cell_angle_gamma   90.00000000
_symmetry_Int_Tables_number   1
_chemical_formula_structural   NaTiWIO8
_chemical_formula_sum   'Na1 Ti1 W1 I1 O8'
_cell_volume   165.70660613
_cell_formula_units_Z   1
loop_
 _symmetry_equiv_pos_site_id
 _symmetry_equiv_pos_as_xyz
  1  'x, y, z'
loop_
 _atom_site_type_symbol
 _atom_site_label
 _atom_site_symmetry_multiplicity
 _atom_site_fract_x
 _atom_site_fract_y
 _atom_site_fract_z
 _atom_site_occupancy
  Na  Na0  1  0.50000004  0.50000002  0.00000004  1
  W  W1  1  0.25000004  0.75000003  0.50000005  1
  Ti  Ti2  1  0.00000000  0.00000000  0.00000000  1
  I  I3  1  0.75000004  0.25000001  0.50000004  1
  O  O4  1  0.21631301  0.08129800  0.66772902  1
  O  O5  1  0.45141604  0.58643103  0.66772905  1
  O  O6  1  0.32410402  0.21510001  0.14368402  1
  O  O7  1  0.81958007  0.92858404  0.14368407  1
  O  O8  1  0.07141603  0.67589603  0.85631605  1
  O  O9  1  0.78490004  0.18042001  0.85631605  1
  O  O10  1  0.91870206  0.54858402  0.33227106  1
  O  O11  1  0.41356905  0.78368704  0.33227105  1
