# generated using pymatgen
data_SrCuTe3
_symmetry_space_group_name_H-M   'P 1'
_cell_length_a   7.08830786
_cell_length_b   7.15496016
_cell_length_c   10.07677746
_cell_angle_alpha   90.00000000
_cell_angle_beta   90.00000000
_cell_angle_gamma   90.00000000
_symmetry_Int_Tables_number   1
_chemical_formula_structural   SrCuTe3
_chemical_formula_sum   'Sr4 Cu4 Te12'
_cell_volume   511.05949149
_cell_formula_units_Z   4
loop_
 _symmetry_equiv_pos_site_id
 _symmetry_equiv_pos_as_xyz
  1  'x, y, z'
loop_
 _atom_site_type_symbol
 _atom_site_label
 _atom_site_symmetry_multiplicity
 _atom_site_fract_x
 _atom_site_fract_y
 _atom_site_fract_z
 _atom_site_occupancy
  Sr  Sr0  1  0.00860300  0.04274100  0.24999999  1
  Sr  Sr1  1  0.50860301  0.45725899  0.74999997  1
  Sr  Sr2  1  0.49139701  0.54274099  0.24999999  1
  Sr  Sr3  1  0.99139702  0.95725898  0.74999997  1
  Cu  Cu4  1  0.50000001  0.00000000  -0.00000000  1
  Cu  Cu5  1  0.00000000  0.49999999  -0.00000000  1
  Cu  Cu6  1  0.00000000  0.49999999  0.49999998  1
  Cu  Cu7  1  0.50000001  0.00000000  0.49999998  1
  Te  Te8  1  0.56090801  0.99382898  0.24999999  1
  Te  Te9  1  0.06090800  0.50617099  0.74999997  1
  Te  Te10  1  0.93909202  0.49382899  0.24999999  1
  Te  Te11  1  0.43909201  0.00617100  0.74999997  1
  Te  Te12  1  0.78662302  0.21318300  0.96821096  1
  Te  Te13  1  0.28662301  0.28681699  0.03178900  1
  Te  Te14  1  0.71337701  0.71318298  0.53178898  1
  Te  Te15  1  0.21337700  0.78681698  0.46821098  1
  Te  Te16  1  0.21337700  0.78681698  0.03178900  1
  Te  Te17  1  0.71337701  0.71318298  0.96821096  1
  Te  Te18  1  0.28662301  0.28681699  0.46821098  1
  Te  Te19  1  0.78662302  0.21318300  0.53178898  1
