# generated using pymatgen
data_Li2CoB2H3O4
_symmetry_space_group_name_H-M   'P 1'
_cell_length_a   5.11922789
_cell_length_b   5.15353394
_cell_length_c   6.17651033
_cell_angle_alpha   65.40045929
_cell_angle_beta   65.51776886
_cell_angle_gamma   60.21996307
_symmetry_Int_Tables_number   1
_chemical_formula_structural   Li2CoB2H3O4
_chemical_formula_sum   'Li2 Co1 B2 H3 O4'
_cell_volume   124.06188810
_cell_formula_units_Z   1
loop_
 _symmetry_equiv_pos_site_id
 _symmetry_equiv_pos_as_xyz
  1  'x, y, z'
loop_
 _atom_site_type_symbol
 _atom_site_label
 _atom_site_symmetry_multiplicity
 _atom_site_fract_x
 _atom_site_fract_y
 _atom_site_fract_z
 _atom_site_occupancy
  Li  Li0  1  0.77088802  0.60581103  0.68874200  1
  Li  Li1  1  0.93455902  0.10581101  0.18874201  1
  Co  Co2  1  0.10965001  0.94299004  0.67032299  1
  H  H3  1  0.27703701  0.44299002  0.17032300  1
  B  B4  1  0.59126802  0.74332104  0.25130700  1
  B  B5  1  0.41410401  0.24332101  0.75130700  1
  O  O6  1  0.85315702  0.74152304  0.26911600  1
  O  O7  1  0.13620400  0.24152301  0.76911600  1
  H  H8  1  0.59841101  0.49654702  0.21431600  1
  H  H9  1  0.30485401  0.00360700  0.29119700  1
  O  O10  1  0.40034201  0.50360702  0.79119700  1
  O  O11  1  0.69072602  0.99654705  0.71431599  1
