# generated using pymatgen
data_DyScO3
_symmetry_space_group_name_H-M   'P 1'
_cell_length_a   5.46844816
_cell_length_b   5.76217985
_cell_length_c   7.99589920
_cell_angle_alpha   90.00000000
_cell_angle_beta   90.00000000
_cell_angle_gamma   90.00000000
_symmetry_Int_Tables_number   1
_chemical_formula_structural   DyScO3
_chemical_formula_sum   'Dy4 Sc4 O12'
_cell_volume   251.95223761
_cell_formula_units_Z   4
loop_
 _symmetry_equiv_pos_site_id
 _symmetry_equiv_pos_as_xyz
  1  'x, y, z'
loop_
 _atom_site_type_symbol
 _atom_site_label
 _atom_site_symmetry_multiplicity
 _atom_site_fract_x
 _atom_site_fract_y
 _atom_site_fract_z
 _atom_site_occupancy
  Dy  Dy0  1  0.98034797  0.93742402  0.74999998  1
  Dy  Dy1  1  0.48034799  0.56257601  0.24999999  1
  Dy  Dy2  1  0.51965198  0.43742401  0.74999998  1
  Dy  Dy3  1  0.01965200  0.06257600  0.24999999  1
  Sc  Sc4  1  0.49999999  0.00000000  -0.00000000  1
  Sc  Sc5  1  0.00000000  0.50000001  0.49999999  1
  Sc  Sc6  1  0.00000000  0.50000001  -0.00000000  1
  Sc  Sc7  1  0.49999999  0.00000000  0.49999999  1
  O  O8  1  0.62894998  0.94377902  0.24999999  1
  O  O9  1  0.19008499  0.80815002  0.43396799  1
  O  O10  1  0.19008499  0.80815002  0.06603200  1
  O  O11  1  0.69008498  0.69185002  0.56603199  1
  O  O12  1  0.69008498  0.69185002  0.93396798  1
  O  O13  1  0.12895000  0.55622101  0.74999998  1
  O  O14  1  0.87104997  0.44377901  0.24999999  1
  O  O15  1  0.30991499  0.30815001  0.43396799  1
  O  O16  1  0.30991499  0.30815001  0.06603200  1
  O  O17  1  0.80991498  0.19185000  0.56603199  1
  O  O18  1  0.80991498  0.19185000  0.93396798  1
  O  O19  1  0.37104999  0.05622100  0.74999998  1
