# generated using pymatgen
data_Ba3Cl4
_symmetry_space_group_name_H-M   'P 1'
_cell_length_a   8.29391479
_cell_length_b   8.29391479
_cell_length_c   8.29391479
_cell_angle_alpha   108.87496948
_cell_angle_beta   109.77016449
_cell_angle_gamma   109.77016449
_symmetry_Int_Tables_number   1
_chemical_formula_structural   Ba3Cl4
_chemical_formula_sum   'Ba6 Cl8'
_cell_volume   439.15881637
_cell_formula_units_Z   2
loop_
 _symmetry_equiv_pos_site_id
 _symmetry_equiv_pos_as_xyz
  1  'x, y, z'
loop_
 _atom_site_type_symbol
 _atom_site_label
 _atom_site_symmetry_multiplicity
 _atom_site_fract_x
 _atom_site_fract_y
 _atom_site_fract_z
 _atom_site_occupancy
  Ba  Ba0  1  0.49999995  0.74999995  0.24999993  1
  Ba  Ba1  1  0.00000000  0.00000000  0.00000000  1
  Ba  Ba2  1  0.12436695  0.87499994  0.49936692  1
  Ba  Ba3  1  0.62436697  0.24936698  0.12499997  1
  Ba  Ba4  1  0.87563296  0.37499997  0.75063294  1
  Ba  Ba5  1  0.37563296  0.50063297  0.62499994  1
  Cl  Cl6  1  0.75254595  0.62440296  0.02163894  1
  Cl  Cl7  1  0.74745395  0.62185696  0.51909293  1
  Cl  Cl8  1  0.10276397  0.48090697  0.22836096  1
  Cl  Cl9  1  0.39723598  0.12814299  0.37559698  1
  Cl  Cl10  1  0.25254595  0.77163895  0.87440292  1
  Cl  Cl11  1  0.89723597  0.12559699  0.37814297  1
  Cl  Cl12  1  0.60276393  0.97836093  0.73090690  1
  Cl  Cl13  1  0.24745398  0.26909298  0.87185696  1
