# generated using pymatgen
data_Li7CaPN3
_symmetry_space_group_name_H-M   'P 1'
_cell_length_a   3.67467403
_cell_length_b   5.55256319
_cell_length_c   8.50579453
_cell_angle_alpha   90.00000000
_cell_angle_beta   90.00000000
_cell_angle_gamma   90.00000000
_symmetry_Int_Tables_number   1
_chemical_formula_structural   Li7CaPN3
_chemical_formula_sum   'Li7 Ca1 P1 N3'
_cell_volume   173.55103880
_cell_formula_units_Z   1
loop_
 _symmetry_equiv_pos_site_id
 _symmetry_equiv_pos_as_xyz
  1  'x, y, z'
loop_
 _atom_site_type_symbol
 _atom_site_label
 _atom_site_symmetry_multiplicity
 _atom_site_fract_x
 _atom_site_fract_y
 _atom_site_fract_z
 _atom_site_occupancy
  Li  Li0  1  0.25000000  0.57469398  0.04755100  1
  Li  Li1  1  0.74999999  0.42530599  0.95244905  1
  Li  Li2  1  0.74999999  0.07469400  0.45244903  1
  Li  Li3  1  0.25000000  0.92530597  0.54755103  1
  Ca  Ca4  1  0.25000000  0.47344298  0.65633504  1
  Li  Li5  1  0.74999999  0.97344297  0.84366505  1
  Li  Li6  1  0.25000000  0.02655700  0.15633501  1
  Li  Li7  1  0.74999999  0.52655698  0.34366502  1
  N  N8  1  0.74999999  0.74084597  0.09283001  1
  P  P9  1  0.74999999  0.75915397  0.59283003  1
  N  N10  1  0.25000000  0.25915399  0.90717005  1
  N  N11  1  0.25000000  0.24084599  0.40717002  1
