# generated using pymatgen
data_Ga3Mo5IO11
_symmetry_space_group_name_H-M   'P 1'
_cell_length_a   5.02542019
_cell_length_b   5.96291256
_cell_length_c   8.25336170
_cell_angle_alpha   90.00000000
_cell_angle_beta   90.00000000
_cell_angle_gamma   89.90039825
_symmetry_Int_Tables_number   1
_chemical_formula_structural   Ga3Mo5IO11
_chemical_formula_sum   'Ga3 Mo5 I1 O11'
_cell_volume   247.32102812
_cell_formula_units_Z   1
loop_
 _symmetry_equiv_pos_site_id
 _symmetry_equiv_pos_as_xyz
  1  'x, y, z'
loop_
 _atom_site_type_symbol
 _atom_site_label
 _atom_site_symmetry_multiplicity
 _atom_site_fract_x
 _atom_site_fract_y
 _atom_site_fract_z
 _atom_site_occupancy
  Ga  Ga0  1  0.49937403  0.25090900  0.49953802  1
  Ga  Ga1  1  0.50062603  0.24909100  0.99953804  1
  Ga  Ga2  1  0.50062607  0.74909101  0.50046202  1
  Mo  Mo3  1  0.49937407  0.75090901  0.00046200  1
  Mo  Mo4  1  0.07760704  0.50095101  0.75850203  1
  Mo  Mo5  1  0.92239309  0.99904902  0.25850201  1
  Mo  Mo6  1  0.92239306  0.49904901  0.24149801  1
  Mo  Mo7  1  0.07760700  0.00095100  0.74149803  1
  O  O8  1  0.87729604  0.25123600  0.74990903  1
  I  I9  1  0.12270402  0.24876400  0.24990901  1
  O  O10  1  0.12270406  0.74876401  0.25009101  1
  O  O11  1  0.87729608  0.75123601  0.75009103  1
  O  O12  1  0.71053509  0.99947202  0.08730100  1
  O  O13  1  0.28946504  0.50052801  0.58730102  1
  O  O14  1  0.28946501  0.00052800  0.91269903  1
  O  O15  1  0.71053505  0.49947201  0.41269901  1
  O  O16  1  0.73016505  0.49958601  0.06174900  1
  O  O17  1  0.26983501  0.00041400  0.56174902  1
  O  O18  1  0.26983504  0.50041401  0.93825103  1
  O  O19  1  0.73016509  0.99958602  0.43825102  1
