# generated using pymatgen
data_Sr2Mg(BO3)2
_symmetry_space_group_name_H-M   'P 1'
_cell_length_a   5.19387579
_cell_length_b   5.25210333
_cell_length_c   6.19853973
_cell_angle_alpha   114.70312500
_cell_angle_beta   90.00000000
_cell_angle_gamma   119.63393402
_symmetry_Int_Tables_number   1
_chemical_formula_structural   Sr2Mg(BO3)2
_chemical_formula_sum   'Sr2 Mg1 B2 O6'
_cell_volume   128.86924387
_cell_formula_units_Z   1
loop_
 _symmetry_equiv_pos_site_id
 _symmetry_equiv_pos_as_xyz
  1  'x, y, z'
loop_
 _atom_site_type_symbol
 _atom_site_label
 _atom_site_symmetry_multiplicity
 _atom_site_fract_x
 _atom_site_fract_y
 _atom_site_fract_z
 _atom_site_occupancy
  Sr  Sr0  1  0.29068100  0.58136200  0.81473700  1
  Sr  Sr1  1  0.70931902  0.41863800  0.18526299  1
  Mg  Mg2  1  0.50000002  0.00000000  0.50000001  1
  B  B3  1  0.06235200  0.12470400  0.26448000  1
  B  B4  1  0.93764802  0.87529599  0.73551999  1
  O  O5  1  0.23130200  0.46260400  0.33871299  1
  O  O6  1  0.79341103  0.04884900  0.76828101  1
  O  O7  1  0.74456201  0.95115099  0.23171898  1
  O  O8  1  0.20658899  0.95115099  0.23171898  1
  O  O9  1  0.25543801  0.04884900  0.76828101  1
  O  O10  1  0.76869802  0.53739600  0.66128699  1
