# generated using pymatgen
data_CsGdCdSe3
_symmetry_space_group_name_H-M   'P 1'
_cell_length_a   4.37051821
_cell_length_b   8.49011421
_cell_length_c   11.31299210
_cell_angle_alpha   90.00000000
_cell_angle_beta   90.00000000
_cell_angle_gamma   104.91516876
_symmetry_Int_Tables_number   1
_chemical_formula_structural   CsGdCdSe3
_chemical_formula_sum   'Cs2 Gd2 Cd2 Se6'
_cell_volume   405.63882129
_cell_formula_units_Z   2
loop_
 _symmetry_equiv_pos_site_id
 _symmetry_equiv_pos_as_xyz
  1  'x, y, z'
loop_
 _atom_site_type_symbol
 _atom_site_label
 _atom_site_symmetry_multiplicity
 _atom_site_fract_x
 _atom_site_fract_y
 _atom_site_fract_z
 _atom_site_occupancy
  Cs  Cs0  1  0.25529697  0.51059400  0.74999999  1
  Cs  Cs1  1  0.74470295  0.48940600  0.25000000  1
  Gd  Gd2  1  0.00000000  0.00000000  0.50000000  1
  Gd  Gd3  1  0.00000000  0.00000000  0.00000000  1
  Cd  Cd4  1  0.45666994  0.91334000  0.25000000  1
  Cd  Cd5  1  0.54332997  0.08666000  0.74999999  1
  Se  Se6  1  0.93850992  0.87702000  0.74999999  1
  Se  Se7  1  0.06148999  0.12298000  0.25000000  1
  Se  Se8  1  0.38028195  0.76056400  0.45518800  1
  Se  Se9  1  0.38028195  0.76056400  0.04481200  1
  Se  Se10  1  0.61971796  0.23943600  0.95518799  1
  Se  Se11  1  0.61971796  0.23943600  0.54481200  1
