# generated using pymatgen
data_ThSiO4
_symmetry_space_group_name_H-M   'P 1'
_cell_length_a   6.00445747
_cell_length_b   6.00445747
_cell_length_c   6.00445747
_cell_angle_alpha   106.30319977
_cell_angle_beta   106.30319977
_cell_angle_gamma   116.01200867
_symmetry_Int_Tables_number   1
_chemical_formula_structural   ThSiO4
_chemical_formula_sum   'Th2 Si2 O8'
_cell_volume   165.00077257
_cell_formula_units_Z   2
loop_
 _symmetry_equiv_pos_site_id
 _symmetry_equiv_pos_as_xyz
  1  'x, y, z'
loop_
 _atom_site_type_symbol
 _atom_site_label
 _atom_site_symmetry_multiplicity
 _atom_site_fract_x
 _atom_site_fract_y
 _atom_site_fract_z
 _atom_site_occupancy
  Th  Th0  1  0.50000005  0.50000003  0.00000009  1
  Th  Th1  1  0.25000008  0.75000004  0.50000009  1
  Si  Si2  1  0.00000000  0.00000000  0.00000000  1
  Si  Si3  1  0.75000002  0.25000001  0.50000007  1
  O  O4  1  0.65710008  0.83357005  0.82353012  1
  O  O5  1  0.58357009  0.90710005  0.32353014  1
  O  O6  1  0.58357003  0.26004001  0.67647006  1
  O  O7  1  0.01004009  0.83357005  0.17647009  1
  O  O8  1  0.16643010  0.98996005  0.82353011  1
  O  O9  1  0.73996004  0.41643002  0.32353009  1
  O  O10  1  0.09290004  0.41643002  0.67647004  1
  O  O11  1  0.16643003  0.34290002  0.17647005  1
