# generated using pymatgen
data_BaSnS2
_symmetry_space_group_name_H-M   'P 1'
_cell_length_a   4.28905582
_cell_length_b   7.45999908
_cell_length_c   14.62630367
_cell_angle_alpha   90.00000000
_cell_angle_beta   90.00000000
_cell_angle_gamma   90.00000000
_symmetry_Int_Tables_number   1
_chemical_formula_structural   BaSnS2
_chemical_formula_sum   'Ba4 Sn4 S8'
_cell_volume   467.98836841
_cell_formula_units_Z   4
loop_
 _symmetry_equiv_pos_site_id
 _symmetry_equiv_pos_as_xyz
  1  'x, y, z'
loop_
 _atom_site_type_symbol
 _atom_site_label
 _atom_site_symmetry_multiplicity
 _atom_site_fract_x
 _atom_site_fract_y
 _atom_site_fract_z
 _atom_site_occupancy
  Ba  Ba0  1  0.00000000  0.00337600  0.89840202  1
  Ba  Ba1  1  0.00000000  0.67923099  0.60958601  1
  Ba  Ba2  1  0.00000000  0.50337599  0.10159800  1
  Ba  Ba3  1  0.00000000  0.17923100  0.39041401  1
  Sn  Sn4  1  0.50000002  0.66545099  0.35246501  1
  Sn  Sn5  1  0.50000002  0.16545100  0.64753501  1
  Sn  Sn6  1  0.50000002  0.99990199  0.14077600  1
  Sn  Sn7  1  0.50000002  0.49990199  0.85922402  1
  S  S8  1  0.50000002  0.38858200  0.53128101  1
  S  S9  1  0.50000002  0.88858199  0.46871901  1
  S  S10  1  0.00000000  0.89182099  0.22155600  1
  S  S11  1  0.00000000  0.39182100  0.77844402  1
  S  S12  1  0.50000002  0.39907400  0.26323801  1
  S  S13  1  0.50000002  0.72896399  0.98424302  1
  S  S14  1  0.50000002  0.22896400  0.01575700  1
  S  S15  1  0.50000002  0.89907399  0.73676202  1
