# generated using pymatgen
data_Pr2In6S10BrN
_symmetry_space_group_name_H-M   'P 1'
_cell_length_a   7.41069078
_cell_length_b   7.42272806
_cell_length_c   8.94898796
_cell_angle_alpha   99.73973083
_cell_angle_beta   90.00000000
_cell_angle_gamma   90.00000000
_symmetry_Int_Tables_number   1
_chemical_formula_structural   Pr2In6S10BrN
_chemical_formula_sum   'Pr2 In6 S10 Br1 N1'
_cell_volume   485.16656785
_cell_formula_units_Z   1
loop_
 _symmetry_equiv_pos_site_id
 _symmetry_equiv_pos_as_xyz
  1  'x, y, z'
loop_
 _atom_site_type_symbol
 _atom_site_label
 _atom_site_symmetry_multiplicity
 _atom_site_fract_x
 _atom_site_fract_y
 _atom_site_fract_z
 _atom_site_occupancy
  Pr  Pr0  1  0.94793403  0.25367500  0.14287900  1
  Pr  Pr1  1  0.44793401  0.24632500  0.85712102  1
  In  In2  1  0.05206600  0.74632499  0.85712102  1
  In  In3  1  0.55206602  0.75367499  0.14287900  1
  In  In4  1  0.85219602  0.32673000  0.57456401  1
  In  In5  1  0.35219601  0.17327000  0.42543601  1
  In  In6  1  0.14780400  0.67326999  0.42543601  1
  In  In7  1  0.64780402  0.82672999  0.57456401  1
  S  S8  1  0.27770401  0.02880300  0.07687100  1
  S  S9  1  0.37089301  0.56966799  0.67983701  1
  S  S10  1  0.62910702  0.43033200  0.32016300  1
  S  S11  1  0.12910700  0.06966800  0.67983702  1
  S  S12  1  0.77770402  0.47119700  0.92312902  1
  S  S13  1  0.72229602  0.97119699  0.92312902  1
  S  S14  1  0.22229601  0.52880299  0.07687100  1
  Br  Br15  1  0.87089303  0.93033199  0.32016300  1
  S  S16  1  0.91490903  0.64938599  0.61421201  1
  S  S17  1  0.58509102  0.14938600  0.61421201  1
  S  S18  1  0.08509100  0.35061400  0.38578801  1
  N  N19  1  0.41490901  0.85061399  0.38578800  1
