# generated using pymatgen
data_TlV3(GeO7)2
_symmetry_space_group_name_H-M   'P 1'
_cell_length_a   5.26937389
_cell_length_b   7.25033474
_cell_length_c   7.98950863
_cell_angle_alpha   116.34648132
_cell_angle_beta   94.44215393
_cell_angle_gamma   95.25162506
_symmetry_Int_Tables_number   1
_chemical_formula_structural   TlV3(GeO7)2
_chemical_formula_sum   'Tl1 V3 Ge2 O14'
_cell_volume   269.98794056
_cell_formula_units_Z   1
loop_
 _symmetry_equiv_pos_site_id
 _symmetry_equiv_pos_as_xyz
  1  'x, y, z'
loop_
 _atom_site_type_symbol
 _atom_site_label
 _atom_site_symmetry_multiplicity
 _atom_site_fract_x
 _atom_site_fract_y
 _atom_site_fract_z
 _atom_site_occupancy
  Tl  Tl0  1  0.00308900  0.00418500  0.99869203  1
  V  V1  1  0.84515709  0.63308702  0.32116906  1
  V  V2  1  0.14750904  0.36500701  0.68934704  1
  V  V3  1  0.39993708  0.68567702  0.56608806  1
  Ge  Ge4  1  0.59692605  0.31152201  0.43740304  1
  Ge  Ge5  1  0.49072203  0.04241500  0.70012003  1
  O  O6  1  0.50844011  0.95478503  0.29746106  1
  O  O7  1  0.97686409  0.52051601  0.02039205  1
  O  O8  1  0.88698810  0.64676402  0.11529705  1
  O  O9  1  0.09136403  0.35566201  0.88998304  1
  O  O10  1  0.78011007  0.37176101  0.26388604  1
  O  O11  1  0.22022606  0.62526102  0.73588605  1
  O  O12  1  0.58465209  0.76435802  0.39619706  1
  O  O13  1  0.41382904  0.23913701  0.60756204  1
  O  O14  1  0.31389305  0.41638601  0.37805104  1
  O  O15  1  0.69010308  0.58492002  0.61964606  1
  O  O16  1  0.11244407  0.77716602  0.48717505  1
  O  O17  1  0.88868906  0.22320701  0.51035404  1
  O  O18  1  0.49576610  0.94326903  0.75441108  1
  O  O19  1  0.50029303  0.05591500  0.24588102  1
