# generated using pymatgen
data_Ba3LaIn(WO6)2
_symmetry_space_group_name_H-M   'P 1'
_cell_length_a   5.81394005
_cell_length_b   5.81394005
_cell_length_c   9.90649509
_cell_angle_alpha   72.93593597
_cell_angle_beta   72.93593597
_cell_angle_gamma   59.99999619
_symmetry_Int_Tables_number   1
_chemical_formula_structural   Ba3LaIn(WO6)2
_chemical_formula_sum   'Ba3 La1 In1 W2 O12'
_cell_volume   272.84122641
_cell_formula_units_Z   1
loop_
 _symmetry_equiv_pos_site_id
 _symmetry_equiv_pos_as_xyz
  1  'x, y, z'
loop_
 _atom_site_type_symbol
 _atom_site_label
 _atom_site_symmetry_multiplicity
 _atom_site_fract_x
 _atom_site_fract_y
 _atom_site_fract_z
 _atom_site_occupancy
  Ba  Ba0  1  0.71051902  0.71051903  0.86844293  1
  Ba  Ba1  1  0.28837501  0.28837501  0.13487498  1
  Ba  Ba2  1  0.13157900  0.13157901  0.60526297  1
  La  La3  1  0.85871002  0.85871004  0.42386994  1
  In  In4  1  0.99966303  0.99966305  0.00101095  1
  W  W5  1  0.57718801  0.57718803  0.26843596  1
  W  W6  1  0.42348801  0.42348802  0.72953595  1
  O  O7  1  0.78152002  0.78152004  0.13650496  1
  O  O8  1  0.78152003  0.30045501  0.13650497  1
  O  O9  1  0.30045500  0.78152004  0.13650497  1
  O  O10  1  0.86654003  0.38118702  0.37108596  1
  O  O11  1  0.38118701  0.38118702  0.37108597  1
  O  O12  1  0.38118700  0.86654004  0.37108596  1
  O  O13  1  0.62273002  0.62273003  0.62188795  1
  O  O14  1  0.62273002  0.13265201  0.62188796  1
  O  O15  1  0.13265200  0.62273003  0.62188796  1
  O  O16  1  0.69688902  0.22153501  0.86004095  1
  O  O17  1  0.22153501  0.22153501  0.86004096  1
  O  O18  1  0.22153500  0.69688903  0.86004095  1
