# generated using pymatgen
data_Ag3S3I2
_symmetry_space_group_name_H-M   'P 1'
_cell_length_a   5.48178005
_cell_length_b   5.48178005
_cell_length_c   5.48178005
_cell_angle_alpha   85.04969025
_cell_angle_beta   85.04969025
_cell_angle_gamma   85.04969025
_symmetry_Int_Tables_number   1
_chemical_formula_structural   Ag3S3I2
_chemical_formula_sum   'Ag3 S3 I2'
_cell_volume   162.98373044
_cell_formula_units_Z   1
loop_
 _symmetry_equiv_pos_site_id
 _symmetry_equiv_pos_as_xyz
  1  'x, y, z'
loop_
 _atom_site_type_symbol
 _atom_site_label
 _atom_site_symmetry_multiplicity
 _atom_site_fract_x
 _atom_site_fract_y
 _atom_site_fract_z
 _atom_site_occupancy
  Ag  Ag0  1  0.77075604  0.77075599  0.19597807  1
  Ag  Ag1  1  0.19597804  0.77075599  0.77075603  1
  Ag  Ag2  1  0.77075601  0.19597800  0.77075604  1
  I  I3  1  0.25240901  0.25240900  0.25240902  1
  S  S4  1  0.97141502  0.47179700  0.97141506  1
  S  S5  1  0.47179705  0.97141499  0.97141505  1
  S  S6  1  0.97141504  0.97141499  0.47179708  1
  I  I7  1  0.56814303  0.56814299  0.56814305  1
