# generated using pymatgen
data_LiCl
_symmetry_space_group_name_H-M   'P 1'
_cell_length_a   3.91542220
_cell_length_b   3.91542220
_cell_length_c   6.58499765
_cell_angle_alpha   72.70457458
_cell_angle_beta   72.70457458
_cell_angle_gamma   59.99999619
_symmetry_Int_Tables_number   1
_chemical_formula_structural   LiCl
_chemical_formula_sum   'Li2 Cl2'
_cell_volume   82.11358088
_cell_formula_units_Z   2
loop_
 _symmetry_equiv_pos_site_id
 _symmetry_equiv_pos_as_xyz
  1  'x, y, z'
loop_
 _atom_site_type_symbol
 _atom_site_label
 _atom_site_symmetry_multiplicity
 _atom_site_fract_x
 _atom_site_fract_y
 _atom_site_fract_z
 _atom_site_occupancy
  Li  Li0  1  0.49999999  0.50000000  0.49999997  1
  Li  Li1  1  0.00000000  0.00000000  0.00000000  1
  Cl  Cl2  1  0.24971300  0.24971300  0.25086099  1
  Cl  Cl3  1  0.75028699  0.75028700  0.74913896  1
