# generated using pymatgen
data_Li2AgS6
_symmetry_space_group_name_H-M   'P 1'
_cell_length_a   6.05958509
_cell_length_b   7.02145004
_cell_length_c   7.02738571
_cell_angle_alpha   61.29245758
_cell_angle_beta   64.52878571
_cell_angle_gamma   64.49521637
_symmetry_Int_Tables_number   1
_chemical_formula_structural   Li2AgS6
_chemical_formula_sum   'Li4 Ag2 S12'
_cell_volume   227.08164085
_cell_formula_units_Z   2
loop_
 _symmetry_equiv_pos_site_id
 _symmetry_equiv_pos_as_xyz
  1  'x, y, z'
loop_
 _atom_site_type_symbol
 _atom_site_label
 _atom_site_symmetry_multiplicity
 _atom_site_fract_x
 _atom_site_fract_y
 _atom_site_fract_z
 _atom_site_occupancy
  Li  Li0  1  0.66666667  0.97272998  0.67912592  1
  Li  Li1  1  0.66357501  0.48847199  0.19484495  1
  Li  Li2  1  0.33261000  0.92235198  0.41205495  1
  Li  Li3  1  0.99820701  0.99701598  0.00460292  1
  Ag  Ag4  1  0.00129000  0.49888399  0.49948497  1
  Ag  Ag5  1  0.33423100  0.41992399  0.91185794  1
  S  S6  1  0.04969400  0.77891599  0.81635996  1
  S  S7  1  0.05549000  0.31882699  0.27375598  1
  S  S8  1  0.35636400  0.50782199  0.54024595  1
  S  S9  1  0.35481500  0.04680100  0.00438198  1
  S  S10  1  0.59652301  0.65698199  0.69689393  1
  S  S11  1  0.59546701  0.20307300  0.15201396  1
  S  S12  1  0.75436301  0.23467200  0.73276693  1
  S  S13  1  0.76128901  0.73941199  0.24285293  1
  S  S14  1  0.25149700  0.12906100  0.63362996  1
  S  S15  1  0.27684100  0.62950799  0.12664497  1
  S  S16  1  0.97481301  0.87881898  0.38171091  1
  S  S17  1  0.97629501  0.38773099  0.88576791  1
