# generated using pymatgen
data_ZrCrAgS4
_symmetry_space_group_name_H-M   'P 1'
_cell_length_a   7.38803196
_cell_length_b   7.38803196
_cell_length_c   7.38803196
_cell_angle_alpha   88.49861145
_cell_angle_beta   60.39672470
_cell_angle_gamma   118.67281342
_symmetry_Int_Tables_number   1
_chemical_formula_structural   ZrCrAgS4
_chemical_formula_sum   'Zr2 Cr2 Ag2 S8'
_cell_volume   288.73334645
_cell_formula_units_Z   2
loop_
 _symmetry_equiv_pos_site_id
 _symmetry_equiv_pos_as_xyz
  1  'x, y, z'
loop_
 _atom_site_type_symbol
 _atom_site_label
 _atom_site_symmetry_multiplicity
 _atom_site_fract_x
 _atom_site_fract_y
 _atom_site_fract_z
 _atom_site_occupancy
  Zr  Zr0  1  0.00909399  0.24999999  0.74090601  1
  Zr  Zr1  1  0.49090598  0.74999998  0.75909401  1
  Cr  Cr2  1  0.50163700  0.25163699  0.74999999  1
  Cr  Cr3  1  0.99836300  0.24836299  0.24999998  1
  Ag  Ag4  1  0.74999999  0.64154699  0.10845300  1
  Ag  Ag5  1  0.24999997  0.85845298  0.39154702  1
  S  S6  1  0.96154599  0.45640699  0.50322899  1
  S  S7  1  0.52089600  0.01565400  0.97242098  1
  S  S8  1  0.53845400  0.03522500  0.50513898  1
  S  S9  1  0.97910401  0.00668300  0.50524197  1
  S  S10  1  0.04036300  0.04359200  0.99486200  1
  S  S11  1  0.01192498  0.48434599  0.99475801  1
  S  S12  1  0.45963699  0.46477599  0.99677000  1
  S  S13  1  0.48807499  0.49331699  0.52757900  1
