# generated using pymatgen
data_Al2H5O4
_symmetry_space_group_name_H-M   'P 1'
_cell_length_a   3.83720827
_cell_length_b   5.95378304
_cell_length_c   5.95378304
_cell_angle_alpha   91.84153748
_cell_angle_beta   91.89745331
_cell_angle_gamma   91.89745331
_symmetry_Int_Tables_number   1
_chemical_formula_structural   Al2H5O4
_chemical_formula_sum   'Al2 H5 O4'
_cell_volume   135.79523390
_cell_formula_units_Z   1
loop_
 _symmetry_equiv_pos_site_id
 _symmetry_equiv_pos_as_xyz
  1  'x, y, z'
loop_
 _atom_site_type_symbol
 _atom_site_label
 _atom_site_symmetry_multiplicity
 _atom_site_fract_x
 _atom_site_fract_y
 _atom_site_fract_z
 _atom_site_occupancy
  Al  Al0  1  -0.00000000  0.00083400  0.99916603  1
  Al  Al1  1  0.20995498  0.19104700  0.38448799  1
  H  H2  1  0.79004495  0.61551201  0.80895297  1
  H  H3  1  0.80253797  0.25450101  0.34672798  1
  H  H4  1  0.89201494  0.78642602  0.60627395  1
  H  H5  1  0.19746196  0.65327202  0.74549898  1
  H  H6  1  0.10798498  0.39372601  0.21357398  1
  O  O7  1  0.97005994  0.73506302  0.76223396  1
  O  O8  1  0.02993999  0.23776601  0.26493699  1
  O  O9  1  0.49999998  0.19135600  0.80864400  1
  O  O10  1  0.49999995  0.80449702  0.19550295  1
