# generated using pymatgen
data_GaGeTe2S
_symmetry_space_group_name_H-M   'P 1'
_cell_length_a   5.33510828
_cell_length_b   5.35616159
_cell_length_c   5.35616159
_cell_angle_alpha   89.15415192
_cell_angle_beta   89.08383179
_cell_angle_gamma   89.08383179
_symmetry_Int_Tables_number   1
_chemical_formula_structural   GaGeTe2S
_chemical_formula_sum   'Ga1 Ge1 Te2 S1'
_cell_volume   153.00083746
_cell_formula_units_Z   1
loop_
 _symmetry_equiv_pos_site_id
 _symmetry_equiv_pos_as_xyz
  1  'x, y, z'
loop_
 _atom_site_type_symbol
 _atom_site_label
 _atom_site_symmetry_multiplicity
 _atom_site_fract_x
 _atom_site_fract_y
 _atom_site_fract_z
 _atom_site_occupancy
  Ga  Ga0  1  0.00111900  0.00399800  0.00399800  1
  Ge  Ge1  1  0.53282504  0.52184600  0.52184604  1
  Te  Te2  1  0.51860706  0.97635200  0.50575705  1
  Te  Te3  1  0.99249304  0.49967500  0.49967507  1
  S  S4  1  0.51860703  0.50575700  0.97635204  1
