# generated using pymatgen
data_Li3MnFe(CoO4)2
_symmetry_space_group_name_H-M   'P 1'
_cell_length_a   5.87203646
_cell_length_b   5.87203646
_cell_length_c   5.93061256
_cell_angle_alpha   60.32618332
_cell_angle_beta   60.32618332
_cell_angle_gamma   59.99999237
_symmetry_Int_Tables_number   1
_chemical_formula_structural   Li3MnFe(CoO4)2
_chemical_formula_sum   'Li3 Mn1 Fe1 Co2 O8'
_cell_volume   145.30671964
_cell_formula_units_Z   1
loop_
 _symmetry_equiv_pos_site_id
 _symmetry_equiv_pos_as_xyz
  1  'x, y, z'
loop_
 _atom_site_type_symbol
 _atom_site_label
 _atom_site_symmetry_multiplicity
 _atom_site_fract_x
 _atom_site_fract_y
 _atom_site_fract_z
 _atom_site_occupancy
  Li  Li0  1  0.50000002  0.00000000  0.49999998  1
  Li  Li1  1  0.00000000  0.00000000  0.49999998  1
  Li  Li2  1  -0.00000001  0.50000002  0.49999998  1
  Mn  Mn3  1  0.00000000  0.00000000  0.00000000  1
  Co  Co4  1  -0.00000001  0.50000002  -0.00000001  1
  Fe  Fe5  1  0.50000001  0.50000002  -0.00000001  1
  Co  Co6  1  0.50000002  0.00000000  -0.00000001  1
  O  O7  1  0.26031201  0.26031201  0.21906399  1
  O  O8  1  0.24145400  0.76962403  0.21929798  1
  O  O9  1  0.76962402  0.76962403  0.21929797  1
  O  O10  1  0.73968801  0.73968803  0.78093596  1
  O  O11  1  0.76962402  0.24145401  0.21929798  1
  O  O12  1  0.75854602  0.23037601  0.78070196  1
  O  O13  1  0.23037600  0.23037601  0.78070197  1
  O  O14  1  0.23037600  0.75854603  0.78070196  1
