# generated using pymatgen
data_Sr5In4As7
_symmetry_space_group_name_H-M   'P 1'
_cell_length_a   6.18913889
_cell_length_b   6.35582876
_cell_length_c   12.51821327
_cell_angle_alpha   90.00000000
_cell_angle_beta   90.00000000
_cell_angle_gamma   94.72465515
_symmetry_Int_Tables_number   1
_chemical_formula_structural   Sr5In4As7
_chemical_formula_sum   'Sr5 In4 As7'
_cell_volume   490.75703373
_cell_formula_units_Z   1
loop_
 _symmetry_equiv_pos_site_id
 _symmetry_equiv_pos_as_xyz
  1  'x, y, z'
loop_
 _atom_site_type_symbol
 _atom_site_label
 _atom_site_symmetry_multiplicity
 _atom_site_fract_x
 _atom_site_fract_y
 _atom_site_fract_z
 _atom_site_occupancy
  Sr  Sr0  1  0.95395001  0.24217000  0.12326600  1
  Sr  Sr1  1  0.04605000  0.25783000  0.62326599  1
  Sr  Sr2  1  0.04604999  0.75783001  0.87673398  1
  Sr  Sr3  1  0.95395000  0.74217001  0.37673399  1
  Sr  Sr4  1  0.47565400  0.71945301  0.13244700  1
  In  In5  1  0.52434600  0.28054701  0.86755298  1
  In  In6  1  0.52434600  0.78054701  0.63244699  1
  In  In7  1  0.47565400  0.21945300  0.36755299  1
  As  As8  1  0.44759001  0.12730500  0.16298700  1
  In  In9  1  0.55241000  0.37269501  0.66298699  1
  As  As10  1  0.55240999  0.87269502  0.83701298  1
  As  As11  1  0.44759000  0.62730501  0.33701299  1
  As  As12  1  0.89442701  0.23839100  0.37687199  1
  As  As13  1  0.89442700  0.73839101  0.12312800  1
  As  As14  1  0.10557299  0.76160901  0.62312799  1
  As  As15  1  0.10557300  0.26160900  0.87687198  1
