# generated using pymatgen
data_NaSn2PbF14
_symmetry_space_group_name_H-M   'P 1'
_cell_length_a   6.05469847
_cell_length_b   6.07150602
_cell_length_c   8.16004848
_cell_angle_alpha   90.00000000
_cell_angle_beta   99.60963440
_cell_angle_gamma   90.00000000
_symmetry_Int_Tables_number   1
_chemical_formula_structural   NaSn2PbF14
_chemical_formula_sum   'Na1 Sn2 Pb1 F14'
_cell_volume   295.76344786
_cell_formula_units_Z   1
loop_
 _symmetry_equiv_pos_site_id
 _symmetry_equiv_pos_as_xyz
  1  'x, y, z'
loop_
 _atom_site_type_symbol
 _atom_site_label
 _atom_site_symmetry_multiplicity
 _atom_site_fract_x
 _atom_site_fract_y
 _atom_site_fract_z
 _atom_site_occupancy
  Na  Na0  1  0.31825999  0.29705400  0.29827501  1
  Pb  Pb1  1  0.68173999  0.79705400  0.70172503  1
  Sn  Sn2  1  0.17305900  0.29538200  0.76450900  1
  Sn  Sn3  1  0.82694098  0.79538200  0.23549104  1
  F  F4  1  0.50397299  0.05266400  0.50084702  1
  F  F5  1  0.49602699  0.55266400  0.49915302  1
  F  F6  1  0.06834100  0.57171200  0.22595000  1
  F  F7  1  0.93165898  0.07171200  0.77405004  1
  F  F8  1  0.03983800  0.04689400  0.22526500  1
  F  F9  1  0.96016198  0.54689400  0.77473504  1
  F  F10  1  0.56504699  0.02455900  0.24892102  1
  F  F11  1  0.43495299  0.52455900  0.75107901  1
  F  F12  1  0.27733199  0.29517400  0.01275301  1
  F  F13  1  0.72266799  0.79517400  0.98724702  1
  F  F14  1  0.12259400  0.29779100  0.51459100  1
  F  F15  1  0.87740598  0.79779100  0.48540904  1
  F  F16  1  0.59142499  0.54240900  0.25012303  1
  F  F17  1  0.40857499  0.04240900  0.74987701  1
