# generated using pymatgen
data_Sr2Al2H5
_symmetry_space_group_name_H-M   'P 1'
_cell_length_a   5.29590511
_cell_length_b   5.29590511
_cell_length_c   7.45791960
_cell_angle_alpha   89.23128510
_cell_angle_beta   89.23128510
_cell_angle_gamma   88.37735748
_symmetry_Int_Tables_number   1
_chemical_formula_structural   Sr2Al2H5
_chemical_formula_sum   'Sr4 Al4 H10'
_cell_volume   209.04889213
_cell_formula_units_Z   2
loop_
 _symmetry_equiv_pos_site_id
 _symmetry_equiv_pos_as_xyz
  1  'x, y, z'
loop_
 _atom_site_type_symbol
 _atom_site_label
 _atom_site_symmetry_multiplicity
 _atom_site_fract_x
 _atom_site_fract_y
 _atom_site_fract_z
 _atom_site_occupancy
  Sr  Sr0  1  0.27185100  0.20018500  0.30596400  1
  Sr  Sr1  1  0.79981499  0.72814900  0.19403599  1
  Sr  Sr2  1  0.72814899  0.79981500  0.69403599  1
  Sr  Sr3  1  0.20018500  0.27185100  0.80596399  1
  Al  Al4  1  0.74798000  0.31238400  0.53012999  1
  Al  Al5  1  0.68761600  0.25202000  0.96986999  1
  Al  Al6  1  0.31238399  0.74798000  0.03013000  1
  Al  Al7  1  0.25201999  0.68761600  0.46986999  1
  H  H8  1  0.75296100  0.24703900  0.74999999  1
  H  H9  1  0.24703899  0.75296100  0.24999999  1
  H  H10  1  0.49999999  0.50000000  0.49999999  1
  H  H11  1  0.49999999  0.50000000  -0.00000000  1
  H  H12  1  0.94373700  0.25616600  0.08400299  1
  H  H13  1  0.74383400  0.05626300  0.41599699  1
  H  H14  1  0.05626299  0.74383400  0.91599699  1
  H  H15  1  0.25616599  0.94373700  0.58400299  1
  H  H16  1  -0.00000001  0.50000000  0.49999999  1
  H  H17  1  0.49999999  1.00000000  -0.00000001  1
