# generated using pymatgen
data_KRb(CaAs)2
_symmetry_space_group_name_H-M   'P 1'
_cell_length_a   5.03830004
_cell_length_b   5.03830004
_cell_length_c   8.22974396
_cell_angle_alpha   90.00000000
_cell_angle_beta   90.00000000
_cell_angle_gamma   90.00000000
_symmetry_Int_Tables_number   1
_chemical_formula_structural   KRb(CaAs)2
_chemical_formula_sum   'Rb1 K1 Ca2 As2'
_cell_volume   208.90766610
_cell_formula_units_Z   1
loop_
 _symmetry_equiv_pos_site_id
 _symmetry_equiv_pos_as_xyz
  1  'x, y, z'
loop_
 _atom_site_type_symbol
 _atom_site_label
 _atom_site_symmetry_multiplicity
 _atom_site_fract_x
 _atom_site_fract_y
 _atom_site_fract_z
 _atom_site_occupancy
  Rb  Rb0  1  0.50000000  0.00000000  0.65342000  1
  K  K1  1  0.00000000  0.50000000  0.34658000  1
  Ca  Ca2  1  0.50000000  0.50000000  -0.00000000  1
  Ca  Ca3  1  0.00000000  0.00000000  0.00000000  1
  As  As4  1  0.00000000  0.50000000  0.80433000  1
  As  As5  1  0.50000000  0.00000000  0.19567000  1
