# generated using pymatgen
data_SbRuSe
_symmetry_space_group_name_H-M   'P 1'
_cell_length_a   6.36899519
_cell_length_b   6.43342257
_cell_length_c   6.47253036
_cell_angle_alpha   113.02711487
_cell_angle_beta   90.00000000
_cell_angle_gamma   90.00000000
_symmetry_Int_Tables_number   1
_chemical_formula_structural   SbRuSe
_chemical_formula_sum   'Sb4 Ru4 Se4'
_cell_volume   244.07645092
_cell_formula_units_Z   4
loop_
 _symmetry_equiv_pos_site_id
 _symmetry_equiv_pos_as_xyz
  1  'x, y, z'
loop_
 _atom_site_type_symbol
 _atom_site_label
 _atom_site_symmetry_multiplicity
 _atom_site_fract_x
 _atom_site_fract_y
 _atom_site_fract_z
 _atom_site_occupancy
  Sb  Sb0  1  0.13474100  0.85551600  0.12328694  1
  Sb  Sb1  1  0.63474098  0.14448400  0.37671298  1
  Sb  Sb2  1  0.86525897  0.14448400  0.87671298  1
  Sb  Sb3  1  0.36525899  0.85551600  0.62328693  1
  Ru  Ru4  1  0.50461998  0.71261600  0.20002695  1
  Ru  Ru5  1  0.00462000  0.28738400  0.29997298  1
  Ru  Ru6  1  0.49537999  0.28738400  0.79997297  1
  Ru  Ru7  1  0.99537997  0.71261600  0.70002694  1
  Se  Se8  1  0.86509797  0.65119900  0.31938595  1
  Se  Se9  1  0.36509799  0.34880100  0.18061397  1
  Se  Se10  1  0.13490200  0.34880100  0.68061397  1
  Se  Se11  1  0.63490198  0.65119900  0.81938594  1
