# generated using pymatgen
data_V3(O2F)2
_symmetry_space_group_name_H-M   'P 1'
_cell_length_a   4.72063017
_cell_length_b   4.72063017
_cell_length_c   9.14123058
_cell_angle_alpha   89.91690826
_cell_angle_beta   89.91690826
_cell_angle_gamma   85.75588226
_symmetry_Int_Tables_number   1
_chemical_formula_structural   V3(O2F)2
_chemical_formula_sum   'V6 O8 F4'
_cell_volume   203.14737052
_cell_formula_units_Z   2
loop_
 _symmetry_equiv_pos_site_id
 _symmetry_equiv_pos_as_xyz
  1  'x, y, z'
loop_
 _atom_site_type_symbol
 _atom_site_label
 _atom_site_symmetry_multiplicity
 _atom_site_fract_x
 _atom_site_fract_y
 _atom_site_fract_z
 _atom_site_occupancy
  V  V0  1  0.99676697  0.99676702  0.32671705  1
  V  V1  1  0.00000000  0.00000000  0.00000000  1
  V  V2  1  0.00323300  0.00323300  0.67328302  1
  V  V3  1  0.54408198  0.54408201  0.16551703  1
  V  V4  1  0.49999999  0.50000001  0.50000004  1
  V  V5  1  0.45591799  0.45591801  0.83448305  1
  O  O6  1  0.19673099  0.19673100  0.83631004  1
  O  O7  1  0.70080500  0.30812101  0.33024903  1
  O  O8  1  0.69209900  0.30790101  0.00000002  1
  O  O9  1  0.69187900  0.29919501  0.66975104  1
  O  O10  1  0.30812097  0.70080501  0.33024903  1
  O  O11  1  0.30790097  0.69209901  0.00000002  1
  O  O12  1  0.29919497  0.69187901  0.66975104  1
  O  O13  1  0.80326898  0.80326901  0.16369004  1
  F  F14  1  0.20161099  0.20161100  0.16465801  1
  F  F15  1  0.19407499  0.19407500  0.49868002  1
  F  F16  1  0.80592498  0.80592501  0.50132005  1
  F  F17  1  0.79838898  0.79838901  0.83534206  1
