# generated using pymatgen
data_Zn3Ga4Cu2AgS10
_symmetry_space_group_name_H-M   'P 1'
_cell_length_a   6.36507511
_cell_length_b   6.71898460
_cell_length_c   10.26313019
_cell_angle_alpha   109.08345795
_cell_angle_beta   89.99478149
_cell_angle_gamma   89.99376678
_symmetry_Int_Tables_number   1
_chemical_formula_structural   Zn3Ga4Cu2AgS10
_chemical_formula_sum   'Zn3 Ga4 Cu2 Ag1 S10'
_cell_volume   414.79999119
_cell_formula_units_Z   1
loop_
 _symmetry_equiv_pos_site_id
 _symmetry_equiv_pos_as_xyz
  1  'x, y, z'
loop_
 _atom_site_type_symbol
 _atom_site_label
 _atom_site_symmetry_multiplicity
 _atom_site_fract_x
 _atom_site_fract_y
 _atom_site_fract_z
 _atom_site_occupancy
  Zn  Zn0  1  0.50666100  0.13130400  0.59861705  1
  Zn  Zn1  1  0.49969102  0.53562501  0.40091805  1
  Zn  Zn2  1  0.49415403  0.93257201  0.20186006  1
  Ga  Ga3  1  0.00182003  0.66351501  0.99738506  1
  Ga  Ga4  1  0.99863599  0.06709500  0.79507207  1
  Ga  Ga5  1  0.00095204  0.87073801  0.40727705  1
  Ga  Ga6  1  0.50014202  0.73409701  0.79917008  1
  Ag  Ag7  1  0.00169201  0.27136200  0.20004102  1
  Cu  Cu8  1  0.50070301  0.33310600  0.99975307  1
  Cu  Cu9  1  0.99984600  0.46307400  0.60013408  1
  S  S10  1  0.86472900  0.33564600  0.99073608  1
  S  S11  1  0.89303802  0.73076801  0.79825509  1
  S  S12  1  0.87479299  0.13574500  0.59956706  1
  S  S13  1  0.87103101  0.54351001  0.41109507  1
  S  S14  1  0.86896803  0.91932001  0.20039207  1
  S  S15  1  0.39356901  0.26707700  0.19779503  1
  S  S16  1  0.37104302  0.66088901  0.00898504  1
  S  S17  1  0.37059400  0.08489700  0.80187005  1
  S  S18  1  0.36499601  0.45424300  0.59131905  1
  S  S19  1  0.37294203  0.86541601  0.39975906  1
