# generated using pymatgen
data_MgV2O5
_symmetry_space_group_name_H-M   'P 1'
_cell_length_a   3.72480202
_cell_length_b   5.42720413
_cell_length_c   11.21048832
_cell_angle_alpha   90.00000000
_cell_angle_beta   90.00000000
_cell_angle_gamma   110.06953430
_symmetry_Int_Tables_number   1
_chemical_formula_structural   MgV2O5
_chemical_formula_sum   'Mg2 V4 O10'
_cell_volume   212.86168757
_cell_formula_units_Z   2
loop_
 _symmetry_equiv_pos_site_id
 _symmetry_equiv_pos_as_xyz
  1  'x, y, z'
loop_
 _atom_site_type_symbol
 _atom_site_label
 _atom_site_symmetry_multiplicity
 _atom_site_fract_x
 _atom_site_fract_y
 _atom_site_fract_z
 _atom_site_occupancy
  Mg  Mg0  1  0.89141498  0.78282997  0.24999999  1
  Mg  Mg1  1  0.10858500  0.21716999  0.74999998  1
  V  V2  1  0.20103199  0.40206398  0.40211399  1
  V  V3  1  0.79896799  0.59793597  0.59788598  1
  V  V4  1  0.79896799  0.59793597  0.90211397  1
  V  V5  1  0.20103199  0.40206398  0.09788600  1
  O  O6  1  0.69604299  0.39208598  0.74999998  1
  O  O7  1  0.30395699  0.60791397  0.24999999  1
  O  O8  1  0.23556899  0.47113798  0.92260597  1
  O  O9  1  0.76443099  0.52886198  0.07739400  1
  O  O10  1  0.76443099  0.52886198  0.42260599  1
  O  O11  1  0.23556899  0.47113798  0.57739398  1
  O  O12  1  0.04113000  0.08226000  0.37212299  1
  O  O13  1  0.95886998  0.91773996  0.62787698  1
  O  O14  1  0.04113000  0.08226000  0.12787700  1
  O  O15  1  0.95886998  0.91773996  0.87212298  1
