# generated using pymatgen
data_Ba2TbNbO6
_symmetry_space_group_name_H-M   'P 1'
_cell_length_a   6.04099417
_cell_length_b   6.06618404
_cell_length_c   6.04099417
_cell_angle_alpha   60.13726807
_cell_angle_beta   90.00000000
_cell_angle_gamma   119.86273193
_symmetry_Int_Tables_number   1
_chemical_formula_structural   Ba2TbNbO6
_chemical_formula_sum   'Ba2 Tb1 Nb1 O6'
_cell_volume   157.18447717
_cell_formula_units_Z   1
loop_
 _symmetry_equiv_pos_site_id
 _symmetry_equiv_pos_as_xyz
  1  'x, y, z'
loop_
 _atom_site_type_symbol
 _atom_site_label
 _atom_site_symmetry_multiplicity
 _atom_site_fract_x
 _atom_site_fract_y
 _atom_site_fract_z
 _atom_site_occupancy
  Ba  Ba0  1  0.25000001  0.50000000  0.24999998  1
  Ba  Ba1  1  0.74999999  0.50000000  0.74999997  1
  Tb  Tb2  1  0.00000000  0.00000000  0.00000000  1
  Nb  Nb3  1  0.49999999  0.00000000  0.49999999  1
  O  O4  1  0.70287798  0.00000100  0.76824998  1
  O  O5  1  0.76825098  0.00000000  0.29712199  1
  O  O6  1  0.23174899  0.00000000  0.70287798  1
  O  O7  1  0.29712202  0.99999900  0.23174997  1
  O  O8  1  0.26392301  0.52784600  0.73607697  1
  O  O9  1  0.73607699  0.47215400  0.26392298  1
