# generated using pymatgen
data_DyGaO3
_symmetry_space_group_name_H-M   'P 1'
_cell_length_a   5.30493116
_cell_length_b   5.61194801
_cell_length_c   7.65528011
_cell_angle_alpha   90.00000000
_cell_angle_beta   90.00000000
_cell_angle_gamma   90.00000000
_symmetry_Int_Tables_number   1
_chemical_formula_structural   DyGaO3
_chemical_formula_sum   'Dy4 Ga4 O12'
_cell_volume   227.90532822
_cell_formula_units_Z   4
loop_
 _symmetry_equiv_pos_site_id
 _symmetry_equiv_pos_as_xyz
  1  'x, y, z'
loop_
 _atom_site_type_symbol
 _atom_site_label
 _atom_site_symmetry_multiplicity
 _atom_site_fract_x
 _atom_site_fract_y
 _atom_site_fract_z
 _atom_site_occupancy
  Dy  Dy0  1  0.01950000  0.93189200  0.74999999  1
  Dy  Dy1  1  0.51949998  0.56810800  0.25000000  1
  Dy  Dy2  1  0.48049999  0.43189200  0.74999999  1
  Dy  Dy3  1  0.98049997  0.06810800  0.25000000  1
  Ga  Ga4  1  0.49999998  0.00000000  0.49999999  1
  Ga  Ga5  1  0.00000000  0.50000000  0.49999999  1
  Ga  Ga6  1  0.00000000  0.50000000  0.00000000  1
  Ga  Ga7  1  0.49999998  0.00000000  -0.00000000  1
  O  O8  1  0.69235598  0.30317600  0.44191599  1
  O  O9  1  0.19235599  0.19682400  0.55808399  1
  O  O10  1  0.80764398  0.80317600  0.05808400  1
  O  O11  1  0.30764399  0.69682400  0.94191599  1
  O  O12  1  0.30764399  0.69682400  0.55808399  1
  O  O13  1  0.80764398  0.80317600  0.44191599  1
  O  O14  1  0.19235599  0.19682400  0.94191599  1
  O  O15  1  0.69235598  0.30317600  0.05808400  1
  O  O16  1  0.11343900  0.45887300  0.25000000  1
  O  O17  1  0.61343898  0.04112700  0.74999999  1
  O  O18  1  0.38656099  0.95887300  0.25000000  1
  O  O19  1  0.88656097  0.54112700  0.74999999  1
