# generated using pymatgen
data_ZrAg3BiSbI2O3F5
_symmetry_space_group_name_H-M   'P 1'
_cell_length_a   5.40780878
_cell_length_b   5.40780878
_cell_length_c   9.21894169
_cell_angle_alpha   90.00000000
_cell_angle_beta   90.00000000
_cell_angle_gamma   90.00000000
_symmetry_Int_Tables_number   1
_chemical_formula_structural   ZrAg3BiSbI2O3F5
_chemical_formula_sum   'Zr1 Ag3 Bi1 Sb1 I2 O3 F5'
_cell_volume   269.60237967
_cell_formula_units_Z   1
loop_
 _symmetry_equiv_pos_site_id
 _symmetry_equiv_pos_as_xyz
  1  'x, y, z'
loop_
 _atom_site_type_symbol
 _atom_site_label
 _atom_site_symmetry_multiplicity
 _atom_site_fract_x
 _atom_site_fract_y
 _atom_site_fract_z
 _atom_site_occupancy
  Zr  Zr0  1  0.00000000  0.00000000  0.00000000  1
  Sb  Sb1  1  0.00000000  0.00000000  0.50000002  1
  Ag  Ag2  1  0.50000002  0.50000002  0.25000001  1
  Ag  Ag3  1  0.50000002  0.50000002  0.75000003  1
  Bi  Bi4  1  0.27428701  0.27428701  0.00000000  1
  Ag  Ag5  1  0.72571303  0.72571303  0.00000000  1
  I  I6  1  0.72571303  0.27428701  0.50000002  1
  I  I7  1  0.27428701  0.72571303  0.50000002  1
  O  O8  1  0.20155401  0.20155401  0.34692501  1
  F  F9  1  0.79844603  0.79844603  0.65307502  1
  F  F10  1  0.79844603  0.79844603  0.34692501  1
  F  F11  1  0.79844603  0.20155401  0.84692503  1
  F  F12  1  0.79844603  0.20155401  0.15307501  1
  F  F13  1  0.20155401  0.20155401  0.65307502  1
  O  O14  1  0.20155401  0.79844603  0.15307501  1
  O  O15  1  0.20155401  0.79844603  0.84692503  1
