# generated using pymatgen
data_RbP(HO2)2
_symmetry_space_group_name_H-M   'P 1'
_cell_length_a   6.60119486
_cell_length_b   6.60119486
_cell_length_c   6.65356064
_cell_angle_alpha   108.00080872
_cell_angle_beta   108.00080872
_cell_angle_gamma   112.15022278
_symmetry_Int_Tables_number   1
_chemical_formula_structural   RbP(HO2)2
_chemical_formula_sum   'Rb2 P2 H4 O8'
_cell_volume   223.61233544
_cell_formula_units_Z   2
loop_
 _symmetry_equiv_pos_site_id
 _symmetry_equiv_pos_as_xyz
  1  'x, y, z'
loop_
 _atom_site_type_symbol
 _atom_site_label
 _atom_site_symmetry_multiplicity
 _atom_site_fract_x
 _atom_site_fract_y
 _atom_site_fract_z
 _atom_site_occupancy
  Rb  Rb0  1  0.73392003  0.23392001  0.50000004  1
  Rb  Rb1  1  0.48392004  0.48392003  0.00000003  1
  P  P2  1  0.25111906  0.75111904  0.50000005  1
  P  P3  1  0.00111900  0.00111900  0.00000000  1
  H  H4  1  0.25106906  0.83988305  0.85394407  1
  H  H5  1  0.98593904  0.39712502  0.14605603  1
  H  H6  1  0.64712506  0.73593904  0.64605606  1
  H  H7  1  0.08988300  0.00106900  0.35394401  1
  O  O8  1  0.95628502  0.00710000  0.22338602  1
  O  O9  1  0.78371506  0.73289904  0.77661507  1
  O  O10  1  0.98289905  0.53371503  0.27661404  1
  O  O11  1  0.25710005  0.70628504  0.72338506  1
  O  O12  1  0.25188401  0.02137700  0.04870701  1
  O  O13  1  0.97267003  0.20317701  0.95129305  1
  O  O14  1  0.45317706  0.72267004  0.45129305  1
  O  O15  1  0.27137701  0.00188400  0.54870702  1
