# generated using pymatgen
data_RbHoO2
_symmetry_space_group_name_H-M   'P 1'
_cell_length_a   3.51987433
_cell_length_b   3.51987433
_cell_length_c   6.87446880
_cell_angle_alpha   75.16652679
_cell_angle_beta   75.16652679
_cell_angle_gamma   59.99999619
_symmetry_Int_Tables_number   1
_chemical_formula_structural   RbHoO2
_chemical_formula_sum   'Rb1 Ho1 O2'
_cell_volume   70.46395876
_cell_formula_units_Z   1
loop_
 _symmetry_equiv_pos_site_id
 _symmetry_equiv_pos_as_xyz
  1  'x, y, z'
loop_
 _atom_site_type_symbol
 _atom_site_label
 _atom_site_symmetry_multiplicity
 _atom_site_fract_x
 _atom_site_fract_y
 _atom_site_fract_z
 _atom_site_occupancy
  Rb  Rb0  1  0.00000000  0.00000000  0.00000000  1
  Ho  Ho1  1  0.49999999  0.49999998  0.50000001  1
  O  O2  1  0.77471998  0.77471997  0.67584002  1
  O  O3  1  0.22528000  0.22527999  0.32416000  1
