# generated using pymatgen
data_Li(NiO2)2
_symmetry_space_group_name_H-M   'P 1'
_cell_length_a   5.93844700
_cell_length_b   6.07361937
_cell_length_c   6.07366848
_cell_angle_alpha   90.43346405
_cell_angle_beta   118.99028015
_cell_angle_gamma   118.98912811
_symmetry_Int_Tables_number   1
_chemical_formula_structural   Li(NiO2)2
_chemical_formula_sum   'Li2 Ni4 O8'
_cell_volume   158.97075499
_cell_formula_units_Z   2
loop_
 _symmetry_equiv_pos_site_id
 _symmetry_equiv_pos_as_xyz
  1  'x, y, z'
loop_
 _atom_site_type_symbol
 _atom_site_label
 _atom_site_symmetry_multiplicity
 _atom_site_fract_x
 _atom_site_fract_y
 _atom_site_fract_z
 _atom_site_occupancy
  Li  Li0  1  0.49999997  0.99999999  0.00000005  1
  Li  Li1  1  -0.00000002  0.50000000  0.50000001  1
  Ni  Ni2  1  0.00000098  0.50000000  1.00000002  1
  Ni  Ni3  1  0.49999999  0.50000000  0.00000004  1
  Ni  Ni4  1  0.00000000  0.00000000  0.00000000  1
  Ni  Ni5  1  0.49999999  0.50000000  0.50000004  1
  O  O6  1  0.98745799  0.74356499  0.75242707  1
  O  O7  1  0.54808500  0.30290700  0.79113304  1
  O  O8  1  0.51254198  0.74757399  0.75643605  1
  O  O9  1  0.04808599  0.29113400  0.80290601  1
  O  O10  1  0.95191399  0.70886599  0.19709407  1
  O  O11  1  0.48745800  0.25242600  0.24356403  1
  O  O12  1  0.45191498  0.69709300  0.20886704  1
  O  O13  1  0.01254199  0.25643500  0.24757301  1
