# generated using pymatgen
data_LiI2ClO2
_symmetry_space_group_name_H-M   'P 1'
_cell_length_a   4.45588589
_cell_length_b   4.45588636
_cell_length_c   6.06041288
_cell_angle_alpha   90.00000000
_cell_angle_beta   90.00000000
_cell_angle_gamma   120.00000000
_symmetry_Int_Tables_number   1
_chemical_formula_structural   LiI2ClO2
_chemical_formula_sum   'Li1 I2 Cl1 O2'
_cell_volume   104.20798816
_cell_formula_units_Z   1
loop_
 _symmetry_equiv_pos_site_id
 _symmetry_equiv_pos_as_xyz
  1  'x, y, z'
loop_
 _atom_site_type_symbol
 _atom_site_label
 _atom_site_symmetry_multiplicity
 _atom_site_fract_x
 _atom_site_fract_y
 _atom_site_fract_z
 _atom_site_occupancy
  Li  Li0  1  0.66666671  0.33333335  0.75000001  1
  Cl  Cl1  1  0.33333339  0.66666670  0.25000000  1
  I  I2  1  0.33333339  0.66666670  0.75000001  1
  I  I3  1  0.66666671  0.33333335  0.25000000  1
  O  O4  1  0.00000000  0.00000000  0.00000000  1
  O  O5  1  0.00000000  0.00000000  0.50000001  1
