# generated using pymatgen
data_CaMgPI3BrN3
_symmetry_space_group_name_H-M   'P 1'
_cell_length_a   5.56832790
_cell_length_b   5.57191181
_cell_length_c   6.77694607
_cell_angle_alpha   114.27352142
_cell_angle_beta   90.00000000
_cell_angle_gamma   90.00000000
_symmetry_Int_Tables_number   1
_chemical_formula_structural   CaMgPI3BrN3
_chemical_formula_sum   'Ca1 Mg1 P1 I3 Br1 N3'
_cell_volume   191.67444593
_cell_formula_units_Z   1
loop_
 _symmetry_equiv_pos_site_id
 _symmetry_equiv_pos_as_xyz
  1  'x, y, z'
loop_
 _atom_site_type_symbol
 _atom_site_label
 _atom_site_symmetry_multiplicity
 _atom_site_fract_x
 _atom_site_fract_y
 _atom_site_fract_z
 _atom_site_occupancy
  Ca  Ca0  1  0.50000001  0.65020902  0.30041799  1
  Mg  Mg1  1  1.00000002  0.15720200  0.31440400  1
  P  P2  1  0.00000000  0.84216802  0.68433599  1
  I  I3  1  0.50000001  0.34276201  0.68552400  1
  I  I4  1  1.00000002  0.50234301  0.00468599  1
  I  I5  1  0.50000001  0.99764103  0.99528199  1
  Br  Br6  1  0.24349300  0.49497101  0.50383700  1
  N  N7  1  0.75650701  0.00886500  0.50383600  1
  N  N8  1  0.24349300  0.00886500  0.50383600  1
  N  N9  1  0.75650701  0.49497101  0.50383700  1
