# generated using pymatgen
data_SrSm2O4
_symmetry_space_group_name_H-M   'P 1'
_cell_length_a   3.47059989
_cell_length_b   6.02552843
_cell_length_c   11.39719582
_cell_angle_alpha   90.00000000
_cell_angle_beta   90.00000000
_cell_angle_gamma   106.73773956
_symmetry_Int_Tables_number   1
_chemical_formula_structural   SrSm2O4
_chemical_formula_sum   'Sr2 Sm4 O8'
_cell_volume   228.24265257
_cell_formula_units_Z   2
loop_
 _symmetry_equiv_pos_site_id
 _symmetry_equiv_pos_as_xyz
  1  'x, y, z'
loop_
 _atom_site_type_symbol
 _atom_site_label
 _atom_site_symmetry_multiplicity
 _atom_site_fract_x
 _atom_site_fract_y
 _atom_site_fract_z
 _atom_site_occupancy
  Sr  Sr0  1  0.11188801  0.22377600  0.75000001  1
  Sr  Sr1  1  0.88811206  0.77622401  0.25000000  1
  Sm  Sm2  1  0.36731004  0.73462001  0.57369201  1
  Sm  Sm3  1  0.36731004  0.73462001  0.92630801  1
  Sm  Sm4  1  0.63269003  0.26538000  0.42630801  1
  Sm  Sm5  1  0.63269003  0.26538000  0.07369200  1
  O  O6  1  0.00000000  0.00000000  0.00000000  1
  O  O7  1  0.00000000  0.00000000  0.50000001  1
  O  O8  1  0.46158205  0.92316401  0.75000001  1
  O  O9  1  0.26408903  0.52817801  0.38945501  1
  O  O10  1  0.26408903  0.52817801  0.11054500  1
  O  O11  1  0.53841802  0.07683600  0.25000000  1
  O  O12  1  0.73591104  0.47182201  0.61054501  1
  O  O13  1  0.73591104  0.47182201  0.88945501  1
