# generated using pymatgen
data_Li8HfO6
_symmetry_space_group_name_H-M   'P 1'
_cell_length_a   5.53737736
_cell_length_b   5.53737736
_cell_length_c   6.11830378
_cell_angle_alpha   63.09416199
_cell_angle_beta   63.09416199
_cell_angle_gamma   60.00000763
_symmetry_Int_Tables_number   1
_chemical_formula_structural   Li8HfO6
_chemical_formula_sum   'Li8 Hf1 O6'
_cell_volume   138.52413093
_cell_formula_units_Z   1
loop_
 _symmetry_equiv_pos_site_id
 _symmetry_equiv_pos_as_xyz
  1  'x, y, z'
loop_
 _atom_site_type_symbol
 _atom_site_label
 _atom_site_symmetry_multiplicity
 _atom_site_fract_x
 _atom_site_fract_y
 _atom_site_fract_z
 _atom_site_occupancy
  Li  Li0  1  0.89665402  0.50533100  0.36463100  1
  Li  Li1  1  0.49466902  0.76661600  0.63536901  1
  Li  Li2  1  0.76661601  0.10334600  0.63536901  1
  Li  Li3  1  0.65510502  0.65510500  0.03468499  1
  Li  Li4  1  0.34489501  0.34489500  0.96531502  1
  Li  Li5  1  0.23338402  0.89665401  0.36463100  1
  Li  Li6  1  0.50533101  0.23338400  0.36463100  1
  Li  Li7  1  0.10334601  0.49466900  0.63536901  1
  Hf  Hf8  1  0.00000000  0.00000000  0.00000000  1
  O  O9  1  0.76443201  0.38725200  0.75573501  1
  O  O10  1  0.61274802  0.90741901  0.24426499  1
  O  O11  1  0.90741901  0.23556800  0.24426500  1
  O  O12  1  0.09258101  0.76443200  0.75573501  1
  O  O13  1  0.38725201  0.09258100  0.75573502  1
  O  O14  1  0.23556801  0.61274800  0.24426500  1
