# generated using pymatgen
data_Ba2ZnF6
_symmetry_space_group_name_H-M   'P 1'
_cell_length_a   4.20041418
_cell_length_b   4.20041418
_cell_length_c   8.69258881
_cell_angle_alpha   103.98152161
_cell_angle_beta   103.98152161
_cell_angle_gamma   90.00000000
_symmetry_Int_Tables_number   1
_chemical_formula_structural   Ba2ZnF6
_chemical_formula_sum   'Ba2 Zn1 F6'
_cell_volume   144.13692314
_cell_formula_units_Z   1
loop_
 _symmetry_equiv_pos_site_id
 _symmetry_equiv_pos_as_xyz
  1  'x, y, z'
loop_
 _atom_site_type_symbol
 _atom_site_label
 _atom_site_symmetry_multiplicity
 _atom_site_fract_x
 _atom_site_fract_y
 _atom_site_fract_z
 _atom_site_occupancy
  Ba  Ba0  1  0.84818598  0.84818597  0.69637201  1
  Ba  Ba1  1  0.15181400  0.15181399  0.30362800  1
  Zn  Zn2  1  0.49999999  0.49999998  0.99999999  1
  F  F3  1  0.62063599  0.62063598  0.24127201  1
  F  F4  1  0.37936399  0.37936399  0.75872799  1
  F  F5  1  0.49999998  0.00000000  0.00000001  1
  F  F6  1  0.25000000  0.74999997  0.50000000  1
  F  F7  1  0.74999998  0.24999999  0.50000000  1
  F  F8  1  0.00000001  0.49999998  0.99999999  1
