# generated using pymatgen
data_Cs2NbAgS4
_symmetry_space_group_name_H-M   'P 1'
_cell_length_a   6.05149984
_cell_length_b   7.69558382
_cell_length_c   12.63641357
_cell_angle_alpha   84.59784698
_cell_angle_beta   76.14610291
_cell_angle_gamma   66.84748077
_symmetry_Int_Tables_number   1
_chemical_formula_structural   Cs2NbAgS4
_chemical_formula_sum   'Cs4 Nb2 Ag2 S8'
_cell_volume   525.34028630
_cell_formula_units_Z   2
loop_
 _symmetry_equiv_pos_site_id
 _symmetry_equiv_pos_as_xyz
  1  'x, y, z'
loop_
 _atom_site_type_symbol
 _atom_site_label
 _atom_site_symmetry_multiplicity
 _atom_site_fract_x
 _atom_site_fract_y
 _atom_site_fract_z
 _atom_site_occupancy
  Cs  Cs0  1  0.68091402  0.00000000  0.63817203  1
  Cs  Cs1  1  0.31908601  0.00000000  0.36182801  1
  Cs  Cs2  1  0.43091397  0.50000001  0.13817201  1
  Cs  Cs3  1  0.06908597  0.50000001  0.86182804  1
  Nb  Nb4  1  0.24999997  0.50000001  0.50000003  1
  Nb  Nb5  1  0.50000001  0.00000000  0.00000000  1
  Ag  Ag6  1  0.74999998  0.50000001  0.50000003  1
  Ag  Ag7  1  0.00000000  0.00000000  0.00000000  1
  S  S8  1  0.13811299  0.19626900  0.11225501  1
  S  S9  1  0.44663695  0.80373101  0.88774505  1
  S  S10  1  0.08438198  0.30373100  0.61225503  1
  S  S11  1  0.00036795  0.69626901  0.38774503  1
  S  S12  1  0.66561800  0.19626900  0.88774504  1
  S  S13  1  0.74963196  0.80373101  0.11225502  1
  S  S14  1  0.30336296  0.69626901  0.61225503  1
  S  S15  1  0.61188699  0.30373100  0.38774502  1
