# generated using pymatgen
data_KYbI3
_symmetry_space_group_name_H-M   'P 1'
_cell_length_a   4.59149790
_cell_length_b   8.04725361
_cell_length_c   11.78395367
_cell_angle_alpha   90.00000000
_cell_angle_beta   90.00000000
_cell_angle_gamma   106.57579803
_symmetry_Int_Tables_number   1
_chemical_formula_structural   KYbI3
_chemical_formula_sum   'K2 Yb2 I6'
_cell_volume   417.31065063
_cell_formula_units_Z   2
loop_
 _symmetry_equiv_pos_site_id
 _symmetry_equiv_pos_as_xyz
  1  'x, y, z'
loop_
 _atom_site_type_symbol
 _atom_site_label
 _atom_site_symmetry_multiplicity
 _atom_site_fract_x
 _atom_site_fract_y
 _atom_site_fract_z
 _atom_site_occupancy
  K  K0  1  0.75099101  0.50198199  0.75000002  1
  K  K1  1  0.24900900  0.49801799  0.25000001  1
  Yb  Yb2  1  0.00000000  0.00000000  0.00000000  1
  Yb  Yb3  1  0.00000000  0.00000000  0.50000001  1
  I  I4  1  0.36690700  0.73381398  0.94421503  1
  I  I5  1  0.63309301  0.26618599  0.05578500  1
  I  I6  1  0.63309301  0.26618599  0.44421501  1
  I  I7  1  0.36690700  0.73381398  0.55578502  1
  I  I8  1  0.07357200  0.14714400  0.75000002  1
  I  I9  1  0.92642801  0.85285598  0.25000001  1
