# generated using pymatgen
data_TiFe5(OF5)2
_symmetry_space_group_name_H-M   'P 1'
_cell_length_a   4.74426699
_cell_length_b   4.74426699
_cell_length_c   9.30729294
_cell_angle_alpha   90.00000000
_cell_angle_beta   90.00000000
_cell_angle_gamma   90.00000000
_symmetry_Int_Tables_number   1
_chemical_formula_structural   TiFe5(OF5)2
_chemical_formula_sum   'Ti1 Fe5 O2 F10'
_cell_volume   209.48919391
_cell_formula_units_Z   1
loop_
 _symmetry_equiv_pos_site_id
 _symmetry_equiv_pos_as_xyz
  1  'x, y, z'
loop_
 _atom_site_type_symbol
 _atom_site_label
 _atom_site_symmetry_multiplicity
 _atom_site_fract_x
 _atom_site_fract_y
 _atom_site_fract_z
 _atom_site_occupancy
  Fe  Fe0  1  0.00000000  0.00000000  0.66698200  1
  Ti  Ti1  1  0.50000000  0.50000000  0.16698200  1
  Fe  Fe2  1  0.00000000  0.00000000  0.33157600  1
  Fe  Fe3  1  0.50000000  0.50000000  0.83157601  1
  Fe  Fe4  1  0.00000000  0.00000000  0.00355100  1
  Fe  Fe5  1  0.50000000  0.50000000  0.50355100  1
  O  O6  1  0.69983300  0.69983300  0.66784000  1
  F  F7  1  0.80016700  0.19983300  0.16784000  1
  F  F8  1  0.19983300  0.80016700  0.16784000  1
  O  O9  1  0.30016700  0.30016700  0.66784000  1
  F  F10  1  0.29761500  0.29761500  0.99686901  1
  F  F11  1  0.20238500  0.79761500  0.49686900  1
  F  F12  1  0.79761500  0.20238500  0.49686900  1
  F  F13  1  0.70238500  0.70238500  0.99686901  1
  F  F14  1  0.29775800  0.29775800  0.33778700  1
  F  F15  1  0.20224200  0.79775800  0.83778701  1
  F  F16  1  0.79775800  0.20224200  0.83778701  1
  F  F17  1  0.70224200  0.70224200  0.33778700  1
