# generated using pymatgen
data_Zr(MoO4)2
_symmetry_space_group_name_H-M   'P 1'
_cell_length_a   5.81148577
_cell_length_b   5.81148624
_cell_length_c   6.72350597
_cell_angle_alpha   90.00000000
_cell_angle_beta   90.00000000
_cell_angle_gamma   120.00000000
_symmetry_Int_Tables_number   1
_chemical_formula_structural   Zr(MoO4)2
_chemical_formula_sum   'Zr1 Mo2 O8'
_cell_volume   196.65311021
_cell_formula_units_Z   1
loop_
 _symmetry_equiv_pos_site_id
 _symmetry_equiv_pos_as_xyz
  1  'x, y, z'
loop_
 _atom_site_type_symbol
 _atom_site_label
 _atom_site_symmetry_multiplicity
 _atom_site_fract_x
 _atom_site_fract_y
 _atom_site_fract_z
 _atom_site_occupancy
  Zr  Zr0  1  0.00000000  0.00000000  0.00000000  1
  Mo  Mo1  1  0.66666671  0.33333335  0.73350400  1
  Mo  Mo2  1  0.33333338  0.66666670  0.26649600  1
  O  O3  1  0.33333338  0.66666670  0.52427200  1
  O  O4  1  0.66666671  0.33333335  0.47572800  1
  O  O5  1  0.18426902  0.33763302  0.17985300  1
  O  O6  1  0.84663604  0.18427001  0.82014700  1
  O  O7  1  0.33763402  0.15336501  0.82014700  1
  O  O8  1  0.81573106  0.66236704  0.82014700  1
  O  O9  1  0.15336405  0.81573004  0.17985300  1
  O  O10  1  0.66236607  0.84663505  0.17985300  1
