# generated using pymatgen
data_LiNiS
_symmetry_space_group_name_H-M   'P 1'
_cell_length_a   3.68600631
_cell_length_b   4.10850048
_cell_length_c   4.05472279
_cell_angle_alpha   60.43205643
_cell_angle_beta   90.00000000
_cell_angle_gamma   116.65280151
_symmetry_Int_Tables_number   1
_chemical_formula_structural   LiNiS
_chemical_formula_sum   'Li1 Ni1 S1'
_cell_volume   45.75670369
_cell_formula_units_Z   1
loop_
 _symmetry_equiv_pos_site_id
 _symmetry_equiv_pos_as_xyz
  1  'x, y, z'
loop_
 _atom_site_type_symbol
 _atom_site_label
 _atom_site_symmetry_multiplicity
 _atom_site_fract_x
 _atom_site_fract_y
 _atom_site_fract_z
 _atom_site_occupancy
  Li  Li0  1  0.70931200  0.41862404  0.90408699  1
  Ni  Ni1  1  0.29068802  0.58137605  0.32271098  1
  S  S2  1  0.00000000  0.00000000  0.94160201  1
