# generated using pymatgen
data_Na(AgCl2)3
_symmetry_space_group_name_H-M   'P 1'
_cell_length_a   6.99658537
_cell_length_b   6.99658537
_cell_length_c   7.38330841
_cell_angle_alpha   61.71804428
_cell_angle_beta   61.71804428
_cell_angle_gamma   60.00000763
_symmetry_Int_Tables_number   1
_chemical_formula_structural   Na(AgCl2)3
_chemical_formula_sum   'Na1 Ag3 Cl6'
_cell_volume   262.00586224
_cell_formula_units_Z   1
loop_
 _symmetry_equiv_pos_site_id
 _symmetry_equiv_pos_as_xyz
  1  'x, y, z'
loop_
 _atom_site_type_symbol
 _atom_site_label
 _atom_site_symmetry_multiplicity
 _atom_site_fract_x
 _atom_site_fract_y
 _atom_site_fract_z
 _atom_site_occupancy
  Na  Na0  1  0.00000000  0.00000000  0.00000000  1
  Ag  Ag1  1  0.20749599  0.20749599  0.37751202  1
  Ag  Ag2  1  0.49999998  0.49999999  0.50000003  1
  Ag  Ag3  1  0.79250397  0.79250398  0.62248805  1
  Cl  Cl4  1  0.38265998  0.77016098  0.74416804  1
  Cl  Cl5  1  0.77016098  0.10301100  0.74416804  1
  Cl  Cl6  1  0.10301099  0.38265999  0.74416803  1
  Cl  Cl7  1  0.89698897  0.61733998  0.25583204  1
  Cl  Cl8  1  0.22983899  0.89698898  0.25583203  1
  Cl  Cl9  1  0.61733998  0.22983899  0.25583202  1
