# generated using pymatgen
data_NaLiF3
_symmetry_space_group_name_H-M   'P 1'
_cell_length_a   5.89105606
_cell_length_b   5.89105606
_cell_length_c   5.89105606
_cell_angle_alpha   60.00000000
_cell_angle_beta   60.00000000
_cell_angle_gamma   60.00000000
_symmetry_Int_Tables_number   1
_chemical_formula_structural   NaLiF3
_chemical_formula_sum   'Na2 Li2 F6'
_cell_volume   144.56543555
_cell_formula_units_Z   2
loop_
 _symmetry_equiv_pos_site_id
 _symmetry_equiv_pos_as_xyz
  1  'x, y, z'
loop_
 _atom_site_type_symbol
 _atom_site_label
 _atom_site_symmetry_multiplicity
 _atom_site_fract_x
 _atom_site_fract_y
 _atom_site_fract_z
 _atom_site_occupancy
  Na  Na0  1  0.24999999  0.24999999  0.24999999  1
  Na  Na1  1  0.74999998  0.74999998  0.74999998  1
  Li  Li2  1  0.00000000  0.00000000  0.00000000  1
  Li  Li3  1  0.49999999  0.49999999  0.49999999  1
  F  F4  1  0.24804145  0.75195852  0.24804145  1
  F  F5  1  0.75195852  0.24804145  0.75195852  1
  F  F6  1  0.75195852  0.24804145  0.24804145  1
  F  F7  1  0.24804145  0.75195852  0.75195852  1
  F  F8  1  0.75195852  0.75195852  0.24804145  1
  F  F9  1  0.24804145  0.24804145  0.75195852  1
