# generated using pymatgen
data_Li3Mn5F12
_symmetry_space_group_name_H-M   'P 1'
_cell_length_a   5.17812109
_cell_length_b   5.34144783
_cell_length_c   8.96091080
_cell_angle_alpha   90.00000000
_cell_angle_beta   90.00000000
_cell_angle_gamma   90.00000000
_symmetry_Int_Tables_number   1
_chemical_formula_structural   Li3Mn5F12
_chemical_formula_sum   'Li3 Mn5 F12'
_cell_volume   247.84681783
_cell_formula_units_Z   1
loop_
 _symmetry_equiv_pos_site_id
 _symmetry_equiv_pos_as_xyz
  1  'x, y, z'
loop_
 _atom_site_type_symbol
 _atom_site_label
 _atom_site_symmetry_multiplicity
 _atom_site_fract_x
 _atom_site_fract_y
 _atom_site_fract_z
 _atom_site_occupancy
  Mn  Mn0  1  0.00000000  0.00000000  0.31235001  1
  Li  Li1  1  0.49999999  0.00000000  0.17390900  1
  Li  Li2  1  0.00000000  0.50000002  0.67390902  1
  Li  Li3  1  0.49999999  0.50000002  0.81235002  1
  Mn  Mn4  1  0.00000000  0.00000000  0.89779702  1
  Mn  Mn5  1  0.49999999  0.00000000  0.58822601  1
  Mn  Mn6  1  0.00000000  0.50000002  0.08822600  1
  Mn  Mn7  1  0.49999999  0.50000002  0.39779701  1
  F  F8  1  0.28935899  0.17291301  0.73301602  1
  F  F9  1  0.29492199  0.15372200  0.42450801  1
  F  F10  1  0.20788100  0.18710301  0.07106500  1
  F  F11  1  0.70788099  0.31289701  0.57106501  1
  F  F12  1  0.79492199  0.34627801  0.92450802  1
  F  F13  1  0.78935899  0.32708701  0.23301601  1
  F  F14  1  0.21064100  0.67291302  0.23301601  1
  F  F15  1  0.20507800  0.65372202  0.92450802  1
  F  F16  1  0.29211899  0.68710302  0.57106501  1
  F  F17  1  0.79211899  0.81289703  0.07106500  1
  F  F18  1  0.70507799  0.84627803  0.42450801  1
  F  F19  1  0.71064099  0.82708703  0.73301602  1
