# generated using pymatgen
data_LiMn2O6
_symmetry_space_group_name_H-M   'P 1'
_cell_length_a   3.84684610
_cell_length_b   5.34027100
_cell_length_c   6.65211868
_cell_angle_alpha   71.58637238
_cell_angle_beta   73.19326019
_cell_angle_gamma   68.88916016
_symmetry_Int_Tables_number   1
_chemical_formula_structural   LiMn2O6
_chemical_formula_sum   'Li1 Mn2 O6'
_cell_volume   118.55910009
_cell_formula_units_Z   1
loop_
 _symmetry_equiv_pos_site_id
 _symmetry_equiv_pos_as_xyz
  1  'x, y, z'
loop_
 _atom_site_type_symbol
 _atom_site_label
 _atom_site_symmetry_multiplicity
 _atom_site_fract_x
 _atom_site_fract_y
 _atom_site_fract_z
 _atom_site_occupancy
  Li  Li0  1  0.00000000  0.00000000  0.00000000  1
  Mn  Mn1  1  0.17670199  0.25395401  0.39264200  1
  Mn  Mn2  1  0.82329795  0.74604602  0.60735800  1
  O  O3  1  0.72180297  0.15206300  0.40433101  1
  O  O4  1  0.27819697  0.84793702  0.59566900  1
  O  O5  1  0.34573598  0.19962001  0.10890800  1
  O  O6  1  0.97502996  0.36018701  0.68975301  1
  O  O7  1  0.02496998  0.63981302  0.31024699  1
  O  O8  1  0.65426396  0.80038002  0.89109200  1
