# generated using pymatgen
data_Na3V(BiO4)2
_symmetry_space_group_name_H-M   'P 1'
_cell_length_a   5.92088795
_cell_length_b   5.92088842
_cell_length_c   7.17047215
_cell_angle_alpha   90.00000000
_cell_angle_beta   90.00000000
_cell_angle_gamma   120.00000000
_symmetry_Int_Tables_number   1
_chemical_formula_structural   Na3V(BiO4)2
_chemical_formula_sum   'Na3 V1 Bi2 O8'
_cell_volume   217.69682944
_cell_formula_units_Z   1
loop_
 _symmetry_equiv_pos_site_id
 _symmetry_equiv_pos_as_xyz
  1  'x, y, z'
loop_
 _atom_site_type_symbol
 _atom_site_label
 _atom_site_symmetry_multiplicity
 _atom_site_fract_x
 _atom_site_fract_y
 _atom_site_fract_z
 _atom_site_occupancy
  Na  Na0  1  0.66666669  0.33333335  0.31950499  1
  Na  Na1  1  0.33333337  0.66666669  0.68049499  1
  Na  Na2  1  0.00000000  0.00000000  0.00000000  1
  Bi  Bi3  1  0.00000000  0.00000000  0.49999999  1
  V  V4  1  0.66666669  0.33333335  0.78099098  1
  Bi  Bi5  1  0.33333337  0.66666669  0.21900900  1
  O  O6  1  0.66666669  0.33333335  0.01495500  1
  O  O7  1  0.33333337  0.66666669  0.98504498  1
  O  O8  1  0.82665604  0.65331203  0.69173199  1
  O  O9  1  0.17334402  0.34668801  0.30826799  1
  O  O10  1  0.82665602  0.17334401  0.69173199  1
  O  O11  1  0.17334405  0.82665603  0.30826799  1
  O  O12  1  0.34668801  0.17334401  0.69173199  1
  O  O13  1  0.65331205  0.82665603  0.30826799  1
