# generated using pymatgen
data_LiYCl6
_symmetry_space_group_name_H-M   'P 1'
_cell_length_a   6.36734915
_cell_length_b   6.36734915
_cell_length_c   6.36734915
_cell_angle_alpha   90.00000000
_cell_angle_beta   90.00000000
_cell_angle_gamma   90.00000000
_symmetry_Int_Tables_number   1
_chemical_formula_structural   LiYCl6
_chemical_formula_sum   'Li2 Y2 Cl12'
_cell_volume   258.15229717
_cell_formula_units_Z   2
loop_
 _symmetry_equiv_pos_site_id
 _symmetry_equiv_pos_as_xyz
  1  'x, y, z'
loop_
 _atom_site_type_symbol
 _atom_site_label
 _atom_site_symmetry_multiplicity
 _atom_site_fract_x
 _atom_site_fract_y
 _atom_site_fract_z
 _atom_site_occupancy
  Li  Li0  1  0.49999999  0.49999999  0.49999999  1
  Li  Li1  1  0.49999999  0.49999999  -0.00000000  1
  Y  Y2  1  0.49999999  0.00000000  0.49999999  1
  Y  Y3  1  0.00000000  0.49999999  0.49999999  1
  Cl  Cl4  1  0.27201299  0.27201299  0.72798698  1
  Cl  Cl5  1  0.27201299  0.72798698  0.27201299  1
  Cl  Cl6  1  0.72798698  0.27201299  0.27201299  1
  Cl  Cl7  1  0.72798698  0.72798698  0.72798698  1
  Cl  Cl8  1  0.00000000  0.00000000  0.00000000  1
  Cl  Cl9  1  0.00000000  0.00000000  0.49999999  1
  Cl  Cl10  1  0.00000000  0.49999999  -0.00000000  1
  Cl  Cl11  1  0.49999999  0.00000000  -0.00000000  1
  Cl  Cl12  1  0.74749598  0.74749598  0.25250399  1
  Cl  Cl13  1  0.74749598  0.25250399  0.74749598  1
  Cl  Cl14  1  0.25250399  0.74749598  0.74749598  1
  Cl  Cl15  1  0.25250399  0.25250399  0.25250399  1
