# generated using pymatgen
data_Te3W2Se
_symmetry_space_group_name_H-M   'P 1'
_cell_length_a   3.49799609
_cell_length_b   3.49799562
_cell_length_c   39.67631912
_cell_angle_alpha   90.00000000
_cell_angle_beta   90.00000000
_cell_angle_gamma   120.00000000
_symmetry_Int_Tables_number   1
_chemical_formula_structural   Te3W2Se
_chemical_formula_sum   'Te6 W4 Se2'
_cell_volume   420.43666939
_cell_formula_units_Z   2
loop_
 _symmetry_equiv_pos_site_id
 _symmetry_equiv_pos_as_xyz
  1  'x, y, z'
loop_
 _atom_site_type_symbol
 _atom_site_label
 _atom_site_symmetry_multiplicity
 _atom_site_fract_x
 _atom_site_fract_y
 _atom_site_fract_z
 _atom_site_occupancy
  Te  Te0  1  0.00000000  0.00000000  0.67176101  1
  Te  Te1  1  0.66666663  0.33333333  0.95224802  1
  Te  Te2  1  0.66666663  0.33333333  0.57677601  1
  Te  Te3  1  0.66666663  0.33333333  0.85990602  1
  Te  Te4  1  0.66666663  0.33333333  0.48388001  1
  Te  Te5  1  0.00000000  0.00000000  0.76465702  1
  W  W6  1  0.00000000  0.00000000  0.90609702  1
  W  W7  1  0.00000000  0.00000000  0.53031501  1
  W  W8  1  0.66666663  0.33333333  0.71820202  1
  W  W9  1  0.66666663  0.33333333  0.34245701  1
  Se  Se10  1  0.00000000  0.00000000  0.30156701  1
  Se  Se11  1  0.00000000  0.00000000  0.38338601  1
