# generated using pymatgen
data_Mg3N2
_symmetry_space_group_name_H-M   'P 1'
_cell_length_a   3.65583396
_cell_length_b   3.65583396
_cell_length_c   5.85859013
_cell_angle_alpha   90.00000000
_cell_angle_beta   90.00000000
_cell_angle_gamma   120.00000000
_symmetry_Int_Tables_number   1
_chemical_formula_structural   Mg3N2
_chemical_formula_sum   'Mg3 N2'
_cell_volume   67.81045720
_cell_formula_units_Z   1
loop_
 _symmetry_equiv_pos_site_id
 _symmetry_equiv_pos_as_xyz
  1  'x, y, z'
loop_
 _atom_site_type_symbol
 _atom_site_label
 _atom_site_symmetry_multiplicity
 _atom_site_fract_x
 _atom_site_fract_y
 _atom_site_fract_z
 _atom_site_occupancy
  Mg  Mg0  1  0.33333332  0.66666665  0.25009899  1
  Mg  Mg1  1  0.66666667  0.33333332  0.74990098  1
  Mg  Mg2  1  0.33333332  0.66666665  0.64552199  1
  N  N3  1  0.66666667  0.33333332  0.35447799  1
  N  N4  1  0.00000000  0.00000000  0.00000000  1
