# generated using pymatgen
data_CaN
_symmetry_space_group_name_H-M   'P 1'
_cell_length_a   3.69009662
_cell_length_b   3.69009662
_cell_length_c   6.44268847
_cell_angle_alpha   73.35871887
_cell_angle_beta   73.35871887
_cell_angle_gamma   59.99998856
_symmetry_Int_Tables_number   1
_chemical_formula_structural   CaN
_chemical_formula_sum   'Ca2 N2'
_cell_volume   71.70123433
_cell_formula_units_Z   2
loop_
 _symmetry_equiv_pos_site_id
 _symmetry_equiv_pos_as_xyz
  1  'x, y, z'
loop_
 _atom_site_type_symbol
 _atom_site_label
 _atom_site_symmetry_multiplicity
 _atom_site_fract_x
 _atom_site_fract_y
 _atom_site_fract_z
 _atom_site_occupancy
  Ca  Ca0  1  0.00000000  0.00000000  0.00000000  1
  Ca  Ca1  1  0.50000001  0.50000000  0.50000003  1
  N  N2  1  0.75315901  0.75315901  0.74052304  1
  N  N3  1  0.24684100  0.24684100  0.25947701  1
