# generated using pymatgen
data_CuI
_symmetry_space_group_name_H-M   'P 1'
_cell_length_a   4.16776419
_cell_length_b   4.16776466
_cell_length_c   22.37240601
_cell_angle_alpha   90.00000000
_cell_angle_beta   90.00000000
_cell_angle_gamma   120.00000000
_symmetry_Int_Tables_number   1
_chemical_formula_structural   CuI
_chemical_formula_sum   'Cu6 I6'
_cell_volume   336.55004310
_cell_formula_units_Z   6
loop_
 _symmetry_equiv_pos_site_id
 _symmetry_equiv_pos_as_xyz
  1  'x, y, z'
loop_
 _atom_site_type_symbol
 _atom_site_label
 _atom_site_symmetry_multiplicity
 _atom_site_fract_x
 _atom_site_fract_y
 _atom_site_fract_z
 _atom_site_occupancy
  Cu  Cu0  1  0.00000000  0.00000000  0.21814500  1
  Cu  Cu1  1  0.66666666  0.33333333  0.94870200  1
  Cu  Cu2  1  0.00000000  0.00000000  0.55139000  1
  Cu  Cu3  1  0.00000000  0.00000000  0.88494800  1
  Cu  Cu4  1  0.33333336  0.66666665  0.28186400  1
  Cu  Cu5  1  0.66666666  0.33333333  0.61503700  1
  I  I6  1  0.00000000  0.00000000  0.66825900  1
  I  I7  1  0.00000000  0.00000000  0.33501600  1
  I  I8  1  0.66666666  0.33333333  0.83177400  1
  I  I9  1  0.66666666  0.33333333  0.49814400  1
  I  I10  1  0.33333336  0.66666665  0.16492700  1
  I  I11  1  0.00000000  0.00000000  0.00182400  1
