# generated using pymatgen
data_In2CuSe3
_symmetry_space_group_name_H-M   'P 1'
_cell_length_a   4.06472206
_cell_length_b   7.44285965
_cell_length_c   14.05125904
_cell_angle_alpha   79.85710144
_cell_angle_beta   81.68362427
_cell_angle_gamma   74.15345764
_symmetry_Int_Tables_number   1
_chemical_formula_structural   In2CuSe3
_chemical_formula_sum   'In6 Cu3 Se9'
_cell_volume   400.45089591
_cell_formula_units_Z   3
loop_
 _symmetry_equiv_pos_site_id
 _symmetry_equiv_pos_as_xyz
  1  'x, y, z'
loop_
 _atom_site_type_symbol
 _atom_site_label
 _atom_site_symmetry_multiplicity
 _atom_site_fract_x
 _atom_site_fract_y
 _atom_site_fract_z
 _atom_site_occupancy
  In  In0  1  0.03537203  0.33656700  0.59268900  1
  In  In1  1  0.33632703  0.50158200  0.82576401  1
  In  In2  1  0.20010003  0.38986700  0.20993301  1
  In  In3  1  0.00854008  0.97318701  0.00973303  1
  In  In4  1  0.35875706  0.86715500  0.41533103  1
  In  In5  1  0.72774803  0.52769300  0.01681103  1
  Cu  Cu6  1  0.65153501  0.29578000  0.40115002  1
  Cu  Cu7  1  0.98297904  0.79344900  0.24059304  1
  Cu  Cu8  1  0.78359805  0.76098200  0.67182203  1
  Se  Se9  1  0.58814899  0.07511300  0.74858900  1
  Se  Se10  1  0.57784204  0.67894800  0.16536803  1
  Se  Se11  1  0.32541902  0.33236600  0.01679602  1
  Se  Se12  1  0.69445005  0.75806800  0.85303203  1
  Se  Se13  1  0.80833199  0.12544100  0.25789501  1
  Se  Se14  1  0.05321504  0.49685000  0.39672001  1
  Se  Se15  1  0.67698699  0.07925800  0.56676801  1
  Se  Se16  1  0.38678904  0.60356900  0.62285302  1
  Se  Se17  1  0.98592200  0.23283400  0.79532201  1
