# generated using pymatgen
data_Rb2UAuF6
_symmetry_space_group_name_H-M   'P 1'
_cell_length_a   6.93192673
_cell_length_b   7.14940691
_cell_length_c   7.24826097
_cell_angle_alpha   94.87657928
_cell_angle_beta   100.19844818
_cell_angle_gamma   108.30326843
_symmetry_Int_Tables_number   1
_chemical_formula_structural   Rb2UAuF6
_chemical_formula_sum   'Rb2 U1 Au1 F6'
_cell_volume   331.83335994
_cell_formula_units_Z   1
loop_
 _symmetry_equiv_pos_site_id
 _symmetry_equiv_pos_as_xyz
  1  'x, y, z'
loop_
 _atom_site_type_symbol
 _atom_site_label
 _atom_site_symmetry_multiplicity
 _atom_site_fract_x
 _atom_site_fract_y
 _atom_site_fract_z
 _atom_site_occupancy
  U  U0  1  0.00000000  0.00000000  0.49999999  1
  Rb  Rb1  1  0.00000001  0.50000001  -0.00000002  1
  Rb  Rb2  1  0.50000001  1.00000003  0.99999996  1
  Au  Au3  1  0.00000000  0.00000000  0.00000000  1
  F  F4  1  0.81412800  0.08031900  0.79279902  1
  F  F5  1  0.18587201  0.91968102  0.20720097  1
  F  F6  1  0.06501901  0.81267402  0.80678695  1
  F  F7  1  0.93498100  0.18732600  0.19321304  1
  F  F8  1  0.76059201  0.77105802  0.04410601  1
  F  F9  1  0.23940800  0.22894201  0.95589398  1
