# generated using pymatgen
data_Y3LuO8
_symmetry_space_group_name_H-M   'P 1'
_cell_length_a   5.28161812
_cell_length_b   5.67722368
_cell_length_c   6.80898380
_cell_angle_alpha   106.59970093
_cell_angle_beta   112.82028198
_cell_angle_gamma   90.00000000
_symmetry_Int_Tables_number   1
_chemical_formula_structural   Y3LuO8
_chemical_formula_sum   'Y3 Lu1 O8'
_cell_volume   178.91866336
_cell_formula_units_Z   1
loop_
 _symmetry_equiv_pos_site_id
 _symmetry_equiv_pos_as_xyz
  1  'x, y, z'
loop_
 _atom_site_type_symbol
 _atom_site_label
 _atom_site_symmetry_multiplicity
 _atom_site_fract_x
 _atom_site_fract_y
 _atom_site_fract_z
 _atom_site_occupancy
  Y  Y0  1  0.27089401  0.75000002  0.00000002  1
  Y  Y1  1  0.72910600  0.25000001  1.00000004  1
  Y  Y2  1  0.00000000  0.00000000  0.50000001  1
  Lu  Lu3  1  0.50000001  0.50000001  0.50000003  1
  O  O4  1  0.67867501  0.97831603  0.18535704  1
  O  O5  1  0.88510600  0.34987701  0.64868604  1
  O  O6  1  0.11489401  0.65012302  0.35131402  1
  O  O7  1  0.23642000  0.15012300  0.35131401  1
  O  O8  1  0.76358001  0.84987702  0.64868605  1
  O  O9  1  0.50668200  0.47831601  0.18535703  1
  O  O10  1  0.49331801  0.52168401  0.81464303  1
  O  O11  1  0.32132500  0.02168400  0.81464302  1
