# generated using pymatgen
data_SnPb4O5F4
_symmetry_space_group_name_H-M   'P 1'
_cell_length_a   5.06804800
_cell_length_b   7.44288540
_cell_length_c   7.44288540
_cell_angle_alpha   106.35305786
_cell_angle_beta   104.63755035
_cell_angle_gamma   104.63755035
_symmetry_Int_Tables_number   1
_chemical_formula_structural   SnPb4O5F4
_chemical_formula_sum   'Sn1 Pb4 O5 F4'
_cell_volume   244.27852512
_cell_formula_units_Z   1
loop_
 _symmetry_equiv_pos_site_id
 _symmetry_equiv_pos_as_xyz
  1  'x, y, z'
loop_
 _atom_site_type_symbol
 _atom_site_label
 _atom_site_symmetry_multiplicity
 _atom_site_fract_x
 _atom_site_fract_y
 _atom_site_fract_z
 _atom_site_occupancy
  Pb  Pb0  1  0.52404502  0.24284200  0.47175200  1
  Sn  Sn1  1  0.97595504  0.52824800  0.75715800  1
  Pb  Pb2  1  0.47595502  0.75715800  0.52824799  1
  Pb  Pb3  1  0.02404500  0.47175200  0.24284199  1
  Pb  Pb4  1  0.75000003  0.90615500  0.09384499  1
  O  O5  1  0.25000001  0.09384500  0.90615500  1
  O  O6  1  0.70303703  0.95229800  0.33314099  1
  O  O7  1  0.79696303  0.66685900  0.04770199  1
  O  O8  1  0.29696301  0.04770200  0.66685900  1
  O  O9  1  0.20303701  0.33314100  0.95229800  1
  F  F10  1  0.15298301  0.08494300  0.18046800  1
  F  F11  1  0.34701701  0.81953200  0.91505699  1
  F  F12  1  0.65298302  0.18046800  0.08494300  1
  F  F13  1  0.84701703  0.91505700  0.81953199  1
