# generated using pymatgen
data_Zn4GaO6
_symmetry_space_group_name_H-M   'P 1'
_cell_length_a   3.33697724
_cell_length_b   3.33697724
_cell_length_c   14.17307472
_cell_angle_alpha   83.23932648
_cell_angle_beta   83.23932648
_cell_angle_gamma   60.00001526
_symmetry_Int_Tables_number   1
_chemical_formula_structural   Zn4GaO6
_chemical_formula_sum   'Zn4 Ga1 O6'
_cell_volume   135.41016448
_cell_formula_units_Z   1
loop_
 _symmetry_equiv_pos_site_id
 _symmetry_equiv_pos_as_xyz
  1  'x, y, z'
loop_
 _atom_site_type_symbol
 _atom_site_label
 _atom_site_symmetry_multiplicity
 _atom_site_fract_x
 _atom_site_fract_y
 _atom_site_fract_z
 _atom_site_occupancy
  Zn  Zn0  1  0.26096999  0.26097000  0.21708999  1
  Zn  Zn1  1  0.74111497  0.74111499  0.77665498  1
  Zn  Zn2  1  0.86572697  0.86572699  0.40281898  1
  Zn  Zn3  1  0.00089600  0.00089600  0.99731200  1
  Ga  Ga4  1  0.13717300  0.13717300  0.58848100  1
  O  O5  1  0.91320497  0.91320499  0.26038498  1
  O  O6  1  0.08975200  0.08975200  0.73074400  1
  O  O7  1  0.18472099  0.18472100  0.44583700  1
  O  O8  1  0.80426797  0.80426799  0.58719598  1
  O  O9  1  0.69389598  0.69389599  0.91831198  1
  O  O10  1  0.30827899  0.30827900  0.07516299  1
