# generated using pymatgen
data_K(TeO3)2
_symmetry_space_group_name_H-M   'P 1'
_cell_length_a   7.31221008
_cell_length_b   7.38258934
_cell_length_c   7.38258934
_cell_angle_alpha   60.31835938
_cell_angle_beta   60.31485748
_cell_angle_gamma   60.31485748
_symmetry_Int_Tables_number   1
_chemical_formula_structural   K(TeO3)2
_chemical_formula_sum   'K2 Te4 O12'
_cell_volume   283.82165240
_cell_formula_units_Z   2
loop_
 _symmetry_equiv_pos_site_id
 _symmetry_equiv_pos_as_xyz
  1  'x, y, z'
loop_
 _atom_site_type_symbol
 _atom_site_label
 _atom_site_symmetry_multiplicity
 _atom_site_fract_x
 _atom_site_fract_y
 _atom_site_fract_z
 _atom_site_occupancy
  K  K0  1  0.40215100  0.40440800  0.29129000  1
  K  K1  1  0.59784900  0.70871001  0.59559200  1
  Te  Te2  1  0.00000000  0.00095300  0.99904701  1
  Te  Te3  1  0.49999999  0.00095300  0.99904702  1
  Te  Te4  1  0.99813798  0.00521800  0.49850602  1
  Te  Te5  1  0.00186201  0.50149401  0.99478199  1
  O  O6  1  0.94190699  0.30855400  0.30763201  1
  O  O7  1  0.32512601  0.92218901  0.92755899  1
  O  O8  1  0.31107700  0.31962800  0.93652700  1
  O  O9  1  0.93425300  0.93403501  0.31978000  1
  O  O10  1  0.93276699  0.31962800  0.93652702  1
  O  O11  1  0.31193201  0.93403501  0.31977998  1
  O  O12  1  0.05809301  0.69236801  0.69144599  1
  O  O13  1  0.67487399  0.07244100  0.07781101  1
  O  O14  1  0.68806800  0.68022001  0.06596500  1
  O  O15  1  0.06723200  0.06347400  0.68037201  1
  O  O16  1  0.06574701  0.68022001  0.06596498  1
  O  O17  1  0.68892199  0.06347400  0.68037202  1
