# generated using pymatgen
data_Sr3Ca5(BrCl)5
_symmetry_space_group_name_H-M   'P 1'
_cell_length_a   4.46104622
_cell_length_b   6.87577391
_cell_length_c   16.77995682
_cell_angle_alpha   90.00000000
_cell_angle_beta   90.00000000
_cell_angle_gamma   90.00000000
_symmetry_Int_Tables_number   1
_chemical_formula_structural   Sr3Ca5(BrCl)5
_chemical_formula_sum   'Sr3 Ca5 Br5 Cl5'
_cell_volume   514.69405172
_cell_formula_units_Z   1
loop_
 _symmetry_equiv_pos_site_id
 _symmetry_equiv_pos_as_xyz
  1  'x, y, z'
loop_
 _atom_site_type_symbol
 _atom_site_label
 _atom_site_symmetry_multiplicity
 _atom_site_fract_x
 _atom_site_fract_y
 _atom_site_fract_z
 _atom_site_occupancy
  Ca  Ca0  1  0.00000000  0.27567400  0.80363001  1
  Ca  Ca1  1  0.49999998  0.77567401  0.69637001  1
  Sr  Sr2  1  0.00000000  0.72432601  0.19637000  1
  Sr  Sr3  1  0.49999998  0.22432600  0.30363000  1
  Ca  Ca4  1  0.00000000  0.00000000  0.00000000  1
  Ca  Ca5  1  0.49999998  0.50000001  0.50000001  1
  Sr  Sr6  1  0.00000000  0.85993501  0.41170800  1
  Ca  Ca7  1  0.49999998  0.35993500  0.08829200  1
  Br  Br8  1  0.00000000  0.14006500  0.58829201  1
  Br  Br9  1  0.49999998  0.64006501  0.91170801  1
  Br  Br10  1  0.49999998  0.24022100  0.92890601  1
  Cl  Cl11  1  0.49999998  0.75977901  0.07109400  1
  Cl  Cl12  1  0.00000000  0.22849100  0.17265800  1
  Cl  Cl13  1  0.00000000  0.25977900  0.42890600  1
  Cl  Cl14  1  0.49999998  0.72849101  0.32734200  1
  Br  Br15  1  0.00000000  0.77150901  0.82734201  1
  Cl  Cl16  1  0.00000000  0.74022101  0.57109401  1
  Br  Br17  1  0.49999998  0.27150900  0.67265801  1
