# generated using pymatgen
data_CrO
_symmetry_space_group_name_H-M   'P 1'
_cell_length_a   3.09771967
_cell_length_b   6.09560537
_cell_length_c   6.11435223
_cell_angle_alpha   62.41891861
_cell_angle_beta   83.24314880
_cell_angle_gamma   80.21312714
_symmetry_Int_Tables_number   1
_chemical_formula_structural   CrO
_chemical_formula_sum   'Cr4 O4'
_cell_volume   100.74390009
_cell_formula_units_Z   4
loop_
 _symmetry_equiv_pos_site_id
 _symmetry_equiv_pos_as_xyz
  1  'x, y, z'
loop_
 _atom_site_type_symbol
 _atom_site_label
 _atom_site_symmetry_multiplicity
 _atom_site_fract_x
 _atom_site_fract_y
 _atom_site_fract_z
 _atom_site_occupancy
  Cr  Cr0  1  0.09995497  0.50030199  0.89990803  1
  Cr  Cr1  1  0.59960900  0.00003600  0.39989902  1
  Cr  Cr2  1  0.09995400  0.00032300  0.89989701  1
  Cr  Cr3  1  0.59960996  0.50004799  0.39988504  1
  O  O4  1  0.58495897  0.36749599  0.14756503  1
  O  O5  1  0.58492894  0.86751397  0.14755805  1
  O  O6  1  0.61540999  0.13220200  0.65263403  1
  O  O7  1  0.61536895  0.63218298  0.65265305  1
