# generated using pymatgen
data_Ag2S
_symmetry_space_group_name_H-M   'P 1'
_cell_length_a   4.43162298
_cell_length_b   7.00321007
_cell_length_c   7.30391407
_cell_angle_alpha   90.00000000
_cell_angle_beta   90.00000000
_cell_angle_gamma   90.00000000
_symmetry_Int_Tables_number   1
_chemical_formula_structural   Ag2S
_chemical_formula_sum   'Ag8 S4'
_cell_volume   226.68125826
_cell_formula_units_Z   4
loop_
 _symmetry_equiv_pos_site_id
 _symmetry_equiv_pos_as_xyz
  1  'x, y, z'
loop_
 _atom_site_type_symbol
 _atom_site_label
 _atom_site_symmetry_multiplicity
 _atom_site_fract_x
 _atom_site_fract_y
 _atom_site_fract_z
 _atom_site_occupancy
  Ag  Ag0  1  0.00408500  0.77591499  0.64515999  1
  Ag  Ag1  1  0.49591500  0.22408500  0.14516000  1
  Ag  Ag2  1  0.99591500  0.27591500  0.85483999  1
  Ag  Ag3  1  0.50408500  0.72408499  0.35484000  1
  Ag  Ag4  1  0.86183100  0.88861899  0.04337600  1
  Ag  Ag5  1  0.63816900  0.11138100  0.54337599  1
  Ag  Ag6  1  0.13816900  0.38861900  0.45662400  1
  Ag  Ag7  1  0.36183100  0.61138099  0.95662399  1
  S  S8  1  0.12150700  0.00177000  0.35069900  1
  S  S9  1  0.37849300  0.99822999  0.85069899  1
  S  S10  1  0.87849300  0.50177000  0.14930100  1
  S  S11  1  0.62150700  0.49823000  0.64930099  1
