# generated using pymatgen
data_Na4Zr3ScHOsN10
_symmetry_space_group_name_H-M   'P 1'
_cell_length_a   5.80646801
_cell_length_b   6.06443214
_cell_length_c   8.41649342
_cell_angle_alpha   90.00000000
_cell_angle_beta   89.97135925
_cell_angle_gamma   90.00000000
_symmetry_Int_Tables_number   1
_chemical_formula_structural   Na4Zr3ScHOsN10
_chemical_formula_sum   'Na4 Zr3 Sc1 H1 Os1 N10'
_cell_volume   296.36936694
_cell_formula_units_Z   1
loop_
 _symmetry_equiv_pos_site_id
 _symmetry_equiv_pos_as_xyz
  1  'x, y, z'
loop_
 _atom_site_type_symbol
 _atom_site_label
 _atom_site_symmetry_multiplicity
 _atom_site_fract_x
 _atom_site_fract_y
 _atom_site_fract_z
 _atom_site_occupancy
  Na  Na0  1  0.98619700  0.94080098  0.75072995  1
  Na  Na1  1  0.51380300  0.44080099  0.74926996  1
  Na  Na2  1  0.48619700  0.55919899  0.25072998  1
  Na  Na3  1  0.01380300  0.05919900  0.24926999  1
  Sc  Sc4  1  0.00000000  0.49999999  0.49999998  1
  Zr  Zr5  1  0.00000000  0.49999999  -0.00000000  1
  Zr  Zr6  1  0.50000000  0.99999998  0.49999997  1
  Zr  Zr7  1  0.50000000  0.99999998  0.99999995  1
  H  H8  1  0.86718000  0.43375399  0.23764298  1
  N  N9  1  0.82995500  0.19907900  0.92952595  1
  N  N10  1  0.80297700  0.17941200  0.56783596  1
  N  N11  1  0.69702300  0.67941198  0.93216395  1
  N  N12  1  0.67004500  0.69907898  0.57047396  1
  N  N13  1  0.63282000  0.93375398  0.26235698  1
  N  N14  1  0.36718000  0.06624600  0.73764296  1
  N  N15  1  0.32995500  0.30092099  0.42952598  1
  N  N16  1  0.30297700  0.32058799  0.06783599  1
  N  N17  1  0.19702300  0.82058798  0.43216398  1
  N  N18  1  0.17004500  0.80092098  0.07047399  1
  Os  Os19  1  0.13282000  0.56624599  0.76235696  1
