# generated using pymatgen
data_Mg4P5O
_symmetry_space_group_name_H-M   'P 1'
_cell_length_a   6.01913977
_cell_length_b   6.02067995
_cell_length_c   6.02740765
_cell_angle_alpha   60.24826050
_cell_angle_beta   60.04536438
_cell_angle_gamma   60.00846863
_symmetry_Int_Tables_number   1
_chemical_formula_structural   Mg4P5O
_chemical_formula_sum   'Mg4 P5 O1'
_cell_volume   154.80354365
_cell_formula_units_Z   1
loop_
 _symmetry_equiv_pos_site_id
 _symmetry_equiv_pos_as_xyz
  1  'x, y, z'
loop_
 _atom_site_type_symbol
 _atom_site_label
 _atom_site_symmetry_multiplicity
 _atom_site_fract_x
 _atom_site_fract_y
 _atom_site_fract_z
 _atom_site_occupancy
  Mg  Mg0  1  0.75026398  0.25151499  0.24795703  1
  Mg  Mg1  1  0.24973697  0.74848398  0.75204302  1
  Mg  Mg2  1  0.99999897  0.49999899  0.50000104  1
  Mg  Mg3  1  0.49999900  0.00000000  0.00000002  1
  P  P4  1  0.75210696  0.74977398  0.20618804  1
  P  P5  1  0.70806898  0.25022599  0.79381202  1
  P  P6  1  0.24789399  0.25022599  0.79381101  1
  P  P7  1  0.29192996  0.74977298  0.20619003  1
  P  P8  1  0.27128199  0.18596000  0.27147501  1
  O  O9  1  0.72871696  0.81404098  0.72852304  1
