# generated using pymatgen
data_V3Ni3(OF5)2
_symmetry_space_group_name_H-M   'P 1'
_cell_length_a   4.71915293
_cell_length_b   5.69472027
_cell_length_c   7.90528297
_cell_angle_alpha   87.35846710
_cell_angle_beta   88.53203583
_cell_angle_gamma   88.27782440
_symmetry_Int_Tables_number   1
_chemical_formula_structural   V3Ni3(OF5)2
_chemical_formula_sum   'V3 Ni3 O2 F10'
_cell_volume   212.06451149
_cell_formula_units_Z   1
loop_
 _symmetry_equiv_pos_site_id
 _symmetry_equiv_pos_as_xyz
  1  'x, y, z'
loop_
 _atom_site_type_symbol
 _atom_site_label
 _atom_site_symmetry_multiplicity
 _atom_site_fract_x
 _atom_site_fract_y
 _atom_site_fract_z
 _atom_site_occupancy
  Ni  Ni0  1  0.50000000  0.50000000  0.00000000  1
  Ni  Ni1  1  0.48429300  0.17968700  0.33699101  1
  V  V2  1  0.51570700  0.82031300  0.66300900  1
  V  V3  1  0.97140801  0.34958800  0.67683402  1
  V  V4  1  0.02859199  0.65041200  0.32316598  1
  Ni  Ni5  1  0.00000000  0.00000000  0.00000000  1
  O  O6  1  0.70119400  0.53137700  0.76998301  1
  O  O7  1  0.29880600  0.46862300  0.23001700  1
  F  F8  1  0.80630901  0.36951000  0.43605502  1
  F  F9  1  0.80588601  0.03606400  0.76399203  1
  F  F10  1  0.80436100  0.70408800  0.10505901  1
  F  F11  1  0.69536401  0.20091700  0.10353802  1
  F  F12  1  0.70570900  0.86419200  0.42712400  1
  F  F13  1  0.29429100  0.13580800  0.57287601  1
  F  F14  1  0.30463599  0.79908300  0.89646199  1
  F  F15  1  0.19411399  0.96393600  0.23600798  1
  F  F16  1  0.19563900  0.29591200  0.89494100  1
  F  F17  1  0.19369100  0.63049000  0.56394499  1
