# generated using pymatgen
data_MnCr2GaAs4
_symmetry_space_group_name_H-M   'P 1'
_cell_length_a   5.98764515
_cell_length_b   5.98764515
_cell_length_c   5.98764515
_cell_angle_alpha   90.00000000
_cell_angle_beta   90.00000000
_cell_angle_gamma   90.00000000
_symmetry_Int_Tables_number   1
_chemical_formula_structural   MnCr2GaAs4
_chemical_formula_sum   'Mn1 Cr2 Ga1 As4'
_cell_volume   214.66842179
_cell_formula_units_Z   1
loop_
 _symmetry_equiv_pos_site_id
 _symmetry_equiv_pos_as_xyz
  1  'x, y, z'
loop_
 _atom_site_type_symbol
 _atom_site_label
 _atom_site_symmetry_multiplicity
 _atom_site_fract_x
 _atom_site_fract_y
 _atom_site_fract_z
 _atom_site_occupancy
  Mn  Mn0  1  0.00000000  0.00000000  0.00000000  1
  Cr  Cr1  1  0.00000000  0.49999999  -0.00000000  1
  Cr  Cr2  1  0.49999999  0.00000000  -0.00000000  1
  Ga  Ga3  1  0.00000000  0.00000000  0.49999999  1
  As  As4  1  0.25723899  0.74276098  0.74276098  1
  As  As5  1  0.25723899  0.25723899  0.25723899  1
  As  As6  1  0.74276098  0.25723899  0.74276098  1
  As  As7  1  0.74276098  0.74276098  0.25723899  1
