# generated using pymatgen
data_AlVO3
_symmetry_space_group_name_H-M   'P 1'
_cell_length_a   3.19964004
_cell_length_b   5.37529707
_cell_length_c   7.26821136
_cell_angle_alpha   106.22164154
_cell_angle_beta   90.00000000
_cell_angle_gamma   107.31497955
_symmetry_Int_Tables_number   1
_chemical_formula_structural   AlVO3
_chemical_formula_sum   'Al2 V2 O6'
_cell_volume   114.11768964
_cell_formula_units_Z   2
loop_
 _symmetry_equiv_pos_site_id
 _symmetry_equiv_pos_as_xyz
  1  'x, y, z'
loop_
 _atom_site_type_symbol
 _atom_site_label
 _atom_site_symmetry_multiplicity
 _atom_site_fract_x
 _atom_site_fract_y
 _atom_site_fract_z
 _atom_site_occupancy
  V  V0  1  0.09337400  0.18674800  0.90644300  1
  V  V1  1  0.75008200  0.50016401  0.65666400  1
  Al  Al2  1  0.90662600  0.81325202  0.09355699  1
  Al  Al3  1  0.24991800  0.49983601  0.34333599  1
  O  O4  1  0.91016300  0.82032602  0.84373599  1
  O  O5  1  0.34514800  0.69029602  0.14690399  1
  O  O6  1  0.65485199  0.30970401  0.85309600  1
  O  O7  1  0.18240600  0.36481201  0.56882600  1
  O  O8  1  0.81759400  0.63518801  0.43117399  1
  O  O9  1  0.08983700  0.17967400  0.15626400  1
