# generated using pymatgen
data_Zn2InCuSe4
_symmetry_space_group_name_H-M   'P 1'
_cell_length_a   6.05996418
_cell_length_b   6.05996418
_cell_length_c   7.07923794
_cell_angle_alpha   115.34131622
_cell_angle_beta   115.34131622
_cell_angle_gamma   90.00000000
_symmetry_Int_Tables_number   1
_chemical_formula_structural   Zn2InCuSe4
_chemical_formula_sum   'Zn2 In1 Cu1 Se4'
_cell_volume   206.93763884
_cell_formula_units_Z   1
loop_
 _symmetry_equiv_pos_site_id
 _symmetry_equiv_pos_as_xyz
  1  'x, y, z'
loop_
 _atom_site_type_symbol
 _atom_site_label
 _atom_site_symmetry_multiplicity
 _atom_site_fract_x
 _atom_site_fract_y
 _atom_site_fract_z
 _atom_site_occupancy
  Zn  Zn0  1  0.50000003  0.50000001  0.00000007  1
  Zn  Zn1  1  0.25000005  0.75000001  0.50000006  1
  In  In2  1  0.75000001  0.25000000  0.50000005  1
  Cu  Cu3  1  0.00000000  0.00000000  0.00000000  1
  Se  Se4  1  0.87500002  0.40447300  0.25000007  1
  Se  Se5  1  0.15447301  0.12500000  0.75000000  1
  Se  Se6  1  0.37500006  0.84552701  0.25000008  1
  Se  Se7  1  0.59552704  0.62500001  0.75000006  1
