# generated using pymatgen
data_LiDySe2
_symmetry_space_group_name_H-M   'P 1'
_cell_length_a   5.64946222
_cell_length_b   5.64946222
_cell_length_c   7.01473141
_cell_angle_alpha   113.74617004
_cell_angle_beta   113.74617004
_cell_angle_gamma   90.00000000
_symmetry_Int_Tables_number   1
_chemical_formula_structural   LiDySe2
_chemical_formula_sum   'Li2 Dy2 Se4'
_cell_volume   184.03423260
_cell_formula_units_Z   2
loop_
 _symmetry_equiv_pos_site_id
 _symmetry_equiv_pos_as_xyz
  1  'x, y, z'
loop_
 _atom_site_type_symbol
 _atom_site_label
 _atom_site_symmetry_multiplicity
 _atom_site_fract_x
 _atom_site_fract_y
 _atom_site_fract_z
 _atom_site_occupancy
  Li  Li0  1  0.00000000  0.00000000  0.00000000  1
  Li  Li1  1  0.74999993  0.24999998  0.49999992  1
  Dy  Dy2  1  0.24999993  0.74999994  0.49999991  1
  Dy  Dy3  1  0.49999993  0.49999996  0.99999990  1
  Se  Se4  1  0.74570290  0.74570294  0.49140588  1
  Se  Se5  1  0.49570290  0.99570292  0.99140586  1
  Se  Se6  1  0.25429696  0.25429698  0.50859395  1
  Se  Se7  1  0.00429696  0.50429696  0.00859396  1
