# generated using pymatgen
data_Na3Pr4Ag(BiTe3)2
_symmetry_space_group_name_H-M   'P 1'
_cell_length_a   9.19288349
_cell_length_b   9.19288349
_cell_length_c   9.19288349
_cell_angle_alpha   60.00000000
_cell_angle_beta   60.00000000
_cell_angle_gamma   60.00000000
_symmetry_Int_Tables_number   1
_chemical_formula_structural   Na3Pr4Ag(BiTe3)2
_chemical_formula_sum   'Na3 Pr4 Ag1 Bi2 Te6'
_cell_volume   549.33879456
_cell_formula_units_Z   1
loop_
 _symmetry_equiv_pos_site_id
 _symmetry_equiv_pos_as_xyz
  1  'x, y, z'
loop_
 _atom_site_type_symbol
 _atom_site_label
 _atom_site_symmetry_multiplicity
 _atom_site_fract_x
 _atom_site_fract_y
 _atom_site_fract_z
 _atom_site_occupancy
  Na  Na0  1  0.87499997  0.87499997  0.87499997  1
  Na  Na1  1  0.87499997  0.37499999  0.87499997  1
  Na  Na2  1  0.87499997  0.87499997  0.37499999  1
  Bi  Bi3  1  0.37499999  0.87499997  0.87499997  1
  Pr  Pr4  1  0.37499999  0.37499999  0.37499999  1
  Pr  Pr5  1  0.87499997  0.37499999  0.37499999  1
  Pr  Pr6  1  0.37499999  0.37499999  0.87499997  1
  Pr  Pr7  1  0.37499999  0.87499997  0.37499999  1
  Ag  Ag8  1  0.62216798  0.62216898  0.62216898  1
  Bi  Bi9  1  0.12783199  0.12783099  0.12783099  1
  Te  Te10  1  0.12783199  0.61650598  0.12783099  1
  Te  Te11  1  0.61650698  0.12783099  0.12783099  1
  Te  Te12  1  0.62216798  0.62216898  0.13349399  1
  Te  Te13  1  0.62216798  0.13349399  0.62216898  1
  Te  Te14  1  0.13349299  0.62216898  0.62216898  1
  Te  Te15  1  0.12783199  0.12783099  0.61650598  1
