# generated using pymatgen
data_CdH6BrO3F
_symmetry_space_group_name_H-M   'P 1'
_cell_length_a   4.35176277
_cell_length_b   5.84676409
_cell_length_c   5.84676409
_cell_angle_alpha   90.00000000
_cell_angle_beta   90.00000000
_cell_angle_gamma   90.00000000
_symmetry_Int_Tables_number   1
_chemical_formula_structural   CdH6BrO3F
_chemical_formula_sum   'Cd1 H6 Br1 O3 F1'
_cell_volume   148.76348852
_cell_formula_units_Z   1
loop_
 _symmetry_equiv_pos_site_id
 _symmetry_equiv_pos_as_xyz
  1  'x, y, z'
loop_
 _atom_site_type_symbol
 _atom_site_label
 _atom_site_symmetry_multiplicity
 _atom_site_fract_x
 _atom_site_fract_y
 _atom_site_fract_z
 _atom_site_occupancy
  H  H0  1  0.86285105  0.85327999  -0.00000000  1
  Cd  Cd1  1  0.86285105  0.14672000  0.00000000  1
  H  H2  1  0.86285105  0.49999999  0.35327999  1
  H  H3  1  0.86285105  0.49999999  0.64671999  1
  H  H4  1  0.13714901  0.00000000  0.14672000  1
  H  H5  1  0.13714901  0.64671999  0.49999999  1
  H  H6  1  0.13714901  0.35327999  0.49999999  1
  O  O7  1  0.13714901  0.00000000  0.85327999  1
  O  O8  1  0.60253903  0.49999999  0.00000000  1
  F  F9  1  0.39746102  0.00000000  0.49999999  1
  Br  Br10  1  0.00000000  0.00000000  0.00000000  1
  O  O11  1  0.00000000  0.49999999  0.49999999  1
