# generated using pymatgen
data_Y(CuTe)3
_symmetry_space_group_name_H-M   'P 1'
_cell_length_a   7.46458673
_cell_length_b   7.46458673
_cell_length_c   8.19113350
_cell_angle_alpha   62.89321136
_cell_angle_beta   62.89321136
_cell_angle_gamma   59.99999237
_symmetry_Int_Tables_number   1
_chemical_formula_structural   Y(CuTe)3
_chemical_formula_sum   'Y2 Cu6 Te6'
_cell_volume   336.13090232
_cell_formula_units_Z   2
loop_
 _symmetry_equiv_pos_site_id
 _symmetry_equiv_pos_as_xyz
  1  'x, y, z'
loop_
 _atom_site_type_symbol
 _atom_site_label
 _atom_site_symmetry_multiplicity
 _atom_site_fract_x
 _atom_site_fract_y
 _atom_site_fract_z
 _atom_site_occupancy
  Y  Y0  1  0.83441898  0.83441901  0.49674295  1
  Y  Y1  1  0.16558100  0.16558100  0.50325697  1
  Cu  Cu2  1  0.25797599  0.63141801  0.12926498  1
  Cu  Cu3  1  0.63141798  0.98134101  0.12926497  1
  Cu  Cu4  1  0.98134100  0.25797600  0.12926497  1
  Cu  Cu5  1  0.01865898  0.74202401  0.87073495  1
  Cu  Cu6  1  0.36858200  0.01865900  0.87073496  1
  Cu  Cu7  1  0.74202399  0.36858200  0.87073494  1
  Te  Te8  1  0.10349099  0.42065900  0.74627196  1
  Te  Te9  1  0.72957800  0.10349100  0.74627195  1
  Te  Te10  1  0.42065898  0.72957801  0.74627195  1
  Te  Te11  1  0.57934099  0.27042200  0.25372797  1
  Te  Te12  1  0.27042198  0.89650901  0.25372797  1
  Te  Te13  1  0.89650899  0.57934101  0.25372796  1
