# generated using pymatgen
data_KTi3AlO8
_symmetry_space_group_name_H-M   'P 1'
_cell_length_a   2.98418093
_cell_length_b   7.31750870
_cell_length_c   7.33243799
_cell_angle_alpha   87.68447876
_cell_angle_beta   78.37152100
_cell_angle_gamma   78.27842712
_symmetry_Int_Tables_number   1
_chemical_formula_structural   KTi3AlO8
_chemical_formula_sum   'K1 Ti3 Al1 O8'
_cell_volume   153.55988875
_cell_formula_units_Z   1
loop_
 _symmetry_equiv_pos_site_id
 _symmetry_equiv_pos_as_xyz
  1  'x, y, z'
loop_
 _atom_site_type_symbol
 _atom_site_label
 _atom_site_symmetry_multiplicity
 _atom_site_fract_x
 _atom_site_fract_y
 _atom_site_fract_z
 _atom_site_occupancy
  K  K0  1  0.06359712  0.99519497  0.99572806  1
  Ti  Ti1  1  0.84027509  0.49032399  0.83112501  1
  Ti  Ti2  1  0.67213105  0.19538399  0.47841200  1
  Ti  Ti3  1  0.33103411  0.81456298  0.50834004  1
  Al  Al4  1  0.16872307  0.51424798  0.18440002  1
  O  O5  1  0.35038309  0.62894598  0.70960103  1
  O  O6  1  0.68257707  0.37813299  0.29324801  1
  O  O7  1  0.98556412  0.70036998  0.36911902  1
  O  O8  1  0.05889504  0.29038799  0.62872902  1
  O  O9  1  0.36129005  0.36028599  0.95595902  1
  O  O10  1  0.67665010  0.63495198  0.05418002  1
  O  O11  1  0.73323514  0.94607897  0.63413004  1
  O  O12  1  0.31564502  0.05113200  0.35702900  1
