# generated using pymatgen
data_YLuNiSO4
_symmetry_space_group_name_H-M   'P 1'
_cell_length_a   4.44822121
_cell_length_b   4.44822121
_cell_length_c   4.44822121
_cell_angle_alpha   90.00000000
_cell_angle_beta   90.00000000
_cell_angle_gamma   90.00000000
_symmetry_Int_Tables_number   1
_chemical_formula_structural   YLuNiSO4
_chemical_formula_sum   'Y1 Lu1 Ni1 S1 O4'
_cell_volume   88.01549357
_cell_formula_units_Z   1
loop_
 _symmetry_equiv_pos_site_id
 _symmetry_equiv_pos_as_xyz
  1  'x, y, z'
loop_
 _atom_site_type_symbol
 _atom_site_label
 _atom_site_symmetry_multiplicity
 _atom_site_fract_x
 _atom_site_fract_y
 _atom_site_fract_z
 _atom_site_occupancy
  Y  Y0  1  0.86368396  0.63631597  0.36368398  1
  Lu  Lu1  1  0.63631597  0.36368398  0.86368396  1
  Ni  Ni2  1  0.36368398  0.86368396  0.63631597  1
  S  S3  1  0.13631599  0.13631599  0.13631599  1
  O  O4  1  0.15918699  0.34081298  0.65918697  1
  O  O5  1  0.34081298  0.65918697  0.15918699  1
  O  O6  1  0.65918697  0.15918699  0.34081298  1
  O  O7  1  0.84081296  0.84081296  0.84081296  1
