# generated using pymatgen
data_Nb(SBr)2
_symmetry_space_group_name_H-M   'P 1'
_cell_length_a   6.65786219
_cell_length_b   6.66074896
_cell_length_c   7.71116304
_cell_angle_alpha   90.27672577
_cell_angle_beta   111.84004974
_cell_angle_gamma   118.95092010
_symmetry_Int_Tables_number   1
_chemical_formula_structural   Nb(SBr)2
_chemical_formula_sum   'Nb2 S4 Br4'
_cell_volume   270.45846692
_cell_formula_units_Z   2
loop_
 _symmetry_equiv_pos_site_id
 _symmetry_equiv_pos_as_xyz
  1  'x, y, z'
loop_
 _atom_site_type_symbol
 _atom_site_label
 _atom_site_symmetry_multiplicity
 _atom_site_fract_x
 _atom_site_fract_y
 _atom_site_fract_z
 _atom_site_occupancy
  Nb  Nb0  1  0.87332096  0.12540399  0.99956399  1
  Nb  Nb1  1  0.12667895  0.87459596  0.00043603  1
  S  S2  1  0.80240593  0.76530597  0.12849801  1
  S  S3  1  0.19759398  0.23469399  0.87150200  1
  S  S4  1  0.14111999  0.05785900  0.29410500  1
  S  S5  1  0.85887992  0.94214096  0.70589502  1
  Br  Br6  1  0.76920595  0.42477098  0.77720400  1
  Br  Br7  1  0.23079396  0.57522897  0.22279602  1
  Br  Br8  1  0.64013597  0.16841599  0.22251499  1
  Br  Br9  1  0.35986395  0.83158396  0.77748502  1
