# generated using pymatgen
data_KSrI4
_symmetry_space_group_name_H-M   'P 1'
_cell_length_a   5.87002182
_cell_length_b   5.87002182
_cell_length_c   9.95825386
_cell_angle_alpha   72.85855865
_cell_angle_beta   72.85855865
_cell_angle_gamma   60.00000381
_symmetry_Int_Tables_number   1
_chemical_formula_structural   KSrI4
_chemical_formula_sum   'K1 Sr1 I4'
_cell_volume   279.42358529
_cell_formula_units_Z   1
loop_
 _symmetry_equiv_pos_site_id
 _symmetry_equiv_pos_as_xyz
  1  'x, y, z'
loop_
 _atom_site_type_symbol
 _atom_site_label
 _atom_site_symmetry_multiplicity
 _atom_site_fract_x
 _atom_site_fract_y
 _atom_site_fract_z
 _atom_site_occupancy
  K  K0  1  0.00000000  0.00000000  0.00000000  1
  Sr  Sr1  1  0.50000001  0.49999999  0.49999995  1
  I  I2  1  0.62280101  0.62280099  0.13159695  1
  I  I3  1  0.87090302  0.87090298  0.38729093  1
  I  I4  1  0.12909700  0.12909700  0.61270898  1
  I  I5  1  0.37719901  0.37719899  0.86840296  1
