# generated using pymatgen
data_SrPPbO
_symmetry_space_group_name_H-M   'P 1'
_cell_length_a   4.23423910
_cell_length_b   6.98366022
_cell_length_c   6.98366022
_cell_angle_alpha   90.00000000
_cell_angle_beta   90.00000000
_cell_angle_gamma   90.00000000
_symmetry_Int_Tables_number   1
_chemical_formula_structural   SrPPbO
_chemical_formula_sum   'Sr2 P2 Pb2 O2'
_cell_volume   206.51023503
_cell_formula_units_Z   2
loop_
 _symmetry_equiv_pos_site_id
 _symmetry_equiv_pos_as_xyz
  1  'x, y, z'
loop_
 _atom_site_type_symbol
 _atom_site_label
 _atom_site_symmetry_multiplicity
 _atom_site_fract_x
 _atom_site_fract_y
 _atom_site_fract_z
 _atom_site_occupancy
  Sr  Sr0  1  0.99999998  0.49999998  0.49999998  1
  Sr  Sr1  1  0.00000000  0.00000000  0.00000000  1
  Pb  Pb2  1  0.47423799  0.82156697  0.67843298  1
  O  O3  1  0.52576199  0.32156699  0.82156697  1
  O  O4  1  0.21046099  0.00000000  0.49999998  1
  Pb  Pb5  1  0.78953898  0.49999998  -0.00000000  1
  P  P6  1  0.47423799  0.17843299  0.32156699  1
  P  P7  1  0.52576199  0.67843298  0.17843299  1
