# generated using pymatgen
data_Zr2CuS5
_symmetry_space_group_name_H-M   'P 1'
_cell_length_a   3.69176292
_cell_length_b   5.38649321
_cell_length_c   9.56362629
_cell_angle_alpha   96.71041870
_cell_angle_beta   90.00000000
_cell_angle_gamma   90.00000000
_symmetry_Int_Tables_number   1
_chemical_formula_structural   Zr2CuS5
_chemical_formula_sum   'Zr2 Cu1 S5'
_cell_volume   188.87614486
_cell_formula_units_Z   1
loop_
 _symmetry_equiv_pos_site_id
 _symmetry_equiv_pos_as_xyz
  1  'x, y, z'
loop_
 _atom_site_type_symbol
 _atom_site_label
 _atom_site_symmetry_multiplicity
 _atom_site_fract_x
 _atom_site_fract_y
 _atom_site_fract_z
 _atom_site_occupancy
  Zr  Zr0  1  0.50000001  0.27950299  0.65527401  1
  Zr  Zr1  1  0.00000000  0.71911798  0.34203402  1
  Cu  Cu2  1  0.00000000  0.52724098  0.83276102  1
  S  S3  1  0.50000001  0.75964198  0.55338703  1
  S  S4  1  0.00000000  0.23884499  0.44333101  1
  S  S5  1  0.50000001  0.87850697  0.18103903  1
  S  S6  1  -0.00000000  0.10678800  0.80831901  1
  S  S7  1  0.50000001  0.49035498  0.18385502  1
