# generated using pymatgen
data_Ba2Y2Mn4O11
_symmetry_space_group_name_H-M   'P 1'
_cell_length_a   3.85549927
_cell_length_b   8.19348049
_cell_length_c   8.73000336
_cell_angle_alpha   117.21105957
_cell_angle_beta   89.98684692
_cell_angle_gamma   89.92087555
_symmetry_Int_Tables_number   1
_chemical_formula_structural   Ba2Y2Mn4O11
_chemical_formula_sum   'Ba2 Y2 Mn4 O11'
_cell_volume   245.25895251
_cell_formula_units_Z   1
loop_
 _symmetry_equiv_pos_site_id
 _symmetry_equiv_pos_as_xyz
  1  'x, y, z'
loop_
 _atom_site_type_symbol
 _atom_site_label
 _atom_site_symmetry_multiplicity
 _atom_site_fract_x
 _atom_site_fract_y
 _atom_site_fract_z
 _atom_site_occupancy
  Ba  Ba0  1  0.49999997  0.50000002  0.49999999  1
  Ba  Ba1  1  0.50000001  0.00000000  0.49999999  1
  Y  Y2  1  0.49528995  0.71884303  0.99124899  1
  Y  Y3  1  0.50470999  0.28115701  0.00875099  1
  Mn  Mn4  1  0.99613295  0.88183803  0.77256099  1
  Mn  Mn5  1  0.00386699  0.11816200  0.22743900  1
  Mn  Mn6  1  0.00117495  0.62943302  0.24867201  1
  Mn  Mn7  1  0.99882499  0.37056701  0.75132798  1
  O  O8  1  0.50105996  0.61804102  0.22375600  1
  O  O9  1  0.49893998  0.38195901  0.77624399  1
  O  O10  1  0.99852996  0.65651102  0.79213299  1
  O  O11  1  0.00146997  0.34348901  0.20786700  1
  O  O12  1  0.99200301  0.13369000  0.81151098  1
  O  O13  1  0.00799693  0.86631003  0.18848901  1
  O  O14  1  0.99943896  0.75402103  0.49773599  1
  O  O15  1  0.00056098  0.24597901  0.50226400  1
  O  O16  1  -0.00000004  0.50000002  1.00000000  1
  O  O17  1  0.49599594  0.89714003  0.82230900  1
  O  O18  1  0.50400400  0.10286000  0.17769099  1
