# generated using pymatgen
data_BiSeBr
_symmetry_space_group_name_H-M   'P 1'
_cell_length_a   4.16684484
_cell_length_b   8.56273746
_cell_length_c   11.01651382
_cell_angle_alpha   90.00000000
_cell_angle_beta   90.00000000
_cell_angle_gamma   90.00000000
_symmetry_Int_Tables_number   1
_chemical_formula_structural   BiSeBr
_chemical_formula_sum   'Bi4 Se4 Br4'
_cell_volume   393.06478972
_cell_formula_units_Z   4
loop_
 _symmetry_equiv_pos_site_id
 _symmetry_equiv_pos_as_xyz
  1  'x, y, z'
loop_
 _atom_site_type_symbol
 _atom_site_label
 _atom_site_symmetry_multiplicity
 _atom_site_fract_x
 _atom_site_fract_y
 _atom_site_fract_z
 _atom_site_occupancy
  Bi  Bi0  1  0.25000001  0.38357198  0.63274701  1
  Bi  Bi1  1  0.25000001  0.88357195  0.86725301  1
  Bi  Bi2  1  0.75000003  0.11642799  0.13274700  1
  Bi  Bi3  1  0.75000003  0.61642797  0.36725301  1
  Se  Se4  1  0.75000003  0.81836596  0.04032400  1
  Se  Se5  1  0.25000001  0.68163396  0.54032401  1
  Se  Se6  1  0.25000001  0.18163399  0.95967602  1
  Se  Se7  1  0.75000003  0.31836598  0.45967601  1
  Br  Br8  1  0.75000003  0.52502297  0.80385901  1
  Br  Br9  1  0.75000003  0.02502300  0.69614101  1
  Br  Br10  1  0.25000001  0.47497697  0.19614100  1
  Br  Br11  1  0.25000001  0.97497695  0.30385900  1
