# generated using pymatgen
data_KIO3
_symmetry_space_group_name_H-M   'P 1'
_cell_length_a   6.36919165
_cell_length_b   6.36919165
_cell_length_c   6.45503855
_cell_angle_alpha   60.43897247
_cell_angle_beta   60.43897247
_cell_angle_gamma   60.00000381
_symmetry_Int_Tables_number   1
_chemical_formula_structural   KIO3
_chemical_formula_sum   'K2 I2 O6'
_cell_volume   186.38133524
_cell_formula_units_Z   2
loop_
 _symmetry_equiv_pos_site_id
 _symmetry_equiv_pos_as_xyz
  1  'x, y, z'
loop_
 _atom_site_type_symbol
 _atom_site_label
 _atom_site_symmetry_multiplicity
 _atom_site_fract_x
 _atom_site_fract_y
 _atom_site_fract_z
 _atom_site_occupancy
  K  K0  1  0.74771905  0.74771901  0.75684295  1
  K  K1  1  0.24771902  0.24771900  0.25684298  1
  I  I2  1  0.00243100  0.00243100  0.99270698  1
  I  I3  1  0.50243104  0.50243101  0.49270696  1
  O  O4  1  0.25688604  0.76739801  0.83258795  1
  O  O5  1  0.76739803  0.14312800  0.83258796  1
  O  O6  1  0.14312802  0.25688600  0.83258797  1
  O  O7  1  0.64312803  0.26739800  0.33258797  1
  O  O8  1  0.26739804  0.75688601  0.33258796  1
  O  O9  1  0.75688605  0.64312801  0.33258796  1
