# generated using pymatgen
data_K2ZnTe2
_symmetry_space_group_name_H-M   'P 1'
_cell_length_a   7.04846191
_cell_length_b   7.37180185
_cell_length_c   8.74000645
_cell_angle_alpha   114.94369507
_cell_angle_beta   113.78024292
_cell_angle_gamma   90.00000000
_symmetry_Int_Tables_number   1
_chemical_formula_structural   K2ZnTe2
_chemical_formula_sum   'K4 Zn2 Te4'
_cell_volume   368.81128094
_cell_formula_units_Z   2
loop_
 _symmetry_equiv_pos_site_id
 _symmetry_equiv_pos_as_xyz
  1  'x, y, z'
loop_
 _atom_site_type_symbol
 _atom_site_label
 _atom_site_symmetry_multiplicity
 _atom_site_fract_x
 _atom_site_fract_y
 _atom_site_fract_z
 _atom_site_occupancy
  K  K0  1  0.14055196  0.82363799  0.28110394  1
  K  K1  1  0.85944800  0.17636200  0.71889600  1
  K  K2  1  0.35944798  0.54253399  0.71889597  1
  K  K3  1  0.64055198  0.45746599  0.28110397  1
  Zn  Zn4  1  0.24999996  0.99999998  -0.00000008  1
  Zn  Zn5  1  0.74999996  0.99999998  0.99999994  1
  Te  Te6  1  0.39323300  0.08653100  0.78646501  1
  Te  Te7  1  0.60676696  0.91346898  0.21353493  1
  Te  Te8  1  0.10676799  0.30006599  0.21353598  1
  Te  Te9  1  0.89323197  0.69993399  0.78646396  1
