# generated using pymatgen
data_La2Ta2O7
_symmetry_space_group_name_H-M   'P 1'
_cell_length_a   3.92552209
_cell_length_b   3.92552209
_cell_length_c   11.21002960
_cell_angle_alpha   100.08387756
_cell_angle_beta   100.08387756
_cell_angle_gamma   90.00000000
_symmetry_Int_Tables_number   1
_chemical_formula_structural   La2Ta2O7
_chemical_formula_sum   'La2 Ta2 O7'
_cell_volume   167.36400445
_cell_formula_units_Z   1
loop_
 _symmetry_equiv_pos_site_id
 _symmetry_equiv_pos_as_xyz
  1  'x, y, z'
loop_
 _atom_site_type_symbol
 _atom_site_label
 _atom_site_symmetry_multiplicity
 _atom_site_fract_x
 _atom_site_fract_y
 _atom_site_fract_z
 _atom_site_occupancy
  La  La0  1  0.24999998  0.74999998  0.50000000  1
  La  La1  1  0.00000000  0.00000000  0.00000000  1
  Ta  Ta2  1  0.60424598  0.60424598  0.20849199  1
  Ta  Ta3  1  0.39575498  0.39575499  0.79151001  1
  O  O4  1  0.68746597  0.68746598  0.37493199  1
  O  O5  1  0.31253399  0.31253399  0.62506801  1
  O  O6  1  0.41500198  0.91500197  0.83000401  1
  O  O7  1  0.91531797  0.41531799  0.83063601  1
  O  O8  1  0.58468198  0.08468200  0.16936400  1
  O  O9  1  0.08499799  0.58499798  0.16999600  1
  O  O10  1  0.49999998  0.49999999  -0.00000001  1
