# generated using pymatgen
data_LiCa2CdF6
_symmetry_space_group_name_H-M   'P 1'
_cell_length_a   5.59994030
_cell_length_b   5.59996748
_cell_length_c   5.62117004
_cell_angle_alpha   60.12480164
_cell_angle_beta   60.12480164
_cell_angle_gamma   60.00024796
_symmetry_Int_Tables_number   1
_chemical_formula_structural   LiCa2CdF6
_chemical_formula_sum   'Li1 Ca2 Cd1 F6'
_cell_volume   124.88150286
_cell_formula_units_Z   1
loop_
 _symmetry_equiv_pos_site_id
 _symmetry_equiv_pos_as_xyz
  1  'x, y, z'
loop_
 _atom_site_type_symbol
 _atom_site_label
 _atom_site_symmetry_multiplicity
 _atom_site_fract_x
 _atom_site_fract_y
 _atom_site_fract_z
 _atom_site_occupancy
  Ca  Ca0  1  0.72725302  0.72724099  0.81825595  1
  Li  Li1  1  0.22727301  0.22727700  0.31817898  1
  Ca  Ca2  1  0.50511301  0.50511599  0.48465597  1
  Cd  Cd3  1  0.00503600  0.00503500  0.98489296  1
  F  F4  1  0.94938702  0.54950299  0.09934197  1
  F  F5  1  0.44937702  0.90178399  0.59933297  1
  F  F6  1  0.04950201  0.44937400  0.59933298  1
  F  F7  1  0.90178601  0.04950400  0.59932395  1
  F  F8  1  0.54949501  0.40177700  0.09934898  1
  F  F9  1  0.40177702  0.94938799  0.09933599  1
