# generated using pymatgen
data_SrCuF4
_symmetry_space_group_name_H-M   'P 1'
_cell_length_a   5.53616810
_cell_length_b   5.53616810
_cell_length_c   7.10849667
_cell_angle_alpha   112.91748047
_cell_angle_beta   112.91748047
_cell_angle_gamma   90.00000000
_symmetry_Int_Tables_number   1
_chemical_formula_structural   SrCuF4
_chemical_formula_sum   'Sr2 Cu2 F8'
_cell_volume   181.85606322
_cell_formula_units_Z   2
loop_
 _symmetry_equiv_pos_site_id
 _symmetry_equiv_pos_as_xyz
  1  'x, y, z'
loop_
 _atom_site_type_symbol
 _atom_site_label
 _atom_site_symmetry_multiplicity
 _atom_site_fract_x
 _atom_site_fract_y
 _atom_site_fract_z
 _atom_site_occupancy
  Sr  Sr0  1  0.74999999  0.25000000  0.50000002  1
  Sr  Sr1  1  0.00000000  0.00000000  0.00000000  1
  Cu  Cu2  1  0.25000000  0.74999999  0.50000002  1
  Cu  Cu3  1  0.50000000  0.49999999  0.00000001  1
  F  F4  1  0.42233900  0.32597300  0.16730901  1
  F  F5  1  0.07597201  0.99496899  0.66730803  1
  F  F6  1  0.59133600  0.67233899  0.66730803  1
  F  F7  1  0.74496900  0.84133499  0.16730702  1
  F  F8  1  0.00503100  0.40866499  0.33269301  1
  F  F9  1  0.15866400  0.57766099  0.83269203  1
  F  F10  1  0.67402799  0.25503100  0.83269203  1
  F  F11  1  0.32766100  0.92402699  0.33269102  1
