# generated using pymatgen
data_ZnNiF5
_symmetry_space_group_name_H-M   'P 1'
_cell_length_a   5.22157717
_cell_length_b   5.78254747
_cell_length_c   6.92921877
_cell_angle_alpha   104.35372925
_cell_angle_beta   109.57331848
_cell_angle_gamma   91.49588013
_symmetry_Int_Tables_number   1
_chemical_formula_structural   ZnNiF5
_chemical_formula_sum   'Zn2 Ni2 F10'
_cell_volume   189.60666574
_cell_formula_units_Z   2
loop_
 _symmetry_equiv_pos_site_id
 _symmetry_equiv_pos_as_xyz
  1  'x, y, z'
loop_
 _atom_site_type_symbol
 _atom_site_label
 _atom_site_symmetry_multiplicity
 _atom_site_fract_x
 _atom_site_fract_y
 _atom_site_fract_z
 _atom_site_occupancy
  Zn  Zn0  1  0.06925898  0.67298002  0.19183499  1
  Zn  Zn1  1  0.42510196  0.80660803  0.82134299  1
  Ni  Ni2  1  0.57489798  0.19339201  0.17865701  1
  Ni  Ni3  1  0.93074097  0.32702001  0.80816500  1
  F  F4  1  0.74628796  0.64560402  0.90188099  1
  F  F5  1  0.65163898  0.14934100  0.90606899  1
  F  F6  1  0.14585898  0.51686402  0.72710898  1
  F  F7  1  0.85414096  0.48313602  0.27289101  1
  F  F8  1  0.34836096  0.85065903  0.09393100  1
  F  F9  1  0.25371198  0.35439601  0.09811900  1
  F  F10  1  0.61422698  0.24562601  0.50216800  1
  F  F11  1  0.92211198  0.00261000  0.28366701  1
  F  F12  1  0.07788796  0.99739003  0.71633298  1
  F  F13  1  0.38577297  0.75437402  0.49783199  1
