# generated using pymatgen
data_La5TlSe8
_symmetry_space_group_name_H-M   'P 1'
_cell_length_a   7.94353437
_cell_length_b   7.94353437
_cell_length_c   7.94353437
_cell_angle_alpha   110.06856537
_cell_angle_beta   109.17337799
_cell_angle_gamma   109.17337799
_symmetry_Int_Tables_number   1
_chemical_formula_structural   La5TlSe8
_chemical_formula_sum   'La5 Tl1 Se8'
_cell_volume   385.81933025
_cell_formula_units_Z   1
loop_
 _symmetry_equiv_pos_site_id
 _symmetry_equiv_pos_as_xyz
  1  'x, y, z'
loop_
 _atom_site_type_symbol
 _atom_site_label
 _atom_site_symmetry_multiplicity
 _atom_site_fract_x
 _atom_site_fract_y
 _atom_site_fract_z
 _atom_site_occupancy
  La  La0  1  0.87901202  0.76037602  0.37757705  1
  La  La1  1  0.50000000  0.25000001  0.75000001  1
  La  La2  1  0.12098802  0.49856501  0.88136402  1
  La  La3  1  0.61720100  0.11863600  0.23962401  1
  La  La4  1  0.38279902  0.62242301  0.50143504  1
  Tl  Tl5  1  0.00000000  0.00000000  0.00000000  1
  Se  Se6  1  0.10479001  0.23467601  0.49142001  1
  Se  Se7  1  0.58433602  0.71284702  0.97115704  1
  Se  Se8  1  0.25831003  0.87148902  0.28715306  1
  Se  Se9  1  0.41566401  0.38682101  0.12851103  1
  Se  Se10  1  0.74325601  0.50858001  0.61337003  1
  Se  Se11  1  0.89521000  0.38663001  0.12988603  1
  Se  Se12  1  0.25674403  0.87011402  0.76532405  1
  Se  Se13  1  0.74168999  0.02884300  0.61317900  1
