# generated using pymatgen
data_K2PbF6
_symmetry_space_group_name_H-M   'P 1'
_cell_length_a   3.87783790
_cell_length_b   6.96210194
_cell_length_c   6.96210194
_cell_angle_alpha   120.00000000
_cell_angle_beta   90.00000000
_cell_angle_gamma   90.00000000
_symmetry_Int_Tables_number   1
_chemical_formula_structural   K2PbF6
_chemical_formula_sum   'K2 Pb1 F6'
_cell_volume   162.77999759
_cell_formula_units_Z   1
loop_
 _symmetry_equiv_pos_site_id
 _symmetry_equiv_pos_as_xyz
  1  'x, y, z'
loop_
 _atom_site_type_symbol
 _atom_site_label
 _atom_site_symmetry_multiplicity
 _atom_site_fract_x
 _atom_site_fract_y
 _atom_site_fract_z
 _atom_site_occupancy
  K  K0  1  0.50000001  0.66666667  0.33333332  1
  K  K1  1  0.50000001  0.33333333  0.66666665  1
  Pb  Pb2  1  0.00000000  0.00000000  0.00000000  1
  F  F3  1  0.50000001  0.00000000  0.21883600  1
  F  F4  1  0.50000001  0.21883600  -0.00000000  1
  F  F5  1  0.50000001  0.78116400  0.78116398  1
  F  F6  1  0.00000000  0.33015000  0.33014999  1
  F  F7  1  1.00000003  0.66985000  -0.00000001  1
  F  F8  1  1.00000003  0.00000000  0.66984999  1
