# generated using pymatgen
data_Ce2AgSe4
_symmetry_space_group_name_H-M   'P 1'
_cell_length_a   7.48797798
_cell_length_b   7.48797798
_cell_length_c   7.48797798
_cell_angle_alpha   109.47122192
_cell_angle_beta   109.47122192
_cell_angle_gamma   109.47122192
_symmetry_Int_Tables_number   1
_chemical_formula_structural   Ce2AgSe4
_chemical_formula_sum   'Ce4 Ag2 Se8'
_cell_volume   323.20030696
_cell_formula_units_Z   2
loop_
 _symmetry_equiv_pos_site_id
 _symmetry_equiv_pos_as_xyz
  1  'x, y, z'
loop_
 _atom_site_type_symbol
 _atom_site_label
 _atom_site_symmetry_multiplicity
 _atom_site_fract_x
 _atom_site_fract_y
 _atom_site_fract_z
 _atom_site_occupancy
  Ce  Ce0  1  0.75000000  0.12500000  0.37500002  1
  Ce  Ce1  1  0.62500001  0.25000000  0.87500001  1
  Ce  Ce2  1  0.87500003  0.75000001  0.62500005  1
  Ce  Ce3  1  0.12500005  0.87500001  0.25000005  1
  Ag  Ag4  1  0.37500003  0.62500001  0.75000003  1
  Ag  Ag5  1  0.25000002  0.37500001  0.12500002  1
  Se  Se6  1  0.84155499  0.00000000  0.00000002  1
  Se  Se7  1  0.15844501  0.15844500  0.65844500  1
  Se  Se8  1  0.00000003  0.50000001  0.84155501  1
  Se  Se9  1  0.50000001  0.34155501  0.50000002  1
  Se  Se10  1  0.00000003  0.50000001  0.34155502  1
  Se  Se11  1  0.50000005  0.84155501  0.50000005  1
  Se  Se12  1  0.65844503  0.65844501  0.15844505  1
  Se  Se13  1  0.34155499  0.00000000  0.00000001  1
