# generated using pymatgen
data_Ca2LuWO6
_symmetry_space_group_name_H-M   'P 1'
_cell_length_a   5.54342794
_cell_length_b   5.75754976
_cell_length_c   7.95277786
_cell_angle_alpha   90.00000000
_cell_angle_beta   90.57030487
_cell_angle_gamma   90.00000000
_symmetry_Int_Tables_number   1
_chemical_formula_structural   Ca2LuWO6
_chemical_formula_sum   'Ca4 Lu2 W2 O12'
_cell_volume   253.81275576
_cell_formula_units_Z   2
loop_
 _symmetry_equiv_pos_site_id
 _symmetry_equiv_pos_as_xyz
  1  'x, y, z'
loop_
 _atom_site_type_symbol
 _atom_site_label
 _atom_site_symmetry_multiplicity
 _atom_site_fract_x
 _atom_site_fract_y
 _atom_site_fract_z
 _atom_site_occupancy
  Ca  Ca0  1  0.51693401  0.55842802  0.74876602  1
  Ca  Ca1  1  0.01693400  0.94157204  0.24876600  1
  Ca  Ca2  1  0.48306601  0.44157202  0.25123401  1
  Ca  Ca3  1  0.98306601  0.05842800  0.75123403  1
  Lu  Lu4  1  0.00000000  0.50000002  0.50000001  1
  Lu  Lu5  1  0.50000001  0.00000000  0.00000001  1
  W  W6  1  0.00000000  0.50000002  -0.00000000  1
  W  W7  1  0.50000001  0.00000000  0.50000002  1
  O  O8  1  0.79003001  0.81024803  0.55705902  1
  O  O9  1  0.29003000  0.68975203  0.05705901  1
  O  O10  1  0.20997000  0.18975201  0.44294101  1
  O  O11  1  0.70997001  0.31024801  0.94294103  1
  O  O12  1  0.68210301  0.28786901  0.55912502  1
  O  O13  1  0.18210300  0.21213101  0.05912500  1
  O  O14  1  0.31789700  0.71213103  0.44087501  1
  O  O15  1  0.81789701  0.78786903  0.94087503  1
  O  O16  1  0.38966200  0.95973604  0.73652702  1
  O  O17  1  0.88966201  0.54026402  0.23652702  1
  O  O18  1  0.61033801  0.04026400  0.26347302  1
  O  O19  1  0.11033800  0.45973602  0.76347301  1
