# generated using pymatgen
data_LiCo2(PO4)2
_symmetry_space_group_name_H-M   'P 1'
_cell_length_a   5.15401793
_cell_length_b   5.15401793
_cell_length_c   6.87061644
_cell_angle_alpha   89.96128845
_cell_angle_beta   89.96128845
_cell_angle_gamma   98.01441193
_symmetry_Int_Tables_number   1
_chemical_formula_structural   LiCo2(PO4)2
_chemical_formula_sum   'Li1 Co2 P2 O8'
_cell_volume   180.72770413
_cell_formula_units_Z   1
loop_
 _symmetry_equiv_pos_site_id
 _symmetry_equiv_pos_as_xyz
  1  'x, y, z'
loop_
 _atom_site_type_symbol
 _atom_site_label
 _atom_site_symmetry_multiplicity
 _atom_site_fract_x
 _atom_site_fract_y
 _atom_site_fract_z
 _atom_site_occupancy
  Li  Li0  1  0.49745305  0.50254702  0.00000002  1
  Co  Co1  1  0.00269306  0.99730705  0.00000002  1
  Co  Co2  1  0.50062805  0.49937202  0.50000003  1
  P  P3  1  0.49922002  0.00013000  0.24891202  1
  P  P4  1  0.99987007  0.50078002  0.75108805  1
  O  O5  1  0.69665605  0.44543802  0.74693604  1
  O  O6  1  0.09561105  0.79699404  0.79442904  1
  O  O7  1  0.09844402  0.35278402  0.93365904  1
  O  O8  1  0.57870607  0.87406504  0.43608804  1
  O  O9  1  0.64721608  0.90155604  0.06634103  1
  O  O10  1  0.12593503  0.42129402  0.56391203  1
  O  O11  1  0.20300606  0.90438904  0.20557103  1
  O  O12  1  0.55456204  0.30334401  0.25306402  1
