# generated using pymatgen
data_Fe4H7O9
_symmetry_space_group_name_H-M   'P 1'
_cell_length_a   3.32141209
_cell_length_b   5.69705200
_cell_length_c   10.01197147
_cell_angle_alpha   89.15363312
_cell_angle_beta   80.46740723
_cell_angle_gamma   73.06170654
_symmetry_Int_Tables_number   1
_chemical_formula_structural   Fe4H7O9
_chemical_formula_sum   'Fe4 H7 O9'
_cell_volume   178.61554733
_cell_formula_units_Z   1
loop_
 _symmetry_equiv_pos_site_id
 _symmetry_equiv_pos_as_xyz
  1  'x, y, z'
loop_
 _atom_site_type_symbol
 _atom_site_label
 _atom_site_symmetry_multiplicity
 _atom_site_fract_x
 _atom_site_fract_y
 _atom_site_fract_z
 _atom_site_occupancy
  Fe  Fe0  1  0.92693908  0.49926298  0.49978399  1
  Fe  Fe1  1  0.42752804  0.25077999  0.75031998  1
  Fe  Fe2  1  0.92592802  0.00035400  0.99996599  1
  Fe  Fe3  1  0.42889410  0.74960697  0.25001098  1
  H  H4  1  0.14276304  0.34210398  0.23152499  1
  H  H5  1  0.64276503  0.09125200  0.48206200  1
  H  H6  1  0.14206410  0.84279996  0.73168796  1
  H  H7  1  0.64291308  0.59206097  0.98148297  1
  H  H8  1  0.71626404  0.15795899  0.26840600  1
  H  H9  1  0.21671811  0.90711096  0.51826896  1
  H  H10  1  0.71580809  0.65866597  0.76809797  1
  O  O11  1  0.21615305  0.40800898  0.01846399  1
  O  O12  1  0.03795306  0.49938098  0.28132598  1
  O  O13  1  0.53704104  0.24893399  0.53141599  1
  O  O14  1  0.03664100  0.00007800  0.78147099  1
  O  O15  1  0.53691610  0.74937497  0.03123698  1
  O  O16  1  0.81856102  0.00066400  0.21863001  1
  O  O17  1  0.31811910  0.74984197  0.46847497  1
  O  O18  1  0.81750508  0.50104798  0.71868098  1
  O  O19  1  0.31726204  0.25071199  0.96868798  1
