# generated using pymatgen
data_SrZnH10
_symmetry_space_group_name_H-M   'P 1'
_cell_length_a   5.17264414
_cell_length_b   5.20513201
_cell_length_c   7.42035627
_cell_angle_alpha   110.16349792
_cell_angle_beta   110.39830017
_cell_angle_gamma   90.00000000
_symmetry_Int_Tables_number   1
_chemical_formula_structural   SrZnH10
_chemical_formula_sum   'Sr1 Zn1 H10'
_cell_volume   174.13649064
_cell_formula_units_Z   1
loop_
 _symmetry_equiv_pos_site_id
 _symmetry_equiv_pos_as_xyz
  1  'x, y, z'
loop_
 _atom_site_type_symbol
 _atom_site_label
 _atom_site_symmetry_multiplicity
 _atom_site_fract_x
 _atom_site_fract_y
 _atom_site_fract_z
 _atom_site_occupancy
  Sr  Sr0  1  0.00000002  0.50000003  0.50000002  1
  Zn  Zn1  1  0.50000000  0.00000000  0.50000001  1
  H  H2  1  0.25661501  0.25000002  0.00000002  1
  H  H3  1  0.74338503  0.75000005  0.00000007  1
  H  H4  1  0.08034803  0.64012304  0.77318202  1
  H  H5  1  0.30716604  0.85987706  0.22681805  1
  H  H6  1  0.91965201  0.35987702  0.22681805  1
  H  H7  1  0.69283400  0.14012301  0.77318202  1
  H  H8  1  0.29501203  0.74270705  0.53745104  1
  H  H9  1  0.75756103  0.75729305  0.46254906  1
  H  H10  1  0.70498801  0.25729302  0.46254903  1
  H  H11  1  0.24243901  0.24270702  0.53745101  1
