# generated using pymatgen
data_MnO
_symmetry_space_group_name_H-M   'P 1'
_cell_length_a   3.17238808
_cell_length_b   3.17238808
_cell_length_c   11.26630402
_cell_angle_alpha   98.09362030
_cell_angle_beta   98.09362030
_cell_angle_gamma   90.00000000
_symmetry_Int_Tables_number   1
_chemical_formula_structural   MnO
_chemical_formula_sum   'Mn5 O5'
_cell_volume   111.11435358
_cell_formula_units_Z   5
loop_
 _symmetry_equiv_pos_site_id
 _symmetry_equiv_pos_as_xyz
  1  'x, y, z'
loop_
 _atom_site_type_symbol
 _atom_site_label
 _atom_site_symmetry_multiplicity
 _atom_site_fract_x
 _atom_site_fract_y
 _atom_site_fract_z
 _atom_site_occupancy
  Mn  Mn0  1  0.40289499  0.40289499  0.80579001  1
  Mn  Mn1  1  0.80104199  0.80104198  0.60208401  1
  Mn  Mn2  1  0.19895800  0.19895800  0.39791601  1
  Mn  Mn3  1  0.59710499  0.59710499  0.19421001  1
  Mn  Mn4  1  0.00000000  0.00000000  0.00000000  1
  O  O5  1  0.09595000  0.09595000  0.19190000  1
  O  O6  1  0.49999999  0.49999999  0.00000000  1
  O  O7  1  0.90404998  0.90404998  0.80810002  1
  O  O8  1  0.30052599  0.30052599  0.60105201  1
  O  O9  1  0.69947399  0.69947398  0.39894801  1
