# generated using pymatgen
data_HoAgSe2
_symmetry_space_group_name_H-M   'P 1'
_cell_length_a   5.73761988
_cell_length_b   5.73761988
_cell_length_c   7.39012432
_cell_angle_alpha   112.84223938
_cell_angle_beta   112.84223938
_cell_angle_gamma   90.00000000
_symmetry_Int_Tables_number   1
_chemical_formula_structural   HoAgSe2
_chemical_formula_sum   'Ho2 Ag2 Se4'
_cell_volume   203.34449542
_cell_formula_units_Z   2
loop_
 _symmetry_equiv_pos_site_id
 _symmetry_equiv_pos_as_xyz
  1  'x, y, z'
loop_
 _atom_site_type_symbol
 _atom_site_label
 _atom_site_symmetry_multiplicity
 _atom_site_fract_x
 _atom_site_fract_y
 _atom_site_fract_z
 _atom_site_occupancy
  Ho  Ho0  1  0.74616702  0.74616702  0.49233401  1
  Ho  Ho1  1  0.49616702  0.99616702  0.99233402  1
  Ag  Ag2  1  0.21831001  0.21831001  0.43662001  1
  Ag  Ag3  1  0.96831003  0.46831001  0.93662002  1
  Se  Se4  1  0.51176402  0.51176401  0.02352801  1
  Se  Se5  1  0.26176401  0.76176402  0.52352801  1
  Se  Se6  1  0.98375903  0.98375902  0.96751802  1
  Se  Se7  1  0.73375902  0.23375901  0.46751801  1
