# generated using pymatgen
data_ZnWO4
_symmetry_space_group_name_H-M   'P 1'
_cell_length_a   4.74968576
_cell_length_b   4.96663189
_cell_length_c   5.84546995
_cell_angle_alpha   90.00000000
_cell_angle_beta   90.00000000
_cell_angle_gamma   90.95785522
_symmetry_Int_Tables_number   1
_chemical_formula_structural   ZnWO4
_chemical_formula_sum   'Zn2 W2 O8'
_cell_volume   137.87502093
_cell_formula_units_Z   2
loop_
 _symmetry_equiv_pos_site_id
 _symmetry_equiv_pos_as_xyz
  1  'x, y, z'
loop_
 _atom_site_type_symbol
 _atom_site_label
 _atom_site_symmetry_multiplicity
 _atom_site_fract_x
 _atom_site_fract_y
 _atom_site_fract_z
 _atom_site_occupancy
  Zn  Zn0  1  0.50000001  0.75000002  0.30968500  1
  Zn  Zn1  1  0.50000002  0.25000001  0.69031501  1
  W  W2  1  -0.00000000  0.25000001  0.18480300  1
  W  W3  1  -0.00000001  0.75000002  0.81519701  1
  O  O4  1  0.25673801  0.40555701  0.37408900  1
  O  O5  1  0.74326204  0.09444300  0.37408900  1
  O  O6  1  0.74326203  0.59444302  0.62591101  1
  O  O7  1  0.25673800  0.90555703  0.62591101  1
  O  O8  1  0.78422703  0.56173602  0.10512700  1
  O  O9  1  0.21577300  0.93826403  0.10512700  1
  O  O10  1  0.21577300  0.43826401  0.89487301  1
  O  O11  1  0.78422704  0.06173600  0.89487301  1
