# generated using pymatgen
data_Ba4BrCl5
_symmetry_space_group_name_H-M   'P 1'
_cell_length_a   4.39131212
_cell_length_b   6.29693413
_cell_length_c   11.71348000
_cell_angle_alpha   105.59227753
_cell_angle_beta   100.80382538
_cell_angle_gamma   90.00000000
_symmetry_Int_Tables_number   1
_chemical_formula_structural   Ba4BrCl5
_chemical_formula_sum   'Ba4 Br1 Cl5'
_cell_volume   306.01423727
_cell_formula_units_Z   1
loop_
 _symmetry_equiv_pos_site_id
 _symmetry_equiv_pos_as_xyz
  1  'x, y, z'
loop_
 _atom_site_type_symbol
 _atom_site_label
 _atom_site_symmetry_multiplicity
 _atom_site_fract_x
 _atom_site_fract_y
 _atom_site_fract_z
 _atom_site_occupancy
  Ba  Ba0  1  0.40203597  0.40203599  0.80407200  1
  Ba  Ba1  1  0.80527195  0.80527197  0.61054398  1
  Ba  Ba2  1  0.19472799  0.19472799  0.38945600  1
  Ba  Ba3  1  0.59796396  0.59796398  0.19592798  1
  Br  Br4  1  0.00000000  0.00000000  0.00000000  1
  Cl  Cl5  1  0.20148697  0.70148697  0.40297398  1
  Cl  Cl6  1  0.58916798  0.08916800  0.17833599  1
  Cl  Cl7  1  -0.00000002  0.49999998  -0.00000002  1
  Cl  Cl8  1  0.41083196  0.91083197  0.82166398  1
  Cl  Cl9  1  0.79851296  0.29851299  0.59702599  1
