# generated using pymatgen
data_Si3P3Rh
_symmetry_space_group_name_H-M   'P 1'
_cell_length_a   4.92099810
_cell_length_b   4.93932629
_cell_length_c   5.53702736
_cell_angle_alpha   108.81163788
_cell_angle_beta   108.13214874
_cell_angle_gamma   95.05767059
_symmetry_Int_Tables_number   1
_chemical_formula_structural   Si3P3Rh
_chemical_formula_sum   'Si3 P3 Rh1'
_cell_volume   118.38179531
_cell_formula_units_Z   1
loop_
 _symmetry_equiv_pos_site_id
 _symmetry_equiv_pos_as_xyz
  1  'x, y, z'
loop_
 _atom_site_type_symbol
 _atom_site_label
 _atom_site_symmetry_multiplicity
 _atom_site_fract_x
 _atom_site_fract_y
 _atom_site_fract_z
 _atom_site_occupancy
  Si  Si0  1  0.58495098  0.60121001  0.36312195  1
  Si  Si1  1  0.40333498  0.41120400  0.63480496  1
  Si  Si2  1  0.71328497  0.15904300  0.15939996  1
  P  P3  1  0.83872297  0.29221500  0.84313494  1
  P  P4  1  0.15051699  0.70709901  0.14719396  1
  P  P5  1  0.29327099  0.84176301  0.85265095  1
  Rh  Rh6  1  0.00151700  0.00186600  0.49969300  1
