# generated using pymatgen
data_AlAgS2
_symmetry_space_group_name_H-M   'P 1'
_cell_length_a   5.65578413
_cell_length_b   5.65578413
_cell_length_c   6.94635010
_cell_angle_alpha   114.02308655
_cell_angle_beta   114.02308655
_cell_angle_gamma   90.00000000
_symmetry_Int_Tables_number   1
_chemical_formula_structural   AlAgS2
_chemical_formula_sum   'Al2 Ag2 S4'
_cell_volume   181.67838414
_cell_formula_units_Z   2
loop_
 _symmetry_equiv_pos_site_id
 _symmetry_equiv_pos_as_xyz
  1  'x, y, z'
loop_
 _atom_site_type_symbol
 _atom_site_label
 _atom_site_symmetry_multiplicity
 _atom_site_fract_x
 _atom_site_fract_y
 _atom_site_fract_z
 _atom_site_occupancy
  Al  Al0  1  0.24999997  0.74999997  0.49999997  1
  Al  Al1  1  0.49999997  0.49999998  -0.00000003  1
  Ag  Ag2  1  0.00000000  0.00000000  0.00000000  1
  Ag  Ag3  1  0.74999997  0.24999999  0.49999998  1
  S  S4  1  0.18040498  0.62499998  0.74999998  1
  S  S5  1  0.37499998  0.43040498  0.24999998  1
  S  S6  1  0.56959498  0.12500000  0.74999998  1
  S  S7  1  0.87499995  0.81959497  0.24999996  1
