# generated using pymatgen
data_RbAlNiF6
_symmetry_space_group_name_H-M   'P 1'
_cell_length_a   7.09100580
_cell_length_b   7.12141752
_cell_length_c   7.12141752
_cell_angle_alpha   60.17375183
_cell_angle_beta   60.14116287
_cell_angle_gamma   60.14116287
_symmetry_Int_Tables_number   1
_chemical_formula_structural   RbAlNiF6
_chemical_formula_sum   'Rb2 Al2 Ni2 F12'
_cell_volume   255.16350914
_cell_formula_units_Z   2
loop_
 _symmetry_equiv_pos_site_id
 _symmetry_equiv_pos_as_xyz
  1  'x, y, z'
loop_
 _atom_site_type_symbol
 _atom_site_label
 _atom_site_symmetry_multiplicity
 _atom_site_fract_x
 _atom_site_fract_y
 _atom_site_fract_z
 _atom_site_occupancy
  Rb  Rb0  1  0.86786301  0.88213701  0.38213699  1
  Rb  Rb1  1  0.13213700  0.11786300  0.61786300  1
  Al  Al2  1  -0.00000002  0.50000001  0.00000001  1
  Al  Al3  1  0.50000001  0.50000001  -0.00000001  1
  Ni  Ni4  1  0.50000001  0.50000001  0.50000000  1
  Ni  Ni5  1  0.49999999  1.00000001  0.00000001  1
  F  F6  1  0.80106302  0.44893701  0.94893699  1
  F  F7  1  0.41165199  0.83834801  0.33834801  1
  F  F8  1  0.41828099  0.80348601  0.93993501  1
  F  F9  1  0.83829802  0.43993501  0.30348598  1
  F  F10  1  0.41828100  0.43993501  0.30348600  1
  F  F11  1  0.83829801  0.80348601  0.93993500  1
  F  F12  1  0.19893699  0.55106301  0.05106301  1
  F  F13  1  0.58834802  0.16165200  0.66165199  1
  F  F14  1  0.58171902  0.19651400  0.06006498  1
  F  F15  1  0.16170199  0.56006501  0.69651401  1
  F  F16  1  0.58171901  0.56006501  0.69651400  1
  F  F17  1  0.16170200  0.19651400  0.06006500  1
