# generated using pymatgen
data_NaHO
_symmetry_space_group_name_H-M   'P 1'
_cell_length_a   3.38049603
_cell_length_b   3.64313412
_cell_length_c   5.64919806
_cell_angle_alpha   90.00000000
_cell_angle_beta   79.81485748
_cell_angle_gamma   90.00000000
_symmetry_Int_Tables_number   1
_chemical_formula_structural   NaHO
_chemical_formula_sum   'Na2 H2 O2'
_cell_volume   68.47689519
_cell_formula_units_Z   2
loop_
 _symmetry_equiv_pos_site_id
 _symmetry_equiv_pos_as_xyz
  1  'x, y, z'
loop_
 _atom_site_type_symbol
 _atom_site_label
 _atom_site_symmetry_multiplicity
 _atom_site_fract_x
 _atom_site_fract_y
 _atom_site_fract_z
 _atom_site_occupancy
  Na  Na0  1  0.91646799  0.00000000  0.30898400  1
  Na  Na1  1  0.10218800  0.49999998  0.73406998  1
  H  H2  1  0.54547900  0.99999997  0.88888398  1
  H  H3  1  0.52311300  0.49999998  0.37824099  1
  O  O4  1  0.61942399  0.00000000  0.71473299  1
  O  O5  1  0.35063400  0.49999998  0.25776100  1
