# generated using pymatgen
data_SiSe5
_symmetry_space_group_name_H-M   'P 1'
_cell_length_a   5.77229595
_cell_length_b   5.77229595
_cell_length_c   5.77229595
_cell_angle_alpha   90.00000000
_cell_angle_beta   90.00000000
_cell_angle_gamma   90.00000000
_symmetry_Int_Tables_number   1
_chemical_formula_structural   SiSe5
_chemical_formula_sum   'Si2 Se10'
_cell_volume   192.32944095
_cell_formula_units_Z   2
loop_
 _symmetry_equiv_pos_site_id
 _symmetry_equiv_pos_as_xyz
  1  'x, y, z'
loop_
 _atom_site_type_symbol
 _atom_site_label
 _atom_site_symmetry_multiplicity
 _atom_site_fract_x
 _atom_site_fract_y
 _atom_site_fract_z
 _atom_site_occupancy
  Si  Si0  1  0.50175400  0.49824600  0.99824601  1
  Si  Si1  1  0.49824600  0.99824601  0.50175400  1
  Se  Se2  1  0.99824601  0.50175400  0.49824600  1
  Se  Se3  1  0.00175400  0.00175400  0.00175400  1
  Se  Se4  1  0.12395400  0.87604601  0.37604600  1
  Se  Se5  1  0.87604601  0.37604600  0.12395400  1
  Se  Se6  1  0.37604600  0.12395400  0.87604601  1
  Se  Se7  1  0.62395401  0.62395401  0.62395401  1
  Se  Se8  1  0.87687101  0.12312900  0.62312901  1
  Se  Se9  1  0.12312900  0.62312901  0.87687101  1
  Se  Se10  1  0.62312901  0.87687101  0.12312900  1
  Se  Se11  1  0.37687100  0.37687100  0.37687100  1
