# generated using pymatgen
data_NaYSe
_symmetry_space_group_name_H-M   'P 1'
_cell_length_a   4.26154184
_cell_length_b   4.26154184
_cell_length_c   7.75115442
_cell_angle_alpha   74.04411316
_cell_angle_beta   74.04411316
_cell_angle_gamma   60.00000381
_symmetry_Int_Tables_number   1
_chemical_formula_structural   NaYSe
_chemical_formula_sum   'Na1 Y1 Se1'
_cell_volume   115.60293366
_cell_formula_units_Z   1
loop_
 _symmetry_equiv_pos_site_id
 _symmetry_equiv_pos_as_xyz
  1  'x, y, z'
loop_
 _atom_site_type_symbol
 _atom_site_label
 _atom_site_symmetry_multiplicity
 _atom_site_fract_x
 _atom_site_fract_y
 _atom_site_fract_z
 _atom_site_occupancy
  Y  Y0  1  0.26431799  0.26431799  0.20704599  1
  Na  Na1  1  0.73568197  0.73568198  0.79295399  1
  Se  Se2  1  0.00000000  0.00000000  0.00000000  1
