# generated using pymatgen
data_Mg2Al(AsO3)2
_symmetry_space_group_name_H-M   'P 1'
_cell_length_a   4.84531116
_cell_length_b   5.46197939
_cell_length_c   5.46197939
_cell_angle_alpha   74.63882446
_cell_angle_beta   82.00590515
_cell_angle_gamma   97.99409485
_symmetry_Int_Tables_number   1
_chemical_formula_structural   Mg2Al(AsO3)2
_chemical_formula_sum   'Mg2 Al1 As2 O6'
_cell_volume   135.67025516
_cell_formula_units_Z   1
loop_
 _symmetry_equiv_pos_site_id
 _symmetry_equiv_pos_as_xyz
  1  'x, y, z'
loop_
 _atom_site_type_symbol
 _atom_site_label
 _atom_site_symmetry_multiplicity
 _atom_site_fract_x
 _atom_site_fract_y
 _atom_site_fract_z
 _atom_site_occupancy
  Mg  Mg0  1  0.50000002  0.68927400  0.68927396  1
  Mg  Mg1  1  0.50000001  0.31072600  0.31072598  1
  As  As2  1  0.10079403  0.76388500  0.23611498  1
  As  As3  1  0.89920599  0.23611500  0.76388496  1
  Al  Al4  1  0.29306904  0.93056899  0.39856897  1
  O  O5  1  0.70693101  0.39856900  0.93056896  1
  O  O6  1  0.70693099  0.06943100  0.60143097  1
  O  O7  1  0.29306902  0.60143100  0.06943098  1
  O  O8  1  0.00000000  0.00000000  0.00000000  1
  O  O9  1  0.77415701  0.59476000  0.40523996  1
  O  O10  1  0.22584301  0.40524000  0.59475998  1
