# generated using pymatgen
data_NaFeN
_symmetry_space_group_name_H-M   'P 1'
_cell_length_a   3.00739169
_cell_length_b   3.00739169
_cell_length_c   9.87160969
_cell_angle_alpha   90.00000000
_cell_angle_beta   90.00000000
_cell_angle_gamma   119.99995422
_symmetry_Int_Tables_number   1
_chemical_formula_structural   NaFeN
_chemical_formula_sum   'Na2 Fe2 N2'
_cell_volume   77.32123794
_cell_formula_units_Z   2
loop_
 _symmetry_equiv_pos_site_id
 _symmetry_equiv_pos_as_xyz
  1  'x, y, z'
loop_
 _atom_site_type_symbol
 _atom_site_label
 _atom_site_symmetry_multiplicity
 _atom_site_fract_x
 _atom_site_fract_y
 _atom_site_fract_z
 _atom_site_occupancy
  Na  Na0  1  0.33333339  0.66666670  0.23836401  1
  Na  Na1  1  0.66666670  0.33333335  0.73836402  1
  Fe  Fe2  1  0.00000208  0.99999706  0.48190602  1
  Fe  Fe3  1  0.99999802  0.00000300  0.98190603  1
  N  N4  1  0.66666670  0.33333335  0.43509101  1
  N  N5  1  0.33333339  0.66666670  0.93509103  1
