# generated using pymatgen
data_In5AgSe5S8
_symmetry_space_group_name_H-M   'P 1'
_cell_length_a   6.66227484
_cell_length_b   7.21835709
_cell_length_c   10.79396152
_cell_angle_alpha   99.86359406
_cell_angle_beta   93.21435547
_cell_angle_gamma   92.46442413
_symmetry_Int_Tables_number   1
_chemical_formula_structural   In5AgSe5S8
_chemical_formula_sum   'In5 Ag1 Se5 S8'
_cell_volume   509.88070801
_cell_formula_units_Z   1
loop_
 _symmetry_equiv_pos_site_id
 _symmetry_equiv_pos_as_xyz
  1  'x, y, z'
loop_
 _atom_site_type_symbol
 _atom_site_label
 _atom_site_symmetry_multiplicity
 _atom_site_fract_x
 _atom_site_fract_y
 _atom_site_fract_z
 _atom_site_occupancy
  In  In0  1  0.05291499  0.13108100  0.65422598  1
  In  In1  1  0.94767397  0.87023902  0.34441604  1
  In  In2  1  0.84872100  0.37378701  0.80097400  1
  In  In3  1  0.15617397  0.63252601  0.19819102  1
  In  In4  1  0.67187199  0.46072201  0.12043903  1
  Ag  Ag5  1  0.32716598  0.54170801  0.88031199  1
  Se  Se6  1  0.49922295  0.99920902  0.49872803  1
  S  S7  1  0.86553597  0.85471302  0.98549201  1
  Se  Se8  1  0.13146799  0.14721600  0.01783201  1
  Se  Se9  1  0.72311900  0.29645101  0.31814001  1
  Se  Se10  1  0.27473096  0.70094702  0.68009500  1
  Se  Se11  1  0.76234498  0.65755801  0.59346701  1
  S  S12  1  0.23805099  0.34201601  0.40688500  1
  S  S13  1  0.49147301  0.11265200  0.84162898  1
  S  S14  1  0.51087096  0.87828702  0.15984104  1
  S  S15  1  0.71342298  0.57483901  0.94365999  1
  S  S16  1  0.28653298  0.42758101  0.05746002  1
  S  S17  1  0.22118895  0.90293302  0.54926002  1
  S  S18  1  0.77751401  0.09553700  0.44895300  1
