# generated using pymatgen
data_Zn2InCl6
_symmetry_space_group_name_H-M   'P 1'
_cell_length_a   6.73637629
_cell_length_b   6.73637629
_cell_length_c   7.16688728
_cell_angle_alpha   61.96796417
_cell_angle_beta   61.96796417
_cell_angle_gamma   59.99999619
_symmetry_Int_Tables_number   1
_chemical_formula_structural   Zn2InCl6
_chemical_formula_sum   'Zn2 In1 Cl6'
_cell_volume   236.57320490
_cell_formula_units_Z   1
loop_
 _symmetry_equiv_pos_site_id
 _symmetry_equiv_pos_as_xyz
  1  'x, y, z'
loop_
 _atom_site_type_symbol
 _atom_site_label
 _atom_site_symmetry_multiplicity
 _atom_site_fract_x
 _atom_site_fract_y
 _atom_site_fract_z
 _atom_site_occupancy
  Zn  Zn0  1  0.49999999  0.50000000  0.50000002  1
  In  In1  1  0.76570599  0.76570601  0.70288204  1
  Zn  Zn2  1  0.23429400  0.23429400  0.29711801  1
  Cl  Cl3  1  0.15240699  0.39246100  0.72994101  1
  Cl  Cl4  1  0.72519100  0.15240700  0.72994102  1
  Cl  Cl5  1  0.39246099  0.72519101  0.72994103  1
  Cl  Cl6  1  0.60753900  0.27480900  0.27005902  1
  Cl  Cl7  1  0.27480898  0.84759301  0.27005903  1
  Cl  Cl8  1  0.84759299  0.60753901  0.27005903  1
