# generated using pymatgen
data_CsCaBr3
_symmetry_space_group_name_H-M   'P 1'
_cell_length_a   7.88444901
_cell_length_b   8.19782925
_cell_length_c   11.33868599
_cell_angle_alpha   90.00000000
_cell_angle_beta   90.00000000
_cell_angle_gamma   90.00000000
_symmetry_Int_Tables_number   1
_chemical_formula_structural   CsCaBr3
_chemical_formula_sum   'Cs4 Ca4 Br12'
_cell_volume   732.88012622
_cell_formula_units_Z   4
loop_
 _symmetry_equiv_pos_site_id
 _symmetry_equiv_pos_as_xyz
  1  'x, y, z'
loop_
 _atom_site_type_symbol
 _atom_site_label
 _atom_site_symmetry_multiplicity
 _atom_site_fract_x
 _atom_site_fract_y
 _atom_site_fract_z
 _atom_site_occupancy
  Cs  Cs0  1  0.01801900  0.44107999  0.25000000  1
  Cs  Cs1  1  0.98198100  0.55891998  0.75000000  1
  Cs  Cs2  1  0.51801900  0.05892000  0.75000000  1
  Cs  Cs3  1  0.48198100  0.94107997  0.25000000  1
  Ca  Ca4  1  0.00000000  0.00000000  0.00000000  1
  Ca  Ca5  1  0.50000000  0.49999998  -0.00000000  1
  Ca  Ca6  1  0.00000000  0.00000000  0.50000000  1
  Ca  Ca7  1  0.50000000  0.49999998  0.50000000  1
  Br  Br8  1  0.29461100  0.20903499  0.04117200  1
  Br  Br9  1  0.70538900  0.79096498  0.95882800  1
  Br  Br10  1  0.79461100  0.29096499  0.95882800  1
  Br  Br11  1  0.70538900  0.79096498  0.54117200  1
  Br  Br12  1  0.20538900  0.70903498  0.04117200  1
  Br  Br13  1  0.29461100  0.20903499  0.45882800  1
  Br  Br14  1  0.20538900  0.70903498  0.45882800  1
  Br  Br15  1  0.79461100  0.29096499  0.54117200  1
  Br  Br16  1  0.58013100  0.52145498  0.25000000  1
  Br  Br17  1  0.41986900  0.47854499  0.75000000  1
  Br  Br18  1  0.08013100  0.97854497  0.75000000  1
  Br  Br19  1  0.91986900  0.02145500  0.25000000  1
