# generated using pymatgen
data_Sr(H2N)2
_symmetry_space_group_name_H-M   'P 1'
_cell_length_a   5.51313210
_cell_length_b   5.51313210
_cell_length_c   6.74512577
_cell_angle_alpha   114.12164307
_cell_angle_beta   114.12164307
_cell_angle_gamma   90.00000000
_symmetry_Int_Tables_number   1
_chemical_formula_structural   Sr(H2N)2
_chemical_formula_sum   'Sr2 H8 N4'
_cell_volume   167.30691179
_cell_formula_units_Z   2
loop_
 _symmetry_equiv_pos_site_id
 _symmetry_equiv_pos_as_xyz
  1  'x, y, z'
loop_
 _atom_site_type_symbol
 _atom_site_label
 _atom_site_symmetry_multiplicity
 _atom_site_fract_x
 _atom_site_fract_y
 _atom_site_fract_z
 _atom_site_occupancy
  Sr  Sr0  1  0.74999998  0.24999999  0.50000000  1
  Sr  Sr1  1  0.00000000  0.00000000  0.00000000  1
  H  H2  1  0.45140499  0.80484198  0.90281000  1
  H  H3  1  0.45140499  0.09796800  0.90281000  1
  H  H4  1  0.29859499  0.15203200  0.59719000  1
  H  H5  1  0.29859499  0.44515799  0.59719000  1
  H  H6  1  0.90203198  0.54859499  0.09718999  1
  H  H7  1  0.19515799  0.54859499  0.09719000  1
  H  H8  1  0.55484198  0.70140498  0.40281000  1
  H  H9  1  0.84796798  0.70140498  0.40280999  1
  N  N10  1  0.99032098  0.49032099  0.98064200  1
  N  N11  1  0.75967898  0.75967898  0.51935799  1
  N  N12  1  0.50967899  0.00967900  0.01935800  1
  N  N13  1  0.24032099  0.24032099  0.48064200  1
