# generated using pymatgen
data_Mg5Ti(TeO6)2
_symmetry_space_group_name_H-M   'P 1'
_cell_length_a   6.11674976
_cell_length_b   6.11674976
_cell_length_c   6.11675072
_cell_angle_alpha   90.66936493
_cell_angle_beta   90.66936493
_cell_angle_gamma   90.66935730
_symmetry_Int_Tables_number   1
_chemical_formula_structural   Mg5Ti(TeO6)2
_chemical_formula_sum   'Mg5 Ti1 Te2 O12'
_cell_volume   228.80873072
_cell_formula_units_Z   1
loop_
 _symmetry_equiv_pos_site_id
 _symmetry_equiv_pos_as_xyz
  1  'x, y, z'
loop_
 _atom_site_type_symbol
 _atom_site_label
 _atom_site_symmetry_multiplicity
 _atom_site_fract_x
 _atom_site_fract_y
 _atom_site_fract_z
 _atom_site_occupancy
  Mg  Mg0  1  0.55326899  0.24810300  0.06419204  1
  Mg  Mg1  1  0.06419197  0.55326901  0.24810303  1
  Mg  Mg2  1  0.75189696  0.93580801  0.44673109  1
  Mg  Mg3  1  0.93580799  0.44673101  0.75189707  1
  Mg  Mg4  1  0.44673096  0.75189701  0.93580806  1
  Ti  Ti5  1  0.24810300  0.06419200  0.55326902  1
  Te  Te6  1  0.00000000  0.00000000  0.00000000  1
  Te  Te7  1  0.49999998  0.50000001  0.50000005  1
  O  O8  1  0.59047998  0.45573601  0.80210406  1
  O  O9  1  0.45573596  0.80210401  0.59048007  1
  O  O10  1  0.80210398  0.59048001  0.45573607  1
  O  O11  1  0.40951998  0.54426401  0.19789605  1
  O  O12  1  0.54426400  0.19789600  0.40952004  1
  O  O13  1  0.19789598  0.40952001  0.54426403  1
  O  O14  1  0.06869295  0.92648901  0.30191505  1
  O  O15  1  0.92648900  0.30191500  0.06869307  1
  O  O16  1  0.69808496  0.93130701  0.07351109  1
  O  O17  1  0.07351096  0.69808501  0.93130704  1
  O  O18  1  0.93130701  0.07351100  0.69808505  1
  O  O19  1  0.30191500  0.06869300  0.92648902  1
