# generated using pymatgen
data_InGaCuSe4
_symmetry_space_group_name_H-M   'P 1'
_cell_length_a   5.82767820
_cell_length_b   5.82767820
_cell_length_c   7.15338421
_cell_angle_alpha   114.03766632
_cell_angle_beta   114.03766632
_cell_angle_gamma   90.00000000
_symmetry_Int_Tables_number   1
_chemical_formula_structural   InGaCuSe4
_chemical_formula_sum   'In1 Ga1 Cu1 Se4'
_cell_volume   198.58233756
_cell_formula_units_Z   1
loop_
 _symmetry_equiv_pos_site_id
 _symmetry_equiv_pos_as_xyz
  1  'x, y, z'
loop_
 _atom_site_type_symbol
 _atom_site_label
 _atom_site_symmetry_multiplicity
 _atom_site_fract_x
 _atom_site_fract_y
 _atom_site_fract_z
 _atom_site_occupancy
  In  In0  1  0.49999998  0.49999998  0.00000000  1
  Ga  Ga1  1  0.24999999  0.74999998  0.50000002  1
  Cu  Cu2  1  0.74999998  0.24999999  0.50000002  1
  Se  Se3  1  0.36245399  0.92668397  0.24063101  1
  Se  Se4  1  0.07331600  0.12182300  0.75936902  1
  Se  Se5  1  0.87817697  0.31394699  0.24063101  1
  Se  Se6  1  0.68605298  0.63754598  0.75936903  1
