# generated using pymatgen
data_Li2Ti3(CoO4)2
_symmetry_space_group_name_H-M   'P 1'
_cell_length_a   5.68226528
_cell_length_b   5.68226528
_cell_length_c   5.86380148
_cell_angle_alpha   61.01893997
_cell_angle_beta   61.01893997
_cell_angle_gamma   60.00000763
_symmetry_Int_Tables_number   1
_chemical_formula_structural   Li2Ti3(CoO4)2
_chemical_formula_sum   'Li2 Ti3 Co2 O8'
_cell_volume   135.90237378
_cell_formula_units_Z   1
loop_
 _symmetry_equiv_pos_site_id
 _symmetry_equiv_pos_as_xyz
  1  'x, y, z'
loop_
 _atom_site_type_symbol
 _atom_site_label
 _atom_site_symmetry_multiplicity
 _atom_site_fract_x
 _atom_site_fract_y
 _atom_site_fract_z
 _atom_site_occupancy
  Li  Li0  1  0.00000000  0.00000000  0.50000000  1
  Li  Li1  1  0.50000002  1.00000001  0.50000003  1
  Ti  Ti2  1  0.00000001  0.50000001  0.50000001  1
  Ti  Ti3  1  0.00000000  0.00000000  0.00000000  1
  Ti  Ti4  1  0.50000002  1.00000001  0.00000003  1
  Co  Co5  1  0.50000002  0.50000001  0.00000002  1
  Co  Co6  1  0.00000001  0.50000001  0.00000001  1
  O  O7  1  0.73862802  0.23987000  0.78163202  1
  O  O8  1  0.23987001  0.23987000  0.78163201  1
  O  O9  1  0.23987001  0.73862801  0.78163202  1
  O  O10  1  0.73727302  0.73727301  0.78818103  1
  O  O11  1  0.26272701  0.26272700  0.21181901  1
  O  O12  1  0.76013002  0.26137200  0.21836802  1
  O  O13  1  0.76013002  0.76013001  0.21836803  1
  O  O14  1  0.26137201  0.76013001  0.21836802  1
