# generated using pymatgen
data_KBaSrSnTe4
_symmetry_space_group_name_H-M   'P 1'
_cell_length_a   7.42507744
_cell_length_b   7.42507744
_cell_length_c   7.42507744
_cell_angle_alpha   109.12422180
_cell_angle_beta   109.12422180
_cell_angle_gamma   110.16747284
_symmetry_Int_Tables_number   1
_chemical_formula_structural   KBaSrSnTe4
_chemical_formula_sum   'K1 Ba1 Sr1 Sn1 Te4'
_cell_volume   315.08874217
_cell_formula_units_Z   1
loop_
 _symmetry_equiv_pos_site_id
 _symmetry_equiv_pos_as_xyz
  1  'x, y, z'
loop_
 _atom_site_type_symbol
 _atom_site_label
 _atom_site_symmetry_multiplicity
 _atom_site_fract_x
 _atom_site_fract_y
 _atom_site_fract_z
 _atom_site_occupancy
  Ba  Ba0  1  0.50000000  0.00000000  0.50000000  1
  K  K1  1  0.00000004  0.50000002  0.50000002  1
  Sr  Sr2  1  0.50000004  0.50000002  0.00000002  1
  Sn  Sn3  1  0.00000000  0.00000000  0.00000000  1
  Te  Te4  1  0.62009808  0.99893504  0.00000003  1
  Te  Te5  1  0.99893505  0.62009802  0.00000002  1
  Te  Te6  1  0.37990203  0.37990202  0.37883701  1
  Te  Te7  1  0.00106500  0.00106500  0.62116300  1
