# generated using pymatgen
data_Ag2Hg2SBr3
_symmetry_space_group_name_H-M   'P 1'
_cell_length_a   4.11045504
_cell_length_b   9.57892895
_cell_length_c   10.10252571
_cell_angle_alpha   90.00000000
_cell_angle_beta   90.00000000
_cell_angle_gamma   90.00000000
_symmetry_Int_Tables_number   1
_chemical_formula_structural   Ag2Hg2SBr3
_chemical_formula_sum   'Ag4 Hg4 S2 Br6'
_cell_volume   397.77438974
_cell_formula_units_Z   2
loop_
 _symmetry_equiv_pos_site_id
 _symmetry_equiv_pos_as_xyz
  1  'x, y, z'
loop_
 _atom_site_type_symbol
 _atom_site_label
 _atom_site_symmetry_multiplicity
 _atom_site_fract_x
 _atom_site_fract_y
 _atom_site_fract_z
 _atom_site_occupancy
  Ag  Ag0  1  0.00000000  0.20736300  0.07631300  1
  Ag  Ag1  1  0.00000000  0.20736300  0.42368701  1
  Ag  Ag2  1  0.00000000  0.79263700  0.57631302  1
  Ag  Ag3  1  0.00000000  0.79263700  0.92368703  1
  Hg  Hg4  1  0.50000000  0.77989800  0.25000001  1
  Hg  Hg5  1  0.50000000  0.22010200  0.75000002  1
  Hg  Hg6  1  0.50000000  0.50000000  0.50000001  1
  Hg  Hg7  1  0.50000000  0.50000000  -0.00000000  1
  S  S8  1  0.50000000  0.24538300  0.99085503  1
  S  S9  1  0.50000000  0.24538300  0.50914501  1
  Br  Br10  1  0.50000000  0.75461700  0.00914500  1
  Br  Br11  1  0.50000000  0.75461700  0.49085501  1
  Br  Br12  1  0.00000000  0.55043100  0.75000002  1
  Br  Br13  1  0.00000000  0.44956900  0.25000001  1
  Br  Br14  1  0.00000000  0.97198501  0.75000002  1
  Br  Br15  1  0.00000000  0.02801500  0.25000001  1
