# generated using pymatgen
data_SnGeSe2
_symmetry_space_group_name_H-M   'P 1'
_cell_length_a   4.03801489
_cell_length_b   4.57280922
_cell_length_c   11.44638443
_cell_angle_alpha   90.00000000
_cell_angle_beta   90.00000000
_cell_angle_gamma   90.00000000
_symmetry_Int_Tables_number   1
_chemical_formula_structural   SnGeSe2
_chemical_formula_sum   'Sn2 Ge2 Se4'
_cell_volume   211.35830933
_cell_formula_units_Z   2
loop_
 _symmetry_equiv_pos_site_id
 _symmetry_equiv_pos_as_xyz
  1  'x, y, z'
loop_
 _atom_site_type_symbol
 _atom_site_label
 _atom_site_symmetry_multiplicity
 _atom_site_fract_x
 _atom_site_fract_y
 _atom_site_fract_z
 _atom_site_occupancy
  Sn  Sn0  1  0.50000001  0.35314198  0.38558899  1
  Sn  Sn1  1  0.50000001  0.64685797  0.88558897  1
  Ge  Ge2  1  0.00000000  0.12651899  0.62560898  1
  Ge  Ge3  1  0.00000000  0.87348096  0.12560900  1
  Se  Se4  1  0.00000000  0.23449999  0.84554697  1
  Se  Se5  1  0.00000000  0.76549996  0.34554699  1
  Se  Se6  1  0.50000001  0.23951799  0.14325499  1
  Se  Se7  1  0.50000001  0.76048196  0.64325498  1
