# generated using pymatgen
data_KBa5(SnS5)2
_symmetry_space_group_name_H-M   'P 1'
_cell_length_a   8.56661224
_cell_length_b   9.46515083
_cell_length_c   8.56661224
_cell_angle_alpha   116.90640259
_cell_angle_beta   90.00000000
_cell_angle_gamma   116.90640259
_symmetry_Int_Tables_number   1
_chemical_formula_structural   KBa5(SnS5)2
_chemical_formula_sum   'K1 Ba5 Sn2 S10'
_cell_volume   533.73814137
_cell_formula_units_Z   1
loop_
 _symmetry_equiv_pos_site_id
 _symmetry_equiv_pos_as_xyz
  1  'x, y, z'
loop_
 _atom_site_type_symbol
 _atom_site_label
 _atom_site_symmetry_multiplicity
 _atom_site_fract_x
 _atom_site_fract_y
 _atom_site_fract_z
 _atom_site_occupancy
  K  K0  1  0.74999997  0.49999998  0.74999997  1
  Ba  Ba1  1  0.24999998  0.49999998  0.24999998  1
  Ba  Ba2  1  0.16386000  0.00000000  0.66385998  1
  Ba  Ba3  1  0.83613998  0.00000000  0.33613999  1
  Ba  Ba4  1  0.66385998  0.00000000  0.83613998  1
  Ba  Ba5  1  0.33613999  0.00000000  0.16386000  1
  Sn  Sn6  1  0.74999997  0.49999998  0.24999998  1
  Sn  Sn7  1  0.24999998  0.49999998  0.74999997  1
  S  S8  1  0.49999999  0.00000000  0.49999999  1
  S  S9  1  0.00000000  0.00000000  0.00000000  1
  S  S10  1  0.49436498  0.29322599  0.99436497  1
  S  S11  1  0.79886097  0.29322599  0.29886099  1
  S  S12  1  0.99436497  0.29322599  0.79886097  1
  S  S13  1  0.29886099  0.29322599  0.49436498  1
  S  S14  1  0.50563497  0.70677398  0.00563499  1
  S  S15  1  0.20113898  0.70677398  0.70113897  1
  S  S16  1  0.00563499  0.70677398  0.20113898  1
  S  S17  1  0.70113897  0.70677398  0.50563497  1
