# generated using pymatgen
data_Tl2GaSiTe4
_symmetry_space_group_name_H-M   'P 1'
_cell_length_a   6.84201336
_cell_length_b   6.84201241
_cell_length_c   6.84201288
_cell_angle_alpha   105.52573395
_cell_angle_beta   105.52574158
_cell_angle_gamma   117.68806458
_symmetry_Int_Tables_number   1
_chemical_formula_structural   Tl2GaSiTe4
_chemical_formula_sum   'Tl2 Ga1 Si1 Te4'
_cell_volume   242.71051077
_cell_formula_units_Z   1
loop_
 _symmetry_equiv_pos_site_id
 _symmetry_equiv_pos_as_xyz
  1  'x, y, z'
loop_
 _atom_site_type_symbol
 _atom_site_label
 _atom_site_symmetry_multiplicity
 _atom_site_fract_x
 _atom_site_fract_y
 _atom_site_fract_z
 _atom_site_occupancy
  Tl  Tl0  1  0.00000003  0.50000002  0.50000002  1
  Tl  Tl1  1  0.50000002  0.00000000  0.50000002  1
  Ga  Ga2  1  0.50000005  0.50000002  1.00000004  1
  Si  Si3  1  0.00000000  0.00000000  0.00000000  1
  Te  Te4  1  0.06453503  0.40299602  0.00000001  1
  Te  Te5  1  0.40299602  0.06453500  0.00000000  1
  Te  Te6  1  0.59700406  0.59700403  0.66153903  1
  Te  Te7  1  0.93546509  0.93546505  0.33846103  1
