# generated using pymatgen
data_Nb6Te11Os2Se
_symmetry_space_group_name_H-M   'P 1'
_cell_length_a   8.21893787
_cell_length_b   8.21893787
_cell_length_c   8.21893787
_cell_angle_alpha   109.47122192
_cell_angle_beta   109.47122192
_cell_angle_gamma   109.47122192
_symmetry_Int_Tables_number   1
_chemical_formula_structural   Nb6Te11Os2Se
_chemical_formula_sum   'Nb6 Te11 Os2 Se1'
_cell_volume   427.39081201
_cell_formula_units_Z   1
loop_
 _symmetry_equiv_pos_site_id
 _symmetry_equiv_pos_as_xyz
  1  'x, y, z'
loop_
 _atom_site_type_symbol
 _atom_site_label
 _atom_site_symmetry_multiplicity
 _atom_site_fract_x
 _atom_site_fract_y
 _atom_site_fract_z
 _atom_site_occupancy
  Nb  Nb0  1  0.75000001  0.12500001  0.37500003  1
  Nb  Nb1  1  0.25000003  0.37500002  0.12500003  1
  Nb  Nb2  1  0.37500004  0.62500003  0.75000004  1
  Nb  Nb3  1  0.12500006  0.87500004  0.25000005  1
  Nb  Nb4  1  0.62500002  0.25000001  0.87500003  1
  Nb  Nb5  1  0.87500006  0.75000003  0.62500006  1
  Te  Te6  1  0.81510301  0.00000000  0.00000002  1
  Se  Se7  1  0.00000003  0.50000002  0.31510303  1
  Te  Te8  1  0.50000006  0.81510303  0.50000006  1
  Te  Te9  1  0.31510300  0.00000000  0.00000001  1
  Te  Te10  1  0.68489705  0.68489703  0.18489705  1
  Te  Te11  1  0.00000003  0.50000002  0.81510303  1
  Te  Te12  1  0.18489701  0.18489701  0.68489702  1
  Te  Te13  1  0.50000002  0.31510301  0.50000003  1
  Te  Te14  1  0.75000005  0.62500003  0.87500005  1
  Te  Te15  1  0.25000006  0.87500004  0.62500006  1
  Os  Os16  1  0.87500002  0.12500001  0.75000003  1
  Os  Os17  1  0.62500003  0.37500002  0.25000004  1
  Te  Te18  1  0.12500002  0.25000001  0.37500002  1
  Te  Te19  1  0.37500005  0.75000003  0.12500005  1
