# generated using pymatgen
data_Ga2AgTe4
_symmetry_space_group_name_H-M   'P 1'
_cell_length_a   6.28536415
_cell_length_b   6.28536415
_cell_length_c   7.45547056
_cell_angle_alpha   114.93103027
_cell_angle_beta   114.93103027
_cell_angle_gamma   90.00000000
_symmetry_Int_Tables_number   1
_chemical_formula_structural   Ga2AgTe4
_chemical_formula_sum   'Ga2 Ag1 Te4'
_cell_volume   236.47825009
_cell_formula_units_Z   1
loop_
 _symmetry_equiv_pos_site_id
 _symmetry_equiv_pos_as_xyz
  1  'x, y, z'
loop_
 _atom_site_type_symbol
 _atom_site_label
 _atom_site_symmetry_multiplicity
 _atom_site_fract_x
 _atom_site_fract_y
 _atom_site_fract_z
 _atom_site_occupancy
  Ga  Ga0  1  0.25000001  0.74999999  0.50000003  1
  Ga  Ga1  1  0.50000000  0.49999999  0.00000002  1
  Ag  Ag2  1  0.00000000  0.00000000  0.00000000  1
  Te  Te3  1  0.86377500  0.88107099  0.27649503  1
  Te  Te4  1  0.41272000  0.39542399  0.27649502  1
  Te  Te5  1  0.11892901  0.58727999  0.72350502  1
  Te  Te6  1  0.60457599  0.13622500  0.72350502  1
