# generated using pymatgen
data_Li5Co4O7
_symmetry_space_group_name_H-M   'P 1'
_cell_length_a   5.09079123
_cell_length_b   5.66119099
_cell_length_c   6.54054117
_cell_angle_alpha   90.55332184
_cell_angle_beta   89.90020752
_cell_angle_gamma   89.93024445
_symmetry_Int_Tables_number   1
_chemical_formula_structural   Li5Co4O7
_chemical_formula_sum   'Li5 Co4 O7'
_cell_volume   188.48879392
_cell_formula_units_Z   1
loop_
 _symmetry_equiv_pos_site_id
 _symmetry_equiv_pos_as_xyz
  1  'x, y, z'
loop_
 _atom_site_type_symbol
 _atom_site_label
 _atom_site_symmetry_multiplicity
 _atom_site_fract_x
 _atom_site_fract_y
 _atom_site_fract_z
 _atom_site_occupancy
  Li  Li0  1  0.99031295  0.08050900  0.61882202  1
  Li  Li1  1  0.50098395  0.41957402  0.12837901  1
  Li  Li2  1  0.99045292  0.57839102  0.87641401  1
  Li  Li3  1  0.50101893  0.91183203  0.37483699  1
  Li  Li4  1  0.50155593  0.91760403  0.87439098  1
  Co  Co5  1  0.98498295  0.09175700  0.13531103  1
  Co  Co6  1  0.49952095  0.41708802  0.62476800  1
  Co  Co7  1  0.99313992  0.58494802  0.37276001  1
  Co  Co8  1  0.39560198  0.06768300  0.10766601  1
  O  O9  1  0.39349698  0.09066800  0.64511800  1
  O  O10  1  0.88870394  0.42984302  0.12960702  1
  O  O11  1  0.87331794  0.42050102  0.61529101  1
  O  O12  1  0.37539195  0.57032602  0.38766999  1
  O  O13  1  0.39277695  0.60024202  0.86257498  1
  O  O14  1  0.88798791  0.90184003  0.37634000  1
  O  O15  1  0.85715291  0.91719403  0.87005199  1
