# generated using pymatgen
data_Y(BiO2)3
_symmetry_space_group_name_H-M   'P 1'
_cell_length_a   5.88498020
_cell_length_b   5.88498020
_cell_length_c   5.96132469
_cell_angle_alpha   90.69696808
_cell_angle_beta   119.07315826
_cell_angle_gamma   119.69931793
_symmetry_Int_Tables_number   1
_chemical_formula_structural   Y(BiO2)3
_chemical_formula_sum   'Y1 Bi3 O6'
_cell_volume   147.78765225
_cell_formula_units_Z   1
loop_
 _symmetry_equiv_pos_site_id
 _symmetry_equiv_pos_as_xyz
  1  'x, y, z'
loop_
 _atom_site_type_symbol
 _atom_site_label
 _atom_site_symmetry_multiplicity
 _atom_site_fract_x
 _atom_site_fract_y
 _atom_site_fract_z
 _atom_site_occupancy
  Y  Y0  1  0.00000000  0.00000000  0.00000000  1
  Bi  Bi1  1  -0.00000001  0.50000000  0.50000000  1
  Bi  Bi2  1  0.48120502  0.24597500  0.72718005  1
  Bi  Bi3  1  0.51879501  0.75402500  0.27282002  1
  O  O4  1  0.47170501  0.69398700  0.68506303  1
  O  O5  1  0.99107605  0.21335800  0.68506308  1
  O  O6  1  0.52829502  0.30601300  0.31493704  1
  O  O7  1  0.00892398  0.78664200  0.31493698  1
  O  O8  1  0.07500599  0.73393300  0.80893901  1
  O  O9  1  0.92499404  0.26606700  0.19106106  1
