# generated using pymatgen
data_Mn2CdInCuAg(SF4)2
_symmetry_space_group_name_H-M   'P 1'
_cell_length_a   6.90046692
_cell_length_b   6.90046692
_cell_length_c   6.90046692
_cell_angle_alpha   60.00000000
_cell_angle_beta   60.00000000
_cell_angle_gamma   60.00000000
_symmetry_Int_Tables_number   1
_chemical_formula_structural   Mn2CdInCuAg(SF4)2
_chemical_formula_sum   'Mn2 Cd1 In1 Cu1 Ag1 S2 F8'
_cell_volume   232.33810175
_cell_formula_units_Z   1
loop_
 _symmetry_equiv_pos_site_id
 _symmetry_equiv_pos_as_xyz
  1  'x, y, z'
loop_
 _atom_site_type_symbol
 _atom_site_label
 _atom_site_symmetry_multiplicity
 _atom_site_fract_x
 _atom_site_fract_y
 _atom_site_fract_z
 _atom_site_occupancy
  In  In0  1  0.50000001  0.50000001  0.50000001  1
  Cd  Cd1  1  0.00000000  0.00000000  0.00000000  1
  Cu  Cu2  1  0.50000001  0.00000000  0.50000001  1
  Ag  Ag3  1  0.50000001  0.50000001  -0.00000000  1
  Mn  Mn4  1  -0.00000000  0.50000001  0.50000001  1
  Mn  Mn5  1  -0.00000000  0.50000001  0.00000000  1
  S  S6  1  0.50000001  0.00000000  -0.00000000  1
  S  S7  1  -0.00000000  0.00000000  0.50000001  1
  F  F8  1  0.57495101  0.14168300  0.14168300  1
  F  F9  1  0.85831701  0.85831701  0.42504900  1
  F  F10  1  0.85831701  0.42504900  0.85831701  1
  F  F11  1  0.85831701  0.85831701  0.85831701  1
  F  F12  1  0.14168300  0.57495101  0.14168300  1
  F  F13  1  0.14168300  0.14168300  0.14168300  1
  F  F14  1  0.42504900  0.85831701  0.85831701  1
  F  F15  1  0.14168300  0.14168300  0.57495101  1
