# generated using pymatgen
data_Rb3SbO3
_symmetry_space_group_name_H-M   'P 1'
_cell_length_a   6.91650486
_cell_length_b   6.91650486
_cell_length_c   7.82823515
_cell_angle_alpha   94.19992065
_cell_angle_beta   94.19992065
_cell_angle_gamma   107.92452240
_symmetry_Int_Tables_number   1
_chemical_formula_structural   Rb3SbO3
_chemical_formula_sum   'Rb6 Sb2 O6'
_cell_volume   353.53926833
_cell_formula_units_Z   2
loop_
 _symmetry_equiv_pos_site_id
 _symmetry_equiv_pos_as_xyz
  1  'x, y, z'
loop_
 _atom_site_type_symbol
 _atom_site_label
 _atom_site_symmetry_multiplicity
 _atom_site_fract_x
 _atom_site_fract_y
 _atom_site_fract_z
 _atom_site_occupancy
  Rb  Rb0  1  0.32265797  0.32265798  0.34664398  1
  Rb  Rb1  1  0.19366293  0.80633696  0.49999997  1
  Rb  Rb2  1  0.80633696  0.19366299  0.49999997  1
  Rb  Rb3  1  0.77854596  0.22145399  -0.00000003  1
  Rb  Rb4  1  0.22145393  0.77854596  -0.00000003  1
  Rb  Rb5  1  0.67734193  0.67734197  0.65335596  1
  Sb  Sb6  1  0.26213897  0.26213899  0.82836698  1
  Sb  Sb7  1  0.73786092  0.73786096  0.17163295  1
  O  O8  1  0.97843390  0.97843395  0.24512694  1
  O  O9  1  0.47503497  0.20203299  0.69924898  1
  O  O10  1  0.20203296  0.47503498  0.69924898  1
  O  O11  1  0.79796694  0.52496497  0.30075096  1
  O  O12  1  0.52496492  0.79796696  0.30075096  1
  O  O13  1  0.02156600  0.02156600  0.75487300  1
