# generated using pymatgen
data_Cs3CuAsCl5
_symmetry_space_group_name_H-M   'P 1'
_cell_length_a   6.23114395
_cell_length_b   7.67701197
_cell_length_c   8.71950626
_cell_angle_alpha   116.11795807
_cell_angle_beta   110.93511963
_cell_angle_gamma   90.00000000
_symmetry_Int_Tables_number   1
_chemical_formula_structural   Cs3CuAsCl5
_chemical_formula_sum   'Cs3 Cu1 As1 Cl5'
_cell_volume   343.58802239
_cell_formula_units_Z   1
loop_
 _symmetry_equiv_pos_site_id
 _symmetry_equiv_pos_as_xyz
  1  'x, y, z'
loop_
 _atom_site_type_symbol
 _atom_site_label
 _atom_site_symmetry_multiplicity
 _atom_site_fract_x
 _atom_site_fract_y
 _atom_site_fract_z
 _atom_site_occupancy
  Cs  Cs0  1  0.85366799  0.02554500  0.70733693  1
  Cs  Cs1  1  0.14633198  0.97445502  0.29266301  1
  Cs  Cs2  1  0.64633098  0.31820801  0.29266197  1
  Cl  Cl3  1  0.35366898  0.68179201  0.70733797  1
  Cu  Cu4  1  0.74999998  0.50000001  -0.00000002  1
  As  As5  1  0.24999999  0.50000001  0.00000000  1
  Cl  Cl6  1  0.41276399  0.26548500  0.82552796  1
  Cl  Cl7  1  0.08723599  0.43995701  0.17447200  1
  Cl  Cl8  1  0.91276397  0.56004301  0.82552794  1
  Cl  Cl9  1  0.58723597  0.73451501  0.17447199  1
