# generated using pymatgen
data_ZnCuRhWS9O2
_symmetry_space_group_name_H-M   'P 1'
_cell_length_a   4.75373507
_cell_length_b   7.21113062
_cell_length_c   7.60296249
_cell_angle_alpha   111.32997894
_cell_angle_beta   90.34487915
_cell_angle_gamma   100.43357849
_symmetry_Int_Tables_number   1
_chemical_formula_structural   ZnCuRhWS9O2
_chemical_formula_sum   'Zn1 Cu1 Rh1 W1 S9 O2'
_cell_volume   238.02483254
_cell_formula_units_Z   1
loop_
 _symmetry_equiv_pos_site_id
 _symmetry_equiv_pos_as_xyz
  1  'x, y, z'
loop_
 _atom_site_type_symbol
 _atom_site_label
 _atom_site_symmetry_multiplicity
 _atom_site_fract_x
 _atom_site_fract_y
 _atom_site_fract_z
 _atom_site_occupancy
  Zn  Zn0  1  0.82197392  0.83746699  0.21449004  1
  Cu  Cu1  1  0.17802598  0.16253300  0.78551002  1
  Rh  Rh2  1  0.72801794  0.57313199  0.54862804  1
  W  W3  1  0.27198196  0.42686799  0.45137203  1
  S  S4  1  0.79460696  0.29600700  0.12399602  1
  S  S5  1  0.20539294  0.70399299  0.87600405  1
  S  S6  1  0.40064994  0.63317399  0.10032603  1
  S  S7  1  0.59934996  0.36682599  0.89967404  1
  S  S8  1  0.34082992  0.91414399  0.56133405  1
  O  O9  1  0.65916998  0.08585600  0.43866602  1
  O  O10  1  0.60845892  0.83086899  0.76876805  1
  S  S11  1  0.39154098  0.16913100  0.23123201  1
  S  S12  1  0.00000000  0.00000000  0.00000000  1
  S  S13  1  0.05912195  0.62751599  0.32795403  1
  S  S14  1  0.94087796  0.37248399  0.67204603  1
