# generated using pymatgen
data_Ba2InHgSe5
_symmetry_space_group_name_H-M   'P 1'
_cell_length_a   4.34900618
_cell_length_b   9.93179417
_cell_length_c   13.38214397
_cell_angle_alpha   90.00000000
_cell_angle_beta   90.00000000
_cell_angle_gamma   102.64699554
_symmetry_Int_Tables_number   1
_chemical_formula_structural   Ba2InHgSe5
_chemical_formula_sum   'Ba4 In2 Hg2 Se10'
_cell_volume   563.99653011
_cell_formula_units_Z   2
loop_
 _symmetry_equiv_pos_site_id
 _symmetry_equiv_pos_as_xyz
  1  'x, y, z'
loop_
 _atom_site_type_symbol
 _atom_site_label
 _atom_site_symmetry_multiplicity
 _atom_site_fract_x
 _atom_site_fract_y
 _atom_site_fract_z
 _atom_site_occupancy
  Ba  Ba0  1  0.11395900  0.22791800  0.18692100  1
  Ba  Ba1  1  0.88604099  0.77208199  0.68692100  1
  Ba  Ba2  1  0.12814200  0.25628400  0.80823200  1
  Ba  Ba3  1  0.87185799  0.74371599  0.30823200  1
  In  In4  1  0.43836101  0.87672199  0.94764000  1
  In  In5  1  0.56163898  0.12327800  0.44764000  1
  Hg  Hg6  1  0.21870301  0.43740600  0.52247300  1
  Hg  Hg7  1  0.78129699  0.56259400  0.02247300  1
  Se  Se8  1  0.04572800  0.09145600  0.55903700  1
  Se  Se9  1  0.95427199  0.90854399  0.05903700  1
  Se  Se10  1  0.28250201  0.56500400  0.16331000  1
  Se  Se11  1  0.71749799  0.43499600  0.66331000  1
  Se  Se12  1  0.31003701  0.62007399  0.86991500  1
  Se  Se13  1  0.68996299  0.37992600  0.36991500  1
  Se  Se14  1  0.35495101  0.70990199  0.50034300  1
  Se  Se15  1  0.64504898  0.29009800  0.00034300  1
  Se  Se16  1  0.50200998  0.00402000  0.77696900  1
  Se  Se17  1  0.49799002  0.99597999  0.27696900  1
