# generated using pymatgen
data_Ba2LaUO6
_symmetry_space_group_name_H-M   'P 1'
_cell_length_a   6.27733231
_cell_length_b   6.27733231
_cell_length_c   6.27733278
_cell_angle_alpha   61.23889542
_cell_angle_beta   61.23889542
_cell_angle_gamma   61.23889542
_symmetry_Int_Tables_number   1
_chemical_formula_structural   Ba2LaUO6
_chemical_formula_sum   'Ba2 La1 U1 O6'
_cell_volume   179.78132249
_cell_formula_units_Z   1
loop_
 _symmetry_equiv_pos_site_id
 _symmetry_equiv_pos_as_xyz
  1  'x, y, z'
loop_
 _atom_site_type_symbol
 _atom_site_label
 _atom_site_symmetry_multiplicity
 _atom_site_fract_x
 _atom_site_fract_y
 _atom_site_fract_z
 _atom_site_occupancy
  Ba  Ba0  1  0.25340501  0.25340501  0.25340499  1
  Ba  Ba1  1  0.74659504  0.74659502  0.74659497  1
  La  La2  1  0.00000000  0.00000000  0.00000000  1
  U  U3  1  0.50000003  0.50000002  0.49999998  1
  O  O4  1  0.65257203  0.27869101  0.80429298  1
  O  O5  1  0.27869103  0.80429303  0.65257198  1
  O  O6  1  0.80429304  0.65257202  0.27869098  1
  O  O7  1  0.34742803  0.72130902  0.19570698  1
  O  O8  1  0.72130903  0.19570701  0.34742798  1
  O  O9  1  0.19570701  0.34742801  0.72130898  1
