# generated using pymatgen
data_NaLaTcBrO8
_symmetry_space_group_name_H-M   'P 1'
_cell_length_a   5.46182585
_cell_length_b   5.46182585
_cell_length_c   7.23513651
_cell_angle_alpha   112.17591095
_cell_angle_beta   112.17591095
_cell_angle_gamma   90.00000000
_symmetry_Int_Tables_number   1
_chemical_formula_structural   NaLaTcBrO8
_chemical_formula_sum   'Na1 La1 Tc1 Br1 O8'
_cell_volume   182.51303899
_cell_formula_units_Z   1
loop_
 _symmetry_equiv_pos_site_id
 _symmetry_equiv_pos_as_xyz
  1  'x, y, z'
loop_
 _atom_site_type_symbol
 _atom_site_label
 _atom_site_symmetry_multiplicity
 _atom_site_fract_x
 _atom_site_fract_y
 _atom_site_fract_z
 _atom_site_occupancy
  Na  Na0  1  0.75000002  0.25000001  0.50000001  1
  La  La1  1  0.50000002  0.50000002  0.00000001  1
  Tc  Tc2  1  0.25000001  0.75000002  0.50000001  1
  Br  Br3  1  0.00000000  0.00000000  0.00000000  1
  O  O4  1  0.21574101  0.59574202  0.67252901  1
  O  O5  1  0.45678901  0.07678800  0.67253100  1
  O  O6  1  0.83199203  0.22600001  0.14852201  1
  O  O7  1  0.31653101  0.92252303  0.14852401  1
  O  O8  1  0.07747800  0.16800801  0.85147700  1
  O  O9  1  0.77399903  0.68346902  0.85147701  1
  O  O10  1  0.40425702  0.54321102  0.32747001  1
  O  O11  1  0.92321303  0.78425902  0.32747001  1
