# generated using pymatgen
data_ScI3
_symmetry_space_group_name_H-M   'P 1'
_cell_length_a   3.81531310
_cell_length_b   11.87008953
_cell_length_c   11.87008953
_cell_angle_alpha   120.00000000
_cell_angle_beta   90.00000000
_cell_angle_gamma   90.00000000
_symmetry_Int_Tables_number   1
_chemical_formula_structural   ScI3
_chemical_formula_sum   'Sc2 I6'
_cell_volume   465.55265189
_cell_formula_units_Z   2
loop_
 _symmetry_equiv_pos_site_id
 _symmetry_equiv_pos_as_xyz
  1  'x, y, z'
loop_
 _atom_site_type_symbol
 _atom_site_label
 _atom_site_symmetry_multiplicity
 _atom_site_fract_x
 _atom_site_fract_y
 _atom_site_fract_z
 _atom_site_occupancy
  Sc  Sc0  1  0.24999999  0.66666669  0.33333332  1
  Sc  Sc1  1  0.74999998  0.33333334  0.66666666  1
  I  I2  1  0.74999998  0.77455302  0.22544598  1
  I  I3  1  0.74999998  0.45089301  0.22544599  1
  I  I4  1  0.74999998  0.77455302  0.54910598  1
  I  I5  1  0.24999999  0.22544701  0.77455400  1
  I  I6  1  0.24999999  0.54910702  0.77455399  1
  I  I7  1  0.24999999  0.22544701  0.45089400  1
