# generated using pymatgen
data_Li4Ti3O8
_symmetry_space_group_name_H-M   'P 1'
_cell_length_a   5.88274479
_cell_length_b   5.88686895
_cell_length_c   5.92444086
_cell_angle_alpha   60.33127975
_cell_angle_beta   60.23283768
_cell_angle_gamma   60.02342224
_symmetry_Int_Tables_number   1
_chemical_formula_structural   Li4Ti3O8
_chemical_formula_sum   'Li4 Ti3 O8'
_cell_volume   145.71759994
_cell_formula_units_Z   1
loop_
 _symmetry_equiv_pos_site_id
 _symmetry_equiv_pos_as_xyz
  1  'x, y, z'
loop_
 _atom_site_type_symbol
 _atom_site_label
 _atom_site_symmetry_multiplicity
 _atom_site_fract_x
 _atom_site_fract_y
 _atom_site_fract_z
 _atom_site_occupancy
  Li  Li0  1  1.00000000  0.49999598  0.50000395  1
  Li  Li1  1  0.49999901  0.50000098  -0.00000001  1
  Li  Li2  1  0.00000001  0.50000098  0.00000000  1
  Li  Li3  1  0.50000399  0.00000200  0.49999796  1
  Ti  Ti4  1  0.99999599  0.00000200  0.49999795  1
  Ti  Ti5  1  0.49999701  0.49997398  0.50003197  1
  Ti  Ti6  1  0.50000199  0.00000200  0.99999395  1
  O  O7  1  0.24904400  0.23085999  0.27104898  1
  O  O8  1  0.26101801  0.74309697  0.28197899  1
  O  O9  1  0.71390001  0.74309897  0.28198297  1
  O  O10  1  0.24411002  0.78336197  0.72841397  1
  O  O11  1  0.75589000  0.21664199  0.27158296  1
  O  O12  1  0.28610000  0.25690599  0.71801197  1
  O  O13  1  0.73898100  0.25690899  0.71801595  1
  O  O14  1  0.75095701  0.76914197  0.72894695  1
