# generated using pymatgen
data_Cd(InSe2)2
_symmetry_space_group_name_H-M   'P 1'
_cell_length_a   8.18582630
_cell_length_b   8.18582630
_cell_length_c   8.18582630
_cell_angle_alpha   60.00000000
_cell_angle_beta   60.00000000
_cell_angle_gamma   60.00000000
_symmetry_Int_Tables_number   1
_chemical_formula_structural   Cd(InSe2)2
_chemical_formula_sum   'Cd2 In4 Se8'
_cell_volume   387.85784219
_cell_formula_units_Z   2
loop_
 _symmetry_equiv_pos_site_id
 _symmetry_equiv_pos_as_xyz
  1  'x, y, z'
loop_
 _atom_site_type_symbol
 _atom_site_label
 _atom_site_symmetry_multiplicity
 _atom_site_fract_x
 _atom_site_fract_y
 _atom_site_fract_z
 _atom_site_occupancy
  Cd  Cd0  1  0.49999998  0.49999998  0.49999998  1
  Cd  Cd1  1  0.24999999  0.24999999  0.24999999  1
  In  In2  1  0.87499996  0.87499996  0.37499998  1
  In  In3  1  0.37499998  0.87499996  0.87499996  1
  In  In4  1  0.87499996  0.87499996  0.87499996  1
  In  In5  1  0.87499996  0.37499998  0.87499996  1
  Se  Se6  1  0.09644000  0.63451997  0.63451997  1
  Se  Se7  1  0.11548099  0.11547999  0.65355897  1
  Se  Se8  1  0.11548099  0.65355897  0.11547999  1
  Se  Se9  1  0.11548099  0.11547999  0.11547999  1
  Se  Se10  1  0.63451897  0.09644100  0.63451997  1
  Se  Se11  1  0.63451897  0.63451997  0.63451997  1
  Se  Se12  1  0.65355997  0.11547999  0.11547999  1
  Se  Se13  1  0.63451897  0.63451997  0.09644100  1
