# generated using pymatgen
data_Na4Cu3SeF12
_symmetry_space_group_name_H-M   'P 1'
_cell_length_a   5.25974417
_cell_length_b   5.45067120
_cell_length_c   7.48355389
_cell_angle_alpha   90.00000000
_cell_angle_beta   90.11023712
_cell_angle_gamma   90.00000000
_symmetry_Int_Tables_number   1
_chemical_formula_structural   Na4Cu3SeF12
_chemical_formula_sum   'Na4 Cu3 Se1 F12'
_cell_volume   214.54662726
_cell_formula_units_Z   1
loop_
 _symmetry_equiv_pos_site_id
 _symmetry_equiv_pos_as_xyz
  1  'x, y, z'
loop_
 _atom_site_type_symbol
 _atom_site_label
 _atom_site_symmetry_multiplicity
 _atom_site_fract_x
 _atom_site_fract_y
 _atom_site_fract_z
 _atom_site_occupancy
  Na  Na0  1  0.48543298  0.56113798  0.25005601  1
  Na  Na1  1  0.01456700  0.06113800  0.24994400  1
  Na  Na2  1  0.51456698  0.43886198  0.74994401  1
  Na  Na3  1  0.98543297  0.93886197  0.75005603  1
  Cu  Cu4  1  0.00000000  0.49999998  0.50000000  1
  Cu  Cu5  1  0.49999998  0.00000000  0.00000002  1
  Cu  Cu6  1  0.00000000  0.49999998  -0.00000000  1
  Se  Se7  1  0.49999998  0.00000000  0.50000001  1
  F  F8  1  0.59115398  0.97550296  0.24625602  1
  F  F9  1  0.90884597  0.47550298  0.25374403  1
  F  F10  1  0.40884599  0.02449700  0.75374401  1
  F  F11  1  0.09115400  0.52449698  0.74625600  1
  F  F12  1  0.20461299  0.80062097  0.04588601  1
  F  F13  1  0.29538699  0.30062099  0.45411401  1
  F  F14  1  0.80302897  0.20646999  0.54838202  1
  F  F15  1  0.69697098  0.70646997  0.95161802  1
  F  F16  1  0.79538697  0.19937899  0.95411402  1
  F  F17  1  0.70461298  0.69937897  0.54588602  1
  F  F18  1  0.19697099  0.79352997  0.45161800  1
  F  F19  1  0.30302899  0.29352999  0.04838201  1
