# generated using pymatgen
data_DyGaO3
_symmetry_space_group_name_H-M   'P 1'
_cell_length_a   5.35239077
_cell_length_b   5.49830484
_cell_length_c   7.87435007
_cell_angle_alpha   90.00000000
_cell_angle_beta   90.00000000
_cell_angle_gamma   90.00000000
_symmetry_Int_Tables_number   1
_chemical_formula_structural   DyGaO3
_chemical_formula_sum   'Dy4 Ga4 O12'
_cell_volume   231.73484729
_cell_formula_units_Z   4
loop_
 _symmetry_equiv_pos_site_id
 _symmetry_equiv_pos_as_xyz
  1  'x, y, z'
loop_
 _atom_site_type_symbol
 _atom_site_label
 _atom_site_symmetry_multiplicity
 _atom_site_fract_x
 _atom_site_fract_y
 _atom_site_fract_z
 _atom_site_occupancy
  Dy  Dy0  1  0.01820100  0.94957103  0.74999999  1
  Dy  Dy1  1  0.48179902  0.44957101  0.74999999  1
  Dy  Dy2  1  0.51820102  0.55042902  0.25000000  1
  Dy  Dy3  1  0.98179904  0.05042900  0.25000000  1
  Ga  Ga4  1  0.00000000  0.50000001  -0.00000000  1
  Ga  Ga5  1  0.00000000  0.50000001  0.50000000  1
  Ga  Ga6  1  0.50000002  0.00000000  -0.00000000  1
  Ga  Ga7  1  0.50000002  0.00000000  0.50000000  1
  O  O8  1  0.11197700  0.45414901  0.25000000  1
  O  O9  1  0.20083901  0.20266901  0.56045199  1
  O  O10  1  0.20083901  0.20266901  0.93954799  1
  O  O11  1  0.29916101  0.70266902  0.56045199  1
  O  O12  1  0.29916101  0.70266902  0.93954799  1
  O  O13  1  0.38802302  0.95414903  0.25000000  1
  O  O14  1  0.61197703  0.04585100  0.74999999  1
  O  O15  1  0.70083903  0.29733101  0.06045200  1
  O  O16  1  0.70083903  0.29733101  0.43954800  1
  O  O17  1  0.79916103  0.79733102  0.06045200  1
  O  O18  1  0.79916103  0.79733102  0.43954800  1
  O  O19  1  0.88802304  0.54585102  0.74999999  1
