# generated using pymatgen
data_GdOF
_symmetry_space_group_name_H-M   'P 1'
_cell_length_a   4.01639318
_cell_length_b   4.01639318
_cell_length_c   7.21574306
_cell_angle_alpha   73.84078217
_cell_angle_beta   73.84078217
_cell_angle_gamma   60.00001144
_symmetry_Int_Tables_number   1
_chemical_formula_structural   GdOF
_chemical_formula_sum   'Gd2 O2 F2'
_cell_volume   95.45841113
_cell_formula_units_Z   2
loop_
 _symmetry_equiv_pos_site_id
 _symmetry_equiv_pos_as_xyz
  1  'x, y, z'
loop_
 _atom_site_type_symbol
 _atom_site_label
 _atom_site_symmetry_multiplicity
 _atom_site_fract_x
 _atom_site_fract_y
 _atom_site_fract_z
 _atom_site_occupancy
  Gd  Gd0  1  0.73806299  0.73806302  0.78581102  1
  Gd  Gd1  1  0.26193700  0.26193701  0.21418901  1
  O  O2  1  0.62294600  0.62294602  0.13116200  1
  O  O3  1  0.37705400  0.37705401  0.86883802  1
  F  F4  1  0.13113800  0.13113800  0.60658601  1
  F  F5  1  0.86886199  0.86886202  0.39341401  1
