# generated using pymatgen
data_Mg5Ti(Co2O5)2
_symmetry_space_group_name_H-M   'P 1'
_cell_length_a   5.20225859
_cell_length_b   5.46285963
_cell_length_c   7.83672857
_cell_angle_alpha   104.80175018
_cell_angle_beta   102.88894653
_cell_angle_gamma   103.74834442
_symmetry_Int_Tables_number   1
_chemical_formula_structural   Mg5Ti(Co2O5)2
_chemical_formula_sum   'Mg5 Ti1 Co4 O10'
_cell_volume   199.37630394
_cell_formula_units_Z   1
loop_
 _symmetry_equiv_pos_site_id
 _symmetry_equiv_pos_as_xyz
  1  'x, y, z'
loop_
 _atom_site_type_symbol
 _atom_site_label
 _atom_site_symmetry_multiplicity
 _atom_site_fract_x
 _atom_site_fract_y
 _atom_site_fract_z
 _atom_site_occupancy
  Mg  Mg0  1  0.22493597  0.89138896  0.37576299  1
  Mg  Mg1  1  0.41805500  0.29773099  0.81190700  1
  Mg  Mg2  1  0.49808200  0.48856798  0.49243099  1
  Mg  Mg3  1  0.29095301  0.10698399  0.10043799  1
  Mg  Mg4  1  0.58976999  0.70358897  0.19730398  1
  Ti  Ti5  1  0.77685502  0.10479700  0.61094899  1
  Co  Co6  1  0.00687098  0.50053598  0.00249100  1
  Co  Co7  1  0.70636199  0.89570996  0.90341499  1
  Co  Co8  1  0.10663798  0.69950997  0.70156201  1
  Co  Co9  1  0.88823802  0.29604199  0.29550798  1
  O  O10  1  0.04972700  0.03745500  0.82687201  1
  O  O11  1  0.34322598  0.68250797  0.93838900  1
  O  O12  1  0.14462399  0.33947998  0.54922800  1
  O  O13  1  0.22172299  0.50663598  0.24214099  1
  O  O14  1  0.45611298  0.88914296  0.66781899  1
  O  O15  1  0.56024901  0.11220999  0.34932799  1
  O  O16  1  0.79113201  0.48039298  0.75954199  1
  O  O17  1  0.86627700  0.66448597  0.45004698  1
  O  O18  1  0.66931501  0.34102798  0.06917298  1
  O  O19  1  0.93579199  0.95396396  0.16213297  1
