# generated using pymatgen
data_LiTi2O4
_symmetry_space_group_name_H-M   'P 1'
_cell_length_a   5.84951544
_cell_length_b   5.84951544
_cell_length_c   5.91553068
_cell_angle_alpha   60.36848068
_cell_angle_beta   60.36848068
_cell_angle_gamma   60.00000381
_symmetry_Int_Tables_number   1
_chemical_formula_structural   LiTi2O4
_chemical_formula_sum   'Li2 Ti4 O8'
_cell_volume   143.91797094
_cell_formula_units_Z   2
loop_
 _symmetry_equiv_pos_site_id
 _symmetry_equiv_pos_as_xyz
  1  'x, y, z'
loop_
 _atom_site_type_symbol
 _atom_site_label
 _atom_site_symmetry_multiplicity
 _atom_site_fract_x
 _atom_site_fract_y
 _atom_site_fract_z
 _atom_site_occupancy
  Li  Li0  1  0.12323200  0.12323200  0.63030399  1
  Li  Li1  1  0.50057801  0.50057802  0.49826597  1
  Ti  Ti2  1  0.49839201  0.00581700  0.99739898  1
  Ti  Ti3  1  0.49839201  0.49839202  0.99739897  1
  Ti  Ti4  1  0.00581699  0.49839202  0.99739898  1
  Ti  Ti5  1  0.87838201  0.87838203  0.36485395  1
  O  O6  1  0.26000800  0.26000801  0.21997598  1
  O  O7  1  0.70824502  0.24954901  0.79265697  1
  O  O8  1  0.24954900  0.24954901  0.79265698  1
  O  O9  1  0.24954900  0.70824502  0.79265697  1
  O  O10  1  0.74960302  0.28832801  0.21246597  1
  O  O11  1  0.74960301  0.74960303  0.21246596  1
  O  O12  1  0.28832800  0.74960303  0.21246597  1
  O  O13  1  0.74031801  0.74031802  0.77904596  1
