# generated using pymatgen
data_KSbO2
_symmetry_space_group_name_H-M   'P 1'
_cell_length_a   5.67969418
_cell_length_b   5.89129353
_cell_length_c   5.89129353
_cell_angle_alpha   85.13208008
_cell_angle_beta   67.14782715
_cell_angle_gamma   112.85217285
_symmetry_Int_Tables_number   1
_chemical_formula_structural   KSbO2
_chemical_formula_sum   'K2 Sb2 O4'
_cell_volume   160.82031410
_cell_formula_units_Z   2
loop_
 _symmetry_equiv_pos_site_id
 _symmetry_equiv_pos_as_xyz
  1  'x, y, z'
loop_
 _atom_site_type_symbol
 _atom_site_label
 _atom_site_symmetry_multiplicity
 _atom_site_fract_x
 _atom_site_fract_y
 _atom_site_fract_z
 _atom_site_occupancy
  K  K0  1  0.24999997  0.63663701  0.63663705  1
  K  K1  1  0.74999996  0.36336301  0.36336303  1
  Sb  Sb2  1  0.74999995  0.90695901  0.90695907  1
  Sb  Sb3  1  0.24999999  0.09304100  0.09304101  1
  O  O4  1  0.22028899  0.13136700  0.76607203  1
  O  O5  1  0.27971097  0.76607201  0.13136704  1
  O  O6  1  0.72028897  0.23392800  0.86863304  1
  O  O7  1  0.77971095  0.86863301  0.23392805  1
