# generated using pymatgen
data_Li4BiSbO10
_symmetry_space_group_name_H-M   'P 1'
_cell_length_a   5.19573402
_cell_length_b   5.71401691
_cell_length_c   7.10895824
_cell_angle_alpha   109.65247345
_cell_angle_beta   90.00115204
_cell_angle_gamma   117.04175568
_symmetry_Int_Tables_number   1
_chemical_formula_structural   Li4BiSbO10
_chemical_formula_sum   'Li4 Bi1 Sb1 O10'
_cell_volume   174.06413848
_cell_formula_units_Z   1
loop_
 _symmetry_equiv_pos_site_id
 _symmetry_equiv_pos_as_xyz
  1  'x, y, z'
loop_
 _atom_site_type_symbol
 _atom_site_label
 _atom_site_symmetry_multiplicity
 _atom_site_fract_x
 _atom_site_fract_y
 _atom_site_fract_z
 _atom_site_occupancy
  Li  Li0  1  0.99689701  0.50558604  0.49868107  1
  Li  Li1  1  0.62720002  0.76044706  0.72232908  1
  Li  Li2  1  0.37294201  0.24271102  0.78163004  1
  Li  Li3  1  0.00870302  0.50560904  0.99868305  1
  Sb  Sb4  1  0.63324102  0.76044106  0.22233007  1
  Bi  Bi5  1  0.36974601  0.24266002  0.28161603  1
  O  O6  1  0.20075002  0.50386604  0.74541305  1
  O  O7  1  0.80311901  0.50386604  0.24542006  1
  O  O8  1  0.02520503  0.87383607  0.66280307  1
  O  O9  1  0.34861503  0.87381307  0.16280907  1
  O  O10  1  0.94483000  0.10339201  0.33446904  1
  O  O11  1  0.65858100  0.10340101  0.83448104  1
  O  O12  1  0.73424502  0.66266105  0.94446908  1
  O  O13  1  0.42838602  0.66265505  0.44448606  1
  O  O14  1  0.27296001  0.34753303  0.06019303  1
  O  O15  1  0.57457801  0.34752303  0.56018905  1
