# generated using pymatgen
data_CsCo2F6
_symmetry_space_group_name_H-M   'P 1'
_cell_length_a   7.12353992
_cell_length_b   7.24815178
_cell_length_c   7.24815178
_cell_angle_alpha   61.06380844
_cell_angle_beta   60.56710052
_cell_angle_gamma   60.56710052
_symmetry_Int_Tables_number   1
_chemical_formula_structural   CsCo2F6
_chemical_formula_sum   'Cs2 Co4 F12'
_cell_volume   268.98961048
_cell_formula_units_Z   2
loop_
 _symmetry_equiv_pos_site_id
 _symmetry_equiv_pos_as_xyz
  1  'x, y, z'
loop_
 _atom_site_type_symbol
 _atom_site_label
 _atom_site_symmetry_multiplicity
 _atom_site_fract_x
 _atom_site_fract_y
 _atom_site_fract_z
 _atom_site_occupancy
  Cs  Cs0  1  0.62327701  0.12672300  0.62672297  1
  Cs  Cs1  1  0.37672299  0.87327699  0.37327699  1
  Co  Co2  1  0.50000000  0.50000000  -0.00000001  1
  Co  Co3  1  -0.00000001  0.50000000  0.00000000  1
  Co  Co4  1  0.00000000  0.00000000  0.00000000  1
  Co  Co5  1  1.00000001  0.50000000  0.49999996  1
  F  F6  1  0.06570500  0.18429500  0.68429499  1
  F  F7  1  0.69600200  0.55399799  0.05399798  1
  F  F8  1  0.06382899  0.55707399  0.69303099  1
  F  F9  1  0.68606601  0.19303200  0.05707398  1
  F  F10  1  0.68606600  0.55707499  0.69303097  1
  F  F11  1  0.06382900  0.19303100  0.05707400  1
  F  F12  1  0.93429500  0.81570499  0.31570497  1
  F  F13  1  0.30399800  0.44600200  0.94600198  1
  F  F14  1  0.93617101  0.44292600  0.30696897  1
  F  F15  1  0.31393399  0.80696799  0.94292598  1
  F  F16  1  0.31393400  0.44292500  0.30696899  1
  F  F17  1  0.93617100  0.80696899  0.94292596  1
