# generated using pymatgen
data_Dy(ZnP)3
_symmetry_space_group_name_H-M   'P 1'
_cell_length_a   4.00711393
_cell_length_b   4.00711346
_cell_length_c   19.83927536
_cell_angle_alpha   90.00000000
_cell_angle_beta   90.00000000
_cell_angle_gamma   120.00000000
_symmetry_Int_Tables_number   1
_chemical_formula_structural   Dy(ZnP)3
_chemical_formula_sum   'Dy2 Zn6 P6'
_cell_volume   275.87971391
_cell_formula_units_Z   2
loop_
 _symmetry_equiv_pos_site_id
 _symmetry_equiv_pos_as_xyz
  1  'x, y, z'
loop_
 _atom_site_type_symbol
 _atom_site_label
 _atom_site_symmetry_multiplicity
 _atom_site_fract_x
 _atom_site_fract_y
 _atom_site_fract_z
 _atom_site_occupancy
  Dy  Dy0  1  0.00000000  0.00000000  0.00000000  1
  Dy  Dy1  1  0.00000000  0.00000000  0.50000002  1
  Zn  Zn2  1  0.66666665  0.33333333  0.25000001  1
  Zn  Zn3  1  0.33333329  0.66666666  0.75000002  1
  Zn  Zn4  1  0.66666665  0.33333333  0.87166103  1
  Zn  Zn5  1  0.33333329  0.66666666  0.12833900  1
  Zn  Zn6  1  0.33333329  0.66666666  0.37166101  1
  Zn  Zn7  1  0.66666665  0.33333333  0.62833902  1
  P  P8  1  0.66666665  0.33333333  0.41634401  1
  P  P9  1  0.33333329  0.66666666  0.58365602  1
  P  P10  1  0.33333329  0.66666666  0.91634403  1
  P  P11  1  0.66666665  0.33333333  0.08365600  1
  P  P12  1  0.66666665  0.33333333  0.75000002  1
  P  P13  1  0.33333329  0.66666666  0.25000001  1
