# generated using pymatgen
data_In4CuAgTe8
_symmetry_space_group_name_H-M   'P 1'
_cell_length_a   6.05274296
_cell_length_b   7.71791172
_cell_length_c   11.52674389
_cell_angle_alpha   75.19766998
_cell_angle_beta   74.77844238
_cell_angle_gamma   66.91332245
_symmetry_Int_Tables_number   1
_chemical_formula_structural   In4CuAgTe8
_chemical_formula_sum   'In4 Cu1 Ag1 Te8'
_cell_volume   470.85466070
_cell_formula_units_Z   1
loop_
 _symmetry_equiv_pos_site_id
 _symmetry_equiv_pos_as_xyz
  1  'x, y, z'
loop_
 _atom_site_type_symbol
 _atom_site_label
 _atom_site_symmetry_multiplicity
 _atom_site_fract_x
 _atom_site_fract_y
 _atom_site_fract_z
 _atom_site_occupancy
  In  In0  1  0.99996197  0.50000000  0.49999999  1
  In  In1  1  0.25057297  0.37514400  0.12485401  1
  In  In2  1  0.24944692  0.87494501  0.62505903  1
  In  In3  1  0.75057095  0.62485601  0.87514600  1
  Cu  Cu4  1  0.74945100  0.12505500  0.37494098  1
  Ag  Ag5  1  0.00046700  0.00000000  -0.00000000  1
  Te  Te6  1  0.59669596  0.54818401  0.70132300  1
  Te  Te7  1  0.59595801  0.04719900  0.20194598  1
  Te  Te8  1  0.15550997  0.32648300  0.92258400  1
  Te  Te9  1  0.15322992  0.82596601  0.42305703  1
  Te  Te10  1  0.40457694  0.67351701  0.07741602  1
  Te  Te11  1  0.40225199  0.17403400  0.57694299  1
  Te  Te12  1  0.84620297  0.45181600  0.29867700  1
  Te  Te13  1  0.84510292  0.95280101  0.79805401  1
