# generated using pymatgen
data_AcBr3
_symmetry_space_group_name_H-M   'P 1'
_cell_length_a   4.51221704
_cell_length_b   8.12705994
_cell_length_c   8.12705994
_cell_angle_alpha   120.00000000
_cell_angle_beta   90.00000000
_cell_angle_gamma   90.00000000
_symmetry_Int_Tables_number   1
_chemical_formula_structural   AcBr3
_chemical_formula_sum   'Ac2 Br6'
_cell_volume   258.09972318
_cell_formula_units_Z   2
loop_
 _symmetry_equiv_pos_site_id
 _symmetry_equiv_pos_as_xyz
  1  'x, y, z'
loop_
 _atom_site_type_symbol
 _atom_site_label
 _atom_site_symmetry_multiplicity
 _atom_site_fract_x
 _atom_site_fract_y
 _atom_site_fract_z
 _atom_site_occupancy
  Ac  Ac0  1  0.25000000  0.33333333  0.66666663  1
  Ac  Ac1  1  0.74999999  0.66666666  0.33333330  1
  Br  Br2  1  0.25000000  0.38912000  0.08694799  1
  Br  Br3  1  0.74999999  0.08694700  0.69782697  1
  Br  Br4  1  0.74999999  0.61088000  0.91305195  1
  Br  Br5  1  0.25000000  0.91305299  0.30217296  1
  Br  Br6  1  0.25000000  0.69782800  0.61088096  1
  Br  Br7  1  0.74999999  0.30217200  0.38911898  1
