# generated using pymatgen
data_KLiS
_symmetry_space_group_name_H-M   'P 1'
_cell_length_a   6.43773985
_cell_length_b   6.65512991
_cell_length_c   8.65919971
_cell_angle_alpha   112.59910583
_cell_angle_beta   111.82225037
_cell_angle_gamma   90.00000000
_symmetry_Int_Tables_number   1
_chemical_formula_structural   KLiS
_chemical_formula_sum   'K4 Li4 S4'
_cell_volume   313.51713277
_cell_formula_units_Z   4
loop_
 _symmetry_equiv_pos_site_id
 _symmetry_equiv_pos_as_xyz
  1  'x, y, z'
loop_
 _atom_site_type_symbol
 _atom_site_label
 _atom_site_symmetry_multiplicity
 _atom_site_fract_x
 _atom_site_fract_y
 _atom_site_fract_z
 _atom_site_occupancy
  K  K0  1  0.67465006  0.92791803  0.34930005  1
  K  K1  1  0.32535001  0.07208200  0.65070002  1
  K  K2  1  0.82535005  0.57861802  0.65070005  1
  K  K3  1  0.17465002  0.42138201  0.34930002  1
  Li  Li4  1  0.25000001  0.00000000  0.00000001  1
  Li  Li5  1  0.75000006  1.00000003  0.00000006  1
  Li  Li6  1  0.75000004  0.50000001  0.00000004  1
  Li  Li7  1  0.25000003  0.50000001  1.00000003  1
  S  S8  1  0.90807804  0.20904801  0.81615704  1
  S  S9  1  0.09192203  0.79095202  0.18384303  1
  S  S10  1  0.59192104  0.39289101  0.18384203  1
  S  S11  1  0.40807904  0.60710902  0.81615804  1
