# generated using pymatgen
data_SrLa2Cl8
_symmetry_space_group_name_H-M   'P 1'
_cell_length_a   5.53791046
_cell_length_b   7.70469570
_cell_length_c   7.70469570
_cell_angle_alpha   111.10367584
_cell_angle_beta   98.17787933
_cell_angle_gamma   98.17787933
_symmetry_Int_Tables_number   1
_chemical_formula_structural   SrLa2Cl8
_chemical_formula_sum   'Sr1 La2 Cl8'
_cell_volume   296.83900326
_cell_formula_units_Z   1
loop_
 _symmetry_equiv_pos_site_id
 _symmetry_equiv_pos_as_xyz
  1  'x, y, z'
loop_
 _atom_site_type_symbol
 _atom_site_label
 _atom_site_symmetry_multiplicity
 _atom_site_fract_x
 _atom_site_fract_y
 _atom_site_fract_z
 _atom_site_occupancy
  Sr  Sr0  1  0.00000000  0.00000000  0.00000000  1
  La  La1  1  0.50000003  0.68202698  0.31797300  1
  La  La2  1  0.50000003  0.31797299  0.68202699  1
  Cl  Cl3  1  0.42194404  0.93837998  0.67786099  1
  Cl  Cl4  1  0.42194403  0.67786098  0.93837998  1
  Cl  Cl5  1  0.81186804  0.62920398  0.62920399  1
  Cl  Cl6  1  1.00000004  0.23849899  0.76150099  1
  Cl  Cl7  1  1.00000005  0.76150098  0.23849900  1
  Cl  Cl8  1  0.18813202  0.37079599  0.37079599  1
  Cl  Cl9  1  0.57805602  0.06162000  0.32213900  1
  Cl  Cl10  1  0.57805603  0.32213899  0.06162000  1
