# generated using pymatgen
data_BaSr(BiO3)2
_symmetry_space_group_name_H-M   'P 1'
_cell_length_a   6.15482759
_cell_length_b   6.22893047
_cell_length_c   8.75093079
_cell_angle_alpha   90.19360352
_cell_angle_beta   89.72140503
_cell_angle_gamma   89.94936371
_symmetry_Int_Tables_number   1
_chemical_formula_structural   BaSr(BiO3)2
_chemical_formula_sum   'Ba2 Sr2 Bi4 O12'
_cell_volume   335.48710743
_cell_formula_units_Z   2
loop_
 _symmetry_equiv_pos_site_id
 _symmetry_equiv_pos_as_xyz
  1  'x, y, z'
loop_
 _atom_site_type_symbol
 _atom_site_label
 _atom_site_symmetry_multiplicity
 _atom_site_fract_x
 _atom_site_fract_y
 _atom_site_fract_z
 _atom_site_occupancy
  Ba  Ba0  1  0.99338416  0.03182437  0.24991672  1
  Ba  Ba1  1  0.00661585  0.96817566  0.75008323  1
  Sr  Sr2  1  0.50923898  0.53924488  0.25149686  1
  Sr  Sr3  1  0.49076104  0.46075516  0.74850309  1
  Bi  Bi4  1  0.50000000  0.00000000  -0.00000002  1
  Bi  Bi5  1  0.00000001  0.50000002  0.49999999  1
  Bi  Bi6  1  0.00000001  0.50000002  0.00000001  1
  Bi  Bi7  1  0.50000000  0.00000000  0.49999997  1
  O  O8  1  0.20007068  0.22337860  0.95722292  1
  O  O9  1  0.30746823  0.71712458  0.54901840  1
  O  O10  1  0.79992933  0.77662144  0.04277703  1
  O  O11  1  0.69253179  0.28287545  0.45098155  1
  O  O12  1  0.27982340  0.69751143  0.94965102  1
  O  O13  1  0.22272546  0.20254053  0.53741287  1
  O  O14  1  0.72017662  0.30248860  0.05034893  1
  O  O15  1  0.77727455  0.79745951  0.46258708  1
  O  O16  1  0.42699445  0.95689020  0.26141041  1
  O  O17  1  0.09477369  0.48504309  0.23784425  1
  O  O18  1  0.57300557  0.04310983  0.73858954  1
  O  O19  1  0.90522633  0.51495695  0.76215570  1
