# generated using pymatgen
data_Al2ZnSe4
_symmetry_space_group_name_H-M   'P 1'
_cell_length_a   7.56396246
_cell_length_b   7.56396246
_cell_length_c   7.56396246
_cell_angle_alpha   60.00000000
_cell_angle_beta   60.00000000
_cell_angle_gamma   60.00000000
_symmetry_Int_Tables_number   1
_chemical_formula_structural   Al2ZnSe4
_chemical_formula_sum   'Al4 Zn2 Se8'
_cell_volume   306.00822264
_cell_formula_units_Z   2
loop_
 _symmetry_equiv_pos_site_id
 _symmetry_equiv_pos_as_xyz
  1  'x, y, z'
loop_
 _atom_site_type_symbol
 _atom_site_label
 _atom_site_symmetry_multiplicity
 _atom_site_fract_x
 _atom_site_fract_y
 _atom_site_fract_z
 _atom_site_occupancy
  Al  Al0  1  0.37499999  0.37499999  0.87499998  1
  Al  Al1  1  0.37499999  0.37499999  0.37499999  1
  Al  Al2  1  0.37499999  0.87499998  0.37499999  1
  Al  Al3  1  0.87499998  0.37499999  0.37499999  1
  Zn  Zn4  1  0.74999998  0.74999998  0.74999998  1
  Zn  Zn5  1  0.00000000  0.00000000  0.00000000  1
  Se  Se6  1  0.61564998  0.61565098  0.15304800  1
  Se  Se7  1  0.61564998  0.61565098  0.61565098  1
  Se  Se8  1  0.61564998  0.15304800  0.61565098  1
  Se  Se9  1  0.15304700  0.61565098  0.61565098  1
  Se  Se10  1  0.13435000  0.13434900  0.59695198  1
  Se  Se11  1  0.13435000  0.13434900  0.13434900  1
  Se  Se12  1  0.13435000  0.59695198  0.13434900  1
  Se  Se13  1  0.59695298  0.13434900  0.13434900  1
