# generated using pymatgen
data_CsBr2
_symmetry_space_group_name_H-M   'P 1'
_cell_length_a   5.63018799
_cell_length_b   9.13635063
_cell_length_c   10.93320465
_cell_angle_alpha   90.00000000
_cell_angle_beta   91.41337585
_cell_angle_gamma   90.00000000
_symmetry_Int_Tables_number   1
_chemical_formula_structural   CsBr2
_chemical_formula_sum   'Cs4 Br8'
_cell_volume   562.22607223
_cell_formula_units_Z   4
loop_
 _symmetry_equiv_pos_site_id
 _symmetry_equiv_pos_as_xyz
  1  'x, y, z'
loop_
 _atom_site_type_symbol
 _atom_site_label
 _atom_site_symmetry_multiplicity
 _atom_site_fract_x
 _atom_site_fract_y
 _atom_site_fract_z
 _atom_site_occupancy
  Cs  Cs0  1  0.75930400  0.47657602  0.16960598  1
  Cs  Cs1  1  0.25930400  0.02342400  0.66960598  1
  Cs  Cs2  1  0.24069600  0.52342402  0.83039397  1
  Cs  Cs3  1  0.74069600  0.97657604  0.33039398  1
  Br  Br4  1  0.24318200  0.14459901  0.07509799  1
  Br  Br5  1  0.74318200  0.35540101  0.57509797  1
  Br  Br6  1  0.75681800  0.85540103  0.92490196  1
  Br  Br7  1  0.25681800  0.64459903  0.42490198  1
  Br  Br8  1  0.23400900  0.24679301  0.39097498  1
  Br  Br9  1  0.73400900  0.25320701  0.89097496  1
  Br  Br10  1  0.76599100  0.75320703  0.60902497  1
  Br  Br11  1  0.26599100  0.74679303  0.10902499  1
