# generated using pymatgen
data_Hf2TiSnO8
_symmetry_space_group_name_H-M   'P 1'
_cell_length_a   4.89521790
_cell_length_b   5.19664955
_cell_length_c   5.76084805
_cell_angle_alpha   90.00000000
_cell_angle_beta   90.00000000
_cell_angle_gamma   90.83087921
_symmetry_Int_Tables_number   1
_chemical_formula_structural   Hf2TiSnO8
_chemical_formula_sum   'Hf2 Ti1 Sn1 O8'
_cell_volume   146.53325982
_cell_formula_units_Z   1
loop_
 _symmetry_equiv_pos_site_id
 _symmetry_equiv_pos_as_xyz
  1  'x, y, z'
loop_
 _atom_site_type_symbol
 _atom_site_label
 _atom_site_symmetry_multiplicity
 _atom_site_fract_x
 _atom_site_fract_y
 _atom_site_fract_z
 _atom_site_occupancy
  Hf  Hf0  1  0.00000000  0.00000000  0.82429099  1
  Hf  Hf1  1  0.50000001  0.49999999  0.69681499  1
  Ti  Ti2  1  -0.00000000  0.49999999  0.18473200  1
  Sn  Sn3  1  0.50000001  0.00000000  0.31783100  1
  O  O4  1  0.28359301  0.16891900  0.59937600  1
  O  O5  1  0.21932000  0.67177598  0.90153799  1
  O  O6  1  0.78068001  0.32822399  0.90153799  1
  O  O7  1  0.71640701  0.83108098  0.59937600  1
  O  O8  1  0.74666101  0.33365999  0.38147300  1
  O  O9  1  0.77033501  0.80961598  0.10577900  1
  O  O10  1  0.22966500  0.19038399  0.10577900  1
  O  O11  1  0.25333900  0.66633998  0.38147300  1
