# generated using pymatgen
data_SrTiO3
_symmetry_space_group_name_H-M   'P 1'
_cell_length_a   5.62623692
_cell_length_b   5.67929506
_cell_length_c   7.88861322
_cell_angle_alpha   90.00000000
_cell_angle_beta   90.00000000
_cell_angle_gamma   90.00000000
_symmetry_Int_Tables_number   1
_chemical_formula_structural   SrTiO3
_chemical_formula_sum   'Sr4 Ti4 O12'
_cell_volume   252.06532802
_cell_formula_units_Z   4
loop_
 _symmetry_equiv_pos_site_id
 _symmetry_equiv_pos_as_xyz
  1  'x, y, z'
loop_
 _atom_site_type_symbol
 _atom_site_label
 _atom_site_symmetry_multiplicity
 _atom_site_fract_x
 _atom_site_fract_y
 _atom_site_fract_z
 _atom_site_occupancy
  Sr  Sr0  1  0.50506001  0.50709099  0.24999999  1
  Sr  Sr1  1  0.99494001  0.00709100  0.24999999  1
  Sr  Sr2  1  0.49494001  0.49290899  0.74999998  1
  Sr  Sr3  1  0.00506000  0.99290899  0.74999998  1
  Ti  Ti4  1  0.50000001  0.00000000  0.00000000  1
  Ti  Ti5  1  0.00000000  0.49999999  0.49999999  1
  Ti  Ti6  1  0.50000001  0.00000000  0.49999999  1
  Ti  Ti7  1  0.00000000  0.49999999  0.00000000  1
  O  O8  1  0.43567801  0.99857999  0.24999999  1
  O  O9  1  0.06432200  0.49857999  0.24999999  1
  O  O10  1  0.56432201  0.00142000  0.74999998  1
  O  O11  1  0.93567801  0.50141999  0.74999998  1
  O  O12  1  0.75124401  0.75146999  0.03325800  1
  O  O13  1  0.74875601  0.25147000  0.46674199  1
  O  O14  1  0.24875600  0.24853000  0.53325798  1
  O  O15  1  0.25124400  0.74852999  0.96674197  1
  O  O16  1  0.24875600  0.24853000  0.96674197  1
  O  O17  1  0.25124400  0.74852999  0.53325798  1
  O  O18  1  0.75124401  0.75146999  0.46674199  1
  O  O19  1  0.74875601  0.25147000  0.03325800  1
