# generated using pymatgen
data_Al4NiO3
_symmetry_space_group_name_H-M   'P 1'
_cell_length_a   3.08263683
_cell_length_b   3.08263731
_cell_length_c   12.59072495
_cell_angle_alpha   90.00000000
_cell_angle_beta   90.00000000
_cell_angle_gamma   120.00000000
_symmetry_Int_Tables_number   1
_chemical_formula_structural   Al4NiO3
_chemical_formula_sum   'Al4 Ni1 O3'
_cell_volume   103.61584236
_cell_formula_units_Z   1
loop_
 _symmetry_equiv_pos_site_id
 _symmetry_equiv_pos_as_xyz
  1  'x, y, z'
loop_
 _atom_site_type_symbol
 _atom_site_label
 _atom_site_symmetry_multiplicity
 _atom_site_fract_x
 _atom_site_fract_y
 _atom_site_fract_z
 _atom_site_occupancy
  Al  Al0  1  0.00000000  0.00000000  0.50000000  1
  Al  Al1  1  0.00000000  0.00000000  0.00000000  1
  Al  Al2  1  0.33333332  0.66666666  0.25000000  1
  Al  Al3  1  0.66666665  0.33333333  0.75000000  1
  Ni  Ni4  1  0.66666665  0.33333333  0.58188200  1
  O  O5  1  0.33333332  0.66666666  0.08188200  1
  O  O6  1  0.33333332  0.66666666  0.41811900  1
  O  O7  1  0.66666665  0.33333333  0.91811800  1
