# generated using pymatgen
data_BaSrLaTeO6
_symmetry_space_group_name_H-M   'P 1'
_cell_length_a   6.08025503
_cell_length_b   6.08025503
_cell_length_c   6.08025503
_cell_angle_alpha   60.00000000
_cell_angle_beta   60.00000000
_cell_angle_gamma   60.00000000
_symmetry_Int_Tables_number   1
_chemical_formula_structural   BaSrLaTeO6
_chemical_formula_sum   'Ba1 Sr1 La1 Te1 O6'
_cell_volume   158.94628786
_cell_formula_units_Z   1
loop_
 _symmetry_equiv_pos_site_id
 _symmetry_equiv_pos_as_xyz
  1  'x, y, z'
loop_
 _atom_site_type_symbol
 _atom_site_label
 _atom_site_symmetry_multiplicity
 _atom_site_fract_x
 _atom_site_fract_y
 _atom_site_fract_z
 _atom_site_occupancy
  Ba  Ba0  1  0.74999997  0.74999997  0.74999997  1
  Sr  Sr1  1  0.24999999  0.24999999  0.24999999  1
  La  La2  1  0.00000000  0.00000000  0.00000000  1
  Te  Te3  1  0.49999998  0.49999998  0.49999998  1
  O  O4  1  0.27215030  0.72784966  0.27215030  1
  O  O5  1  0.72784966  0.27215030  0.72784966  1
  O  O6  1  0.72784966  0.27215030  0.27215030  1
  O  O7  1  0.27215030  0.72784966  0.72784966  1
  O  O8  1  0.72784966  0.72784966  0.27215030  1
  O  O9  1  0.27215030  0.27215030  0.72784966  1
