# generated using pymatgen
data_Zr(TlBr2)5
_symmetry_space_group_name_H-M   'P 1'
_cell_length_a   8.09330368
_cell_length_b   9.20059013
_cell_length_c   8.09330368
_cell_angle_alpha   63.90726471
_cell_angle_beta   90.00000000
_cell_angle_gamma   116.09273529
_symmetry_Int_Tables_number   1
_chemical_formula_structural   Zr(TlBr2)5
_chemical_formula_sum   'Zr1 Tl5 Br10'
_cell_volume   471.88441975
_cell_formula_units_Z   1
loop_
 _symmetry_equiv_pos_site_id
 _symmetry_equiv_pos_as_xyz
  1  'x, y, z'
loop_
 _atom_site_type_symbol
 _atom_site_label
 _atom_site_symmetry_multiplicity
 _atom_site_fract_x
 _atom_site_fract_y
 _atom_site_fract_z
 _atom_site_occupancy
  Tl  Tl0  1  0.75000004  0.49999999  0.25000000  1
  Zr  Zr1  1  0.25000002  0.49999999  0.75000002  1
  Tl  Tl2  1  0.67447605  0.99999997  0.82552401  1
  Tl  Tl3  1  0.17447601  0.00000100  0.67447503  1
  Tl  Tl4  1  0.32552404  0.99999997  0.17447598  1
  Tl  Tl5  1  0.82552406  0.99999897  0.32552499  1
  Br  Br6  1  0.19860303  0.73549298  0.96311002  1
  Br  Br7  1  0.46311003  0.26450699  0.69860302  1
  Br  Br8  1  0.80139704  0.26450699  0.03688999  1
  Br  Br9  1  0.30139702  0.26450699  0.19860300  1
  Br  Br10  1  0.96311005  0.26450699  0.53689001  1
  Br  Br11  1  0.69860305  0.73549298  0.80139701  1
  Br  Br12  1  0.50000002  0.00000000  0.50000002  1
  Br  Br13  1  0.00000000  0.00000000  0.00000000  1
  Br  Br14  1  0.53689004  0.73549298  0.30139699  1
  Br  Br15  1  0.03689002  0.73549298  0.46311000  1
