# generated using pymatgen
data_Li2TiF6
_symmetry_space_group_name_H-M   'P 1'
_cell_length_a   4.72457123
_cell_length_b   5.06984806
_cell_length_c   5.06984854
_cell_angle_alpha   60.00000381
_cell_angle_beta   90.00000000
_cell_angle_gamma   90.00000000
_symmetry_Int_Tables_number   1
_chemical_formula_structural   Li2TiF6
_chemical_formula_sum   'Li2 Ti1 F6'
_cell_volume   105.16784581
_cell_formula_units_Z   1
loop_
 _symmetry_equiv_pos_site_id
 _symmetry_equiv_pos_as_xyz
  1  'x, y, z'
loop_
 _atom_site_type_symbol
 _atom_site_label
 _atom_site_symmetry_multiplicity
 _atom_site_fract_x
 _atom_site_fract_y
 _atom_site_fract_z
 _atom_site_occupancy
  Li  Li0  1  0.49999998  0.66666667  0.66666668  1
  Li  Li1  1  0.49999998  0.33333333  0.33333334  1
  Ti  Ti2  1  0.00000000  0.00000000  0.00000000  1
  F  F3  1  0.74428596  0.67260400  0.32739600  1
  F  F4  1  0.74428596  0.32739600  1.00000003  1
  F  F5  1  0.25571399  0.32739600  0.67260402  1
  F  F6  1  0.25571399  0.00000000  0.32739601  1
  F  F7  1  0.25571399  0.67260400  1.00000003  1
  F  F8  1  0.74428596  0.00000000  0.67260403  1
