# generated using pymatgen
data_Bi2SbTe3
_symmetry_space_group_name_H-M   'P 1'
_cell_length_a   4.41269398
_cell_length_b   4.41269398
_cell_length_c   24.67139816
_cell_angle_alpha   90.00000000
_cell_angle_beta   90.00000000
_cell_angle_gamma   120.00000000
_symmetry_Int_Tables_number   1
_chemical_formula_structural   Bi2SbTe3
_chemical_formula_sum   'Bi4 Sb2 Te6'
_cell_volume   416.03705535
_cell_formula_units_Z   2
loop_
 _symmetry_equiv_pos_site_id
 _symmetry_equiv_pos_as_xyz
  1  'x, y, z'
loop_
 _atom_site_type_symbol
 _atom_site_label
 _atom_site_symmetry_multiplicity
 _atom_site_fract_x
 _atom_site_fract_y
 _atom_site_fract_z
 _atom_site_occupancy
  Sb  Sb0  1  0.00000000  0.00000000  0.00000000  1
  Bi  Bi1  1  0.66666667  0.33333333  0.15276601  1
  Bi  Bi2  1  0.33333333  0.66666665  0.58341402  1
  Sb  Sb3  1  0.66666667  0.33333333  0.41658601  1
  Bi  Bi4  1  0.33333333  0.66666665  0.84723403  1
  Bi  Bi5  1  0.33333333  0.66666665  0.06762200  1
  Te  Te6  1  0.00000000  0.00000000  0.50000002  1
  Te  Te7  1  0.00000000  0.00000000  0.22329301  1
  Te  Te8  1  0.00000000  0.00000000  0.77670703  1
  Te  Te9  1  0.66666667  0.33333333  0.93237803  1
  Te  Te10  1  0.66666667  0.33333333  0.65383602  1
  Te  Te11  1  0.33333333  0.66666665  0.34616401  1
