# generated using pymatgen
data_Ag3SBr
_symmetry_space_group_name_H-M   'P 1'
_cell_length_a   4.82529783
_cell_length_b   4.92170858
_cell_length_c   4.98066378
_cell_angle_alpha   93.27696228
_cell_angle_beta   90.00000000
_cell_angle_gamma   90.00000000
_symmetry_Int_Tables_number   1
_chemical_formula_structural   Ag3SBr
_chemical_formula_sum   'Ag3 S1 Br1'
_cell_volume   118.09092954
_cell_formula_units_Z   1
loop_
 _symmetry_equiv_pos_site_id
 _symmetry_equiv_pos_as_xyz
  1  'x, y, z'
loop_
 _atom_site_type_symbol
 _atom_site_label
 _atom_site_symmetry_multiplicity
 _atom_site_fract_x
 _atom_site_fract_y
 _atom_site_fract_z
 _atom_site_occupancy
  Ag  Ag0  1  0.00000000  0.50974500  0.63324805  1
  Ag  Ag1  1  0.50000002  0.39501000  0.98290306  1
  Ag  Ag2  1  0.50000002  0.98545600  0.39260505  1
  S  S3  1  0.50000002  0.49599100  0.48997504  1
  Br  Br4  1  0.00000000  0.99879800  0.00126904  1
