# generated using pymatgen
data_BaPb4(S2Cl)2
_symmetry_space_group_name_H-M   'P 1'
_cell_length_a   5.51976681
_cell_length_b   7.82799816
_cell_length_c   7.82799816
_cell_angle_alpha   111.29426575
_cell_angle_beta   97.28025818
_cell_angle_gamma   97.28025818
_symmetry_Int_Tables_number   1
_chemical_formula_structural   BaPb4(S2Cl)2
_chemical_formula_sum   'Ba1 Pb4 S4 Cl2'
_cell_volume   307.09595557
_cell_formula_units_Z   1
loop_
 _symmetry_equiv_pos_site_id
 _symmetry_equiv_pos_as_xyz
  1  'x, y, z'
loop_
 _atom_site_type_symbol
 _atom_site_label
 _atom_site_symmetry_multiplicity
 _atom_site_fract_x
 _atom_site_fract_y
 _atom_site_fract_z
 _atom_site_occupancy
  Ba  Ba0  1  0.00000000  0.00000000  0.00000000  1
  Pb  Pb1  1  0.49999992  0.68007201  0.31992799  1
  Pb  Pb2  1  0.49999996  0.31992801  0.68007200  1
  Pb  Pb3  1  0.42536892  0.67741701  0.94143101  1
  Pb  Pb4  1  0.42536890  0.94143102  0.67741700  1
  S  S5  1  0.80033392  0.61858601  0.61858599  1
  S  S6  1  0.99999995  0.24730600  0.75269398  1
  S  S7  1  0.99999990  0.75269401  0.24730597  1
  S  S8  1  0.19966596  0.38141401  0.38141400  1
  Cl  Cl9  1  0.57463098  0.05856900  0.32258299  1
  Cl  Cl10  1  0.57463095  0.32258301  0.05856898  1
