# generated using pymatgen
data_La3TaO7
_symmetry_space_group_name_H-M   'P 1'
_cell_length_a   3.96850204
_cell_length_b   6.79345417
_cell_length_c   6.79345417
_cell_angle_alpha   110.33271790
_cell_angle_beta   90.00000000
_cell_angle_gamma   90.00000000
_symmetry_Int_Tables_number   1
_chemical_formula_structural   La3TaO7
_chemical_formula_sum   'La3 Ta1 O7'
_cell_volume   171.73843569
_cell_formula_units_Z   1
loop_
 _symmetry_equiv_pos_site_id
 _symmetry_equiv_pos_as_xyz
  1  'x, y, z'
loop_
 _atom_site_type_symbol
 _atom_site_label
 _atom_site_symmetry_multiplicity
 _atom_site_fract_x
 _atom_site_fract_y
 _atom_site_fract_z
 _atom_site_occupancy
  La  La0  1  0.00000000  0.00000000  0.00000000  1
  La  La1  1  0.49999999  0.00000000  0.49999999  1
  La  La2  1  0.49999999  0.49999998  -0.00000001  1
  Ta  Ta3  1  -0.00000000  0.49999998  0.49999998  1
  O  O4  1  0.49999999  0.49999998  0.49999998  1
  O  O5  1  -0.00000000  0.18574199  0.43376898  1
  O  O6  1  -0.00000000  0.56623098  0.81425797  1
  O  O7  1  -0.00000000  0.81425797  0.56623097  1
  O  O8  1  -0.00000000  0.43376898  0.18574199  1
  O  O9  1  0.49999999  0.86956297  0.13043698  1
  O  O10  1  0.49999999  0.13043700  0.86956297  1
