# generated using pymatgen
data_Na3Cu4SiSe6
_symmetry_space_group_name_H-M   'P 1'
_cell_length_a   3.66602206
_cell_length_b   8.43369865
_cell_length_c   10.40919018
_cell_angle_alpha   90.00000000
_cell_angle_beta   90.00000000
_cell_angle_gamma   90.00000000
_symmetry_Int_Tables_number   1
_chemical_formula_structural   Na3Cu4SiSe6
_chemical_formula_sum   'Na3 Cu4 Si1 Se6'
_cell_volume   321.83264654
_cell_formula_units_Z   1
loop_
 _symmetry_equiv_pos_site_id
 _symmetry_equiv_pos_as_xyz
  1  'x, y, z'
loop_
 _atom_site_type_symbol
 _atom_site_label
 _atom_site_symmetry_multiplicity
 _atom_site_fract_x
 _atom_site_fract_y
 _atom_site_fract_z
 _atom_site_occupancy
  Na  Na0  1  0.00000000  0.62958503  0.50208199  1
  Na  Na1  1  0.00000000  0.37041502  0.00208200  1
  Na  Na2  1  0.00000000  0.29258601  0.71900299  1
  Cu  Cu3  1  0.00000000  0.70741403  0.21900300  1
  Cu  Cu4  1  0.00000000  0.99895904  0.64670599  1
  Cu  Cu5  1  0.00000000  0.00104100  0.14670600  1
  Si  Si6  1  0.49999999  0.81454803  0.91358498  1
  Cu  Cu7  1  0.49999999  0.18545201  0.41358499  1
  Se  Se8  1  0.00000000  0.76548003  0.77669699  1
  Se  Se9  1  0.00000000  0.23452001  0.27669700  1
  Se  Se10  1  0.49999999  0.93164604  0.50730499  1
  Se  Se11  1  0.49999999  0.06835400  0.00730500  1
  Se  Se12  1  0.49999999  0.37106302  0.58105299  1
  Se  Se13  1  0.49999999  0.62893703  0.08105300  1
