# generated using pymatgen
data_LiAlTe2
_symmetry_space_group_name_H-M   'P 1'
_cell_length_a   6.42137623
_cell_length_b   6.42137623
_cell_length_c   7.49403572
_cell_angle_alpha   115.36811829
_cell_angle_beta   115.36811829
_cell_angle_gamma   90.00000000
_symmetry_Int_Tables_number   1
_chemical_formula_structural   LiAlTe2
_chemical_formula_sum   'Li2 Al2 Te4'
_cell_volume   245.83095306
_cell_formula_units_Z   2
loop_
 _symmetry_equiv_pos_site_id
 _symmetry_equiv_pos_as_xyz
  1  'x, y, z'
loop_
 _atom_site_type_symbol
 _atom_site_label
 _atom_site_symmetry_multiplicity
 _atom_site_fract_x
 _atom_site_fract_y
 _atom_site_fract_z
 _atom_site_occupancy
  Li  Li0  1  0.24999996  0.74999996  0.49999996  1
  Li  Li1  1  0.49999996  0.49999997  -0.00000003  1
  Al  Al2  1  0.74999995  0.24999999  0.49999997  1
  Al  Al3  1  0.00000000  0.00000000  0.00000000  1
  Te  Te4  1  0.87499994  0.35713998  0.24999996  1
  Te  Te5  1  0.10713999  0.12499999  0.74999999  1
  Te  Te6  1  0.64285995  0.62499996  0.74999995  1
  Te  Te7  1  0.37499995  0.89285995  0.24999995  1
