# generated using pymatgen
data_LaSO
_symmetry_space_group_name_H-M   'P 1'
_cell_length_a   5.99863577
_cell_length_b   6.00157785
_cell_length_c   7.37698126
_cell_angle_alpha   65.99744415
_cell_angle_beta   90.00000000
_cell_angle_gamma   90.00000000
_symmetry_Int_Tables_number   1
_chemical_formula_structural   LaSO
_chemical_formula_sum   'La4 S4 O4'
_cell_volume   242.61528245
_cell_formula_units_Z   4
loop_
 _symmetry_equiv_pos_site_id
 _symmetry_equiv_pos_as_xyz
  1  'x, y, z'
loop_
 _atom_site_type_symbol
 _atom_site_label
 _atom_site_symmetry_multiplicity
 _atom_site_fract_x
 _atom_site_fract_y
 _atom_site_fract_z
 _atom_site_occupancy
  La  La0  1  0.00000000  0.33249901  0.33500199  1
  La  La1  1  0.50000002  0.16750101  0.66499800  1
  La  La2  1  0.50000002  0.83249903  0.33500198  1
  La  La3  1  0.00000000  0.66750103  0.66499798  1
  S  S4  1  0.14377401  0.14345101  -0.00000000  1
  S  S5  1  0.35622601  0.64345102  0.99999999  1
  S  S6  1  0.85622603  0.85654903  -0.00000003  1
  S  S7  1  0.64377402  0.35654901  0.99999999  1
  O  O8  1  0.25000001  0.00529800  0.50000000  1
  O  O9  1  0.75000003  0.49470202  0.49999999  1
  O  O10  1  0.75000003  0.99470204  0.49999997  1
  O  O11  1  0.25000001  0.50529802  0.49999999  1
