# generated using pymatgen
data_Sb3IrRh3Se5
_symmetry_space_group_name_H-M   'P 1'
_cell_length_a   6.27132607
_cell_length_b   6.27132607
_cell_length_c   6.27132607
_cell_angle_alpha   90.00000000
_cell_angle_beta   90.00000000
_cell_angle_gamma   90.00000000
_symmetry_Int_Tables_number   1
_chemical_formula_structural   Sb3IrRh3Se5
_chemical_formula_sum   'Sb3 Ir1 Rh3 Se5'
_cell_volume   246.64831047
_cell_formula_units_Z   1
loop_
 _symmetry_equiv_pos_site_id
 _symmetry_equiv_pos_as_xyz
  1  'x, y, z'
loop_
 _atom_site_type_symbol
 _atom_site_label
 _atom_site_symmetry_multiplicity
 _atom_site_fract_x
 _atom_site_fract_y
 _atom_site_fract_z
 _atom_site_occupancy
  Sb  Sb0  1  0.49999999  0.49999999  -0.00000000  1
  Sb  Sb1  1  0.49999999  0.00000000  0.49999999  1
  Sb  Sb2  1  0.00000000  0.49999999  0.49999999  1
  Ir  Ir3  1  0.00000000  0.00000000  0.00000000  1
  Rh  Rh4  1  0.13192900  0.86807099  0.36807100  1
  Rh  Rh5  1  0.86807099  0.36807100  0.13192900  1
  Rh  Rh6  1  0.36807100  0.13192900  0.86807099  1
  Se  Se7  1  0.63192899  0.63192899  0.63192899  1
  Se  Se8  1  0.86807099  0.13192900  0.63192899  1
  Se  Se9  1  0.13192900  0.63192899  0.86807099  1
  Se  Se10  1  0.63192899  0.86807099  0.13192900  1
  Se  Se11  1  0.36807100  0.36807100  0.36807100  1
