# generated using pymatgen
data_K2Hg2PdS9
_symmetry_space_group_name_H-M   'P 1'
_cell_length_a   7.22711992
_cell_length_b   7.51548576
_cell_length_c   7.45275164
_cell_angle_alpha   90.00000000
_cell_angle_beta   63.80153656
_cell_angle_gamma   90.00000000
_symmetry_Int_Tables_number   1
_chemical_formula_structural   K2Hg2PdS9
_chemical_formula_sum   'K2 Hg2 Pd1 S9'
_cell_volume   363.21369494
_cell_formula_units_Z   1
loop_
 _symmetry_equiv_pos_site_id
 _symmetry_equiv_pos_as_xyz
  1  'x, y, z'
loop_
 _atom_site_type_symbol
 _atom_site_label
 _atom_site_symmetry_multiplicity
 _atom_site_fract_x
 _atom_site_fract_y
 _atom_site_fract_z
 _atom_site_occupancy
  K  K0  1  0.17780400  0.64734602  0.07707000  1
  K  K1  1  0.17780400  0.85265403  0.57706999  1
  Hg  Hg2  1  0.82219601  0.14734600  0.42292998  1
  Hg  Hg3  1  0.82219601  0.35265401  0.92292998  1
  S  S4  1  0.33325601  0.37929701  0.43114299  1
  Pd  Pd5  1  0.66674401  0.87929703  0.06885699  1
  S  S6  1  0.33325601  0.12070300  0.93114299  1
  S  S7  1  0.66674401  0.62070302  0.56885698  1
  S  S8  1  0.00000000  0.50000002  0.49999999  1
  S  S9  1  0.00000000  0.00000000  0.00000000  1
  S  S10  1  0.40184301  0.10873100  0.22920599  1
  S  S11  1  0.59815701  0.60873102  0.27079399  1
  S  S12  1  0.40184301  0.39126901  0.72920599  1
  S  S13  1  0.59815701  0.89126903  0.77079398  1
