# generated using pymatgen
data_Li2Mn4F11
_symmetry_space_group_name_H-M   'P 1'
_cell_length_a   3.79694200
_cell_length_b   7.70292950
_cell_length_c   7.80312490
_cell_angle_alpha   83.35893250
_cell_angle_beta   75.91883087
_cell_angle_gamma   75.73181152
_symmetry_Int_Tables_number   1
_chemical_formula_structural   Li2Mn4F11
_chemical_formula_sum   'Li2 Mn4 F11'
_cell_volume   214.15960877
_cell_formula_units_Z   1
loop_
 _symmetry_equiv_pos_site_id
 _symmetry_equiv_pos_as_xyz
  1  'x, y, z'
loop_
 _atom_site_type_symbol
 _atom_site_label
 _atom_site_symmetry_multiplicity
 _atom_site_fract_x
 _atom_site_fract_y
 _atom_site_fract_z
 _atom_site_occupancy
  Li  Li0  1  0.61879797  0.29411200  0.46829199  1
  Li  Li1  1  0.38120193  0.70588799  0.53170797  1
  Mn  Mn2  1  0.66082992  0.89628699  0.78205296  1
  Mn  Mn3  1  0.33916999  0.10371300  0.21794699  1
  Mn  Mn4  1  0.11075294  0.63658900  0.14190498  1
  Mn  Mn5  1  0.88924696  0.36341100  0.85809498  1
  F  F6  1  0.70738694  0.63394300  0.95128297  1
  F  F7  1  0.29261297  0.36605700  0.04871699  1
  F  F8  1  0.62347499  0.10582500  0.64722499  1
  F  F9  1  0.37652492  0.89417499  0.35277497  1
  F  F10  1  0.43692296  0.45901300  0.66714098  1
  F  F11  1  0.56307695  0.54098700  0.33285898  1
  F  F12  1  0.79906998  0.16000400  0.24185600  1
  F  F13  1  0.20092992  0.83999599  0.75814396  1
  F  F14  1  0.14577597  0.27882200  0.42962598  1
  F  F15  1  0.85422393  0.72117799  0.57037397  1
  F  F16  1  0.50000000  0.00000000  0.00000000  1
