# generated using pymatgen
data_La2Se2O
_symmetry_space_group_name_H-M   'P 1'
_cell_length_a   4.06835794
_cell_length_b   7.14076281
_cell_length_c   16.18558311
_cell_angle_alpha   90.00000000
_cell_angle_beta   90.00000000
_cell_angle_gamma   90.00000000
_symmetry_Int_Tables_number   1
_chemical_formula_structural   La2Se2O
_chemical_formula_sum   'La8 Se8 O4'
_cell_volume   470.21027376
_cell_formula_units_Z   4
loop_
 _symmetry_equiv_pos_site_id
 _symmetry_equiv_pos_as_xyz
  1  'x, y, z'
loop_
 _atom_site_type_symbol
 _atom_site_label
 _atom_site_symmetry_multiplicity
 _atom_site_fract_x
 _atom_site_fract_y
 _atom_site_fract_z
 _atom_site_occupancy
  La  La0  1  0.75000001  0.20750101  0.04098500  1
  La  La1  1  0.75000001  0.75610202  0.16870100  1
  La  La2  1  0.25000000  0.25610201  0.33129900  1
  La  La3  1  0.25000000  0.70750102  0.45901500  1
  La  La4  1  0.75000001  0.29249901  0.54098500  1
  La  La5  1  0.75000001  0.74389802  0.66870100  1
  La  La6  1  0.25000000  0.24389801  0.83129899  1
  La  La7  1  0.25000000  0.79249902  0.95901499  1
  Se  Se8  1  0.25000000  0.51423701  0.10249900  1
  Se  Se9  1  0.25000000  0.04261700  0.17691600  1
  Se  Se10  1  0.75000001  0.54261701  0.32308400  1
  Se  Se11  1  0.75000001  0.01423700  0.39750100  1
  Se  Se12  1  0.25000000  0.98576303  0.60249900  1
  Se  Se13  1  0.25000000  0.45738301  0.67691600  1
  Se  Se14  1  0.75000001  0.95738303  0.82308399  1
  Se  Se15  1  0.75000001  0.48576301  0.89750099  1
  O  O16  1  0.75000001  0.86727602  0.03180100  1
  O  O17  1  0.25000000  0.36727601  0.46819900  1
  O  O18  1  0.75000001  0.63272402  0.53180100  1
  O  O19  1  0.25000000  0.13272400  0.96819899  1
