# generated using pymatgen
data_LaLuO3
_symmetry_space_group_name_H-M   'P 1'
_cell_length_a   5.77056217
_cell_length_b   6.01033020
_cell_length_c   8.35974884
_cell_angle_alpha   90.00000000
_cell_angle_beta   90.00000000
_cell_angle_gamma   90.00000000
_symmetry_Int_Tables_number   1
_chemical_formula_structural   LaLuO3
_chemical_formula_sum   'La4 Lu4 O12'
_cell_volume   289.94103606
_cell_formula_units_Z   4
loop_
 _symmetry_equiv_pos_site_id
 _symmetry_equiv_pos_as_xyz
  1  'x, y, z'
loop_
 _atom_site_type_symbol
 _atom_site_label
 _atom_site_symmetry_multiplicity
 _atom_site_fract_x
 _atom_site_fract_y
 _atom_site_fract_z
 _atom_site_occupancy
  La  La0  1  0.98433697  0.05388900  0.25000000  1
  La  La1  1  0.48433699  0.44611099  0.75000001  1
  La  La2  1  0.51566298  0.55388898  0.25000000  1
  La  La3  1  0.01566300  0.94611097  0.75000001  1
  Lu  Lu4  1  0.00000000  0.49999998  -0.00000000  1
  Lu  Lu5  1  0.49999999  0.00000000  0.00000000  1
  Lu  Lu6  1  0.49999999  0.00000000  0.50000001  1
  Lu  Lu7  1  0.00000000  0.49999998  0.50000001  1
  O  O8  1  0.69194798  0.30582699  0.43525301  1
  O  O9  1  0.19194799  0.19417299  0.56474701  1
  O  O10  1  0.80805198  0.80582697  0.06474700  1
  O  O11  1  0.30805199  0.69417298  0.93525302  1
  O  O12  1  0.30805199  0.69417298  0.56474701  1
  O  O13  1  0.80805198  0.80582697  0.43525301  1
  O  O14  1  0.19194799  0.19417299  0.93525302  1
  O  O15  1  0.69194798  0.30582699  0.06474700  1
  O  O16  1  0.12307900  0.44588799  0.25000000  1
  O  O17  1  0.62307898  0.05411200  0.75000001  1
  O  O18  1  0.37692099  0.94588797  0.25000000  1
  O  O19  1  0.87692097  0.55411198  0.75000001  1
