# generated using pymatgen
data_In7Se9
_symmetry_space_group_name_H-M   'P 1'
_cell_length_a   6.11107302
_cell_length_b   7.95744705
_cell_length_c   8.19942665
_cell_angle_alpha   90.00000000
_cell_angle_beta   90.00000000
_cell_angle_gamma   90.00000000
_symmetry_Int_Tables_number   1
_chemical_formula_structural   In7Se9
_chemical_formula_sum   'In7 Se9'
_cell_volume   398.72614659
_cell_formula_units_Z   1
loop_
 _symmetry_equiv_pos_site_id
 _symmetry_equiv_pos_as_xyz
  1  'x, y, z'
loop_
 _atom_site_type_symbol
 _atom_site_label
 _atom_site_symmetry_multiplicity
 _atom_site_fract_x
 _atom_site_fract_y
 _atom_site_fract_z
 _atom_site_occupancy
  In  In0  1  0.04667000  0.63030300  0.86195604  1
  In  In1  1  0.54667000  0.86969699  0.13804401  1
  In  In2  1  0.95333000  0.13030300  0.63804403  1
  In  In3  1  0.45333000  0.36969700  0.36195602  1
  In  In4  1  0.95333000  0.36969700  0.13804401  1
  In  In5  1  0.45333000  0.13030300  0.86195604  1
  Se  Se6  1  0.04667000  0.86969699  0.36195602  1
  In  In7  1  0.54667000  0.63030300  0.63804403  1
  Se  Se8  1  0.63257300  0.06465200  0.40422502  1
  Se  Se9  1  0.13257300  0.43534800  0.59577503  1
  Se  Se10  1  0.36742700  0.56465200  0.09577500  1
  Se  Se11  1  0.86742700  0.93534799  0.90422504  1
  Se  Se12  1  0.36742700  0.93534799  0.59577503  1
  Se  Se13  1  0.86742700  0.56465200  0.40422502  1
  Se  Se14  1  0.63257300  0.43534800  0.90422504  1
  Se  Se15  1  0.13257300  0.06465200  0.09577500  1
