# generated using pymatgen
data_NaTm(GeO3)2
_symmetry_space_group_name_H-M   'P 1'
_cell_length_a   5.53370094
_cell_length_b   6.97161198
_cell_length_c   6.97160006
_cell_angle_alpha   83.52073669
_cell_angle_beta   79.30371094
_cell_angle_gamma   79.30348206
_symmetry_Int_Tables_number   1
_chemical_formula_structural   NaTm(GeO3)2
_chemical_formula_sum   'Na2 Tm2 Ge4 O12'
_cell_volume   258.83339314
_cell_formula_units_Z   2
loop_
 _symmetry_equiv_pos_site_id
 _symmetry_equiv_pos_as_xyz
  1  'x, y, z'
loop_
 _atom_site_type_symbol
 _atom_site_label
 _atom_site_symmetry_multiplicity
 _atom_site_fract_x
 _atom_site_fract_y
 _atom_site_fract_z
 _atom_site_occupancy
  Na  Na0  1  0.74999798  0.30326599  0.69673702  1
  Na  Na1  1  0.24999199  0.69673698  0.30326802  1
  Tm  Tm2  1  0.25011499  0.09215200  0.90782200  1
  Tm  Tm3  1  0.75000797  0.90781998  0.09218004  1
  Ge  Ge4  1  0.76957797  0.38409399  0.18946003  1
  Ge  Ge5  1  0.73040697  0.81053798  0.61590304  1
  Ge  Ge6  1  0.23040599  0.61590398  0.81053502  1
  Ge  Ge7  1  0.26957499  0.18946600  0.38409801  1
  O  O8  1  0.52069698  0.32406099  0.39064202  1
  O  O9  1  0.97928297  0.60936198  0.67594104  1
  O  O10  1  0.47928298  0.67595098  0.60935503  1
  O  O11  1  0.02070100  0.39064599  0.32405101  1
  O  O12  1  0.14878399  0.11292300  0.62171200  1
  O  O13  1  0.35120599  0.37829199  0.88707301  1
  O  O14  1  0.85120597  0.88707898  0.37829204  1
  O  O15  1  0.64877798  0.62171298  0.11292403  1
  O  O16  1  0.85788397  0.20860699  0.01782403  1
  O  O17  1  0.64210997  0.98217598  0.79139204  1
  O  O18  1  0.14210699  0.79138798  0.98217602  1
  O  O19  1  0.35787999  0.01782400  0.20861301  1
