# generated using pymatgen
data_Li3V4F13
_symmetry_space_group_name_H-M   'P 1'
_cell_length_a   5.16825008
_cell_length_b   5.32398891
_cell_length_c   8.66926956
_cell_angle_alpha   90.00000000
_cell_angle_beta   90.00000000
_cell_angle_gamma   110.86978912
_symmetry_Int_Tables_number   1
_chemical_formula_structural   Li3V4F13
_chemical_formula_sum   'Li3 V4 F13'
_cell_volume   222.89097721
_cell_formula_units_Z   1
loop_
 _symmetry_equiv_pos_site_id
 _symmetry_equiv_pos_as_xyz
  1  'x, y, z'
loop_
 _atom_site_type_symbol
 _atom_site_label
 _atom_site_symmetry_multiplicity
 _atom_site_fract_x
 _atom_site_fract_y
 _atom_site_fract_z
 _atom_site_occupancy
  Li  Li0  1  0.58121699  0.01095500  0.83698604  1
  Li  Li1  1  0.09702901  0.10580800  0.66224403  1
  Li  Li2  1  0.20161003  0.45297500  0.33962802  1
  V  V3  1  0.79839002  0.54702500  0.83962804  1
  V  V4  1  0.41878306  0.98904500  0.33698602  1
  V  V5  1  0.90297105  0.89419200  0.16224401  1
  F  F6  1  0.25238003  0.48213000  0.00134000  1
  V  V7  1  0.74762002  0.51787000  0.50134003  1
  F  F8  1  0.25056301  0.22735600  0.17085201  1
  F  F9  1  0.34705801  0.27606900  0.49774603  1
  F  F10  1  0.35636601  0.27911700  0.83787104  1
  F  F11  1  0.79453601  0.26282700  0.35109402  1
  F  F12  1  0.85757400  0.26790600  0.97416805  1
  F  F13  1  0.82372201  0.29620600  0.66592703  1
  F  F14  1  0.64363404  0.72088300  0.33787102  1
  F  F15  1  0.65294204  0.72393100  0.99774605  1
  F  F16  1  0.74943704  0.77264400  0.67085203  1
  F  F17  1  0.17627805  0.70379400  0.16592701  1
  F  F18  1  0.14242605  0.73209400  0.47416802  1
  F  F19  1  0.20546405  0.73717300  0.85109404  1
