# generated using pymatgen
data_CsPdCl3
_symmetry_space_group_name_H-M   'P 1'
_cell_length_a   9.21949196
_cell_length_b   9.94113922
_cell_length_c   9.94113922
_cell_angle_alpha   64.92847443
_cell_angle_beta   62.37361908
_cell_angle_gamma   62.37361908
_symmetry_Int_Tables_number   1
_chemical_formula_structural   CsPdCl3
_chemical_formula_sum   'Cs4 Pd4 Cl12'
_cell_volume   689.46795519
_cell_formula_units_Z   4
loop_
 _symmetry_equiv_pos_site_id
 _symmetry_equiv_pos_as_xyz
  1  'x, y, z'
loop_
 _atom_site_type_symbol
 _atom_site_label
 _atom_site_symmetry_multiplicity
 _atom_site_fract_x
 _atom_site_fract_y
 _atom_site_fract_z
 _atom_site_occupancy
  Cs  Cs0  1  0.92553701  0.82446301  0.82446293  1
  Cs  Cs1  1  0.57446301  0.17553700  0.17553698  1
  Cs  Cs2  1  0.07446300  0.17553700  0.17553699  1
  Cs  Cs3  1  0.42553700  0.82446301  0.82446294  1
  Pd  Pd4  1  0.94840401  0.69788801  0.40530394  1
  Pd  Pd5  1  0.05159600  0.30211200  0.59469598  1
  Pd  Pd6  1  0.55159701  0.59469601  0.30211096  1
  Pd  Pd7  1  0.44840301  0.40530400  0.69788896  1
  Cl  Cl8  1  0.10378300  0.45892900  0.33350597  1
  Cl  Cl9  1  0.89621701  0.54107101  0.66649395  1
  Cl  Cl10  1  0.39621800  0.66649301  0.54107096  1
  Cl  Cl11  1  0.60378201  0.33350700  0.45892897  1
  Cl  Cl12  1  0.00399700  0.84527201  0.14673296  1
  Cl  Cl13  1  0.99600302  0.15472800  0.85326696  1
  Cl  Cl14  1  0.49600200  0.85326801  0.15472795  1
  Cl  Cl15  1  0.50399801  0.14673200  0.84527197  1
  Cl  Cl16  1  0.29294400  0.48938200  0.92472896  1
  Cl  Cl17  1  0.70705601  0.51061800  0.07527096  1
  Cl  Cl18  1  0.20705500  0.07527200  0.51061799  1
  Cl  Cl19  1  0.79294501  0.92472801  0.48938193  1
