# generated using pymatgen
data_Na2LiV3O7
_symmetry_space_group_name_H-M   'P 1'
_cell_length_a   5.04166317
_cell_length_b   6.13614225
_cell_length_c   7.35018063
_cell_angle_alpha   73.51031494
_cell_angle_beta   86.64465332
_cell_angle_gamma   70.79859161
_symmetry_Int_Tables_number   1
_chemical_formula_structural   Na2LiV3O7
_chemical_formula_sum   'Na2 Li1 V3 O7'
_cell_volume   205.75356525
_cell_formula_units_Z   1
loop_
 _symmetry_equiv_pos_site_id
 _symmetry_equiv_pos_as_xyz
  1  'x, y, z'
loop_
 _atom_site_type_symbol
 _atom_site_label
 _atom_site_symmetry_multiplicity
 _atom_site_fract_x
 _atom_site_fract_y
 _atom_site_fract_z
 _atom_site_occupancy
  Na  Na0  1  0.80001098  0.26759100  0.81136995  1
  Na  Na1  1  0.19998901  0.73240899  0.18862996  1
  Li  Li2  1  0.49999998  0.00000000  0.49999998  1
  V  V3  1  0.11759901  0.68787899  0.71638595  1
  V  V4  1  0.88240098  0.31212100  0.28361397  1
  V  V5  1  0.26148201  0.78793099  0.50269195  1
  O  O6  1  0.79137399  0.69218299  0.65551794  1
  O  O7  1  0.28544100  0.40087200  0.81787696  1
  O  O8  1  0.20862600  0.30781700  0.34448197  1
  O  O9  1  0.10268301  0.86362999  0.85342794  1
  O  O10  1  0.89731697  0.13637000  0.14657198  1
  O  O11  1  0.73851798  0.21206900  0.49730797  1
  O  O12  1  0.71455899  0.59912799  0.18212296  1
