# generated using pymatgen
data_KLiCrO4
_symmetry_space_group_name_H-M   'P 1'
_cell_length_a   5.49656200
_cell_length_b   5.49656105
_cell_length_c   9.33624935
_cell_angle_alpha   90.00000000
_cell_angle_beta   90.00000000
_cell_angle_gamma   120.00000763
_symmetry_Int_Tables_number   1
_chemical_formula_structural   KLiCrO4
_chemical_formula_sum   'K2 Li2 Cr2 O8'
_cell_volume   244.27849072
_cell_formula_units_Z   2
loop_
 _symmetry_equiv_pos_site_id
 _symmetry_equiv_pos_as_xyz
  1  'x, y, z'
loop_
 _atom_site_type_symbol
 _atom_site_label
 _atom_site_symmetry_multiplicity
 _atom_site_fract_x
 _atom_site_fract_y
 _atom_site_fract_z
 _atom_site_occupancy
  K  K0  1  0.00000000  0.00000000  0.50175698  1
  K  K1  1  0.00000000  0.00000000  0.00175700  1
  Li  Li2  1  0.33333334  0.66666665  0.31872899  1
  Li  Li3  1  0.66666667  0.33333332  0.81872897  1
  Cr  Cr4  1  0.66666667  0.33333332  0.20764799  1
  Cr  Cr5  1  0.33333334  0.66666665  0.70764797  1
  O  O6  1  0.38872600  0.03780800  0.26480899  1
  O  O7  1  0.03780801  0.64908198  0.76480897  1
  O  O8  1  0.35091801  0.38872599  0.76480897  1
  O  O9  1  0.64908201  0.61127398  0.26480899  1
  O  O10  1  0.33333334  0.66666665  0.52903798  1
  O  O11  1  0.66666667  0.33333332  0.02903800  1
  O  O12  1  0.61127401  0.96219197  0.76480897  1
  O  O13  1  0.96219200  0.35091799  0.26480899  1
