# generated using pymatgen
data_Li2Mo5WO12
_symmetry_space_group_name_H-M   'P 1'
_cell_length_a   5.17557621
_cell_length_b   5.59915304
_cell_length_c   7.63410950
_cell_angle_alpha   94.84222412
_cell_angle_beta   90.52582550
_cell_angle_gamma   90.26564026
_symmetry_Int_Tables_number   1
_chemical_formula_structural   Li2Mo5WO12
_chemical_formula_sum   'Li2 Mo5 W1 O12'
_cell_volume   220.42555054
_cell_formula_units_Z   1
loop_
 _symmetry_equiv_pos_site_id
 _symmetry_equiv_pos_as_xyz
  1  'x, y, z'
loop_
 _atom_site_type_symbol
 _atom_site_label
 _atom_site_symmetry_multiplicity
 _atom_site_fract_x
 _atom_site_fract_y
 _atom_site_fract_z
 _atom_site_occupancy
  Mo  Mo0  1  0.48773002  0.07343400  0.71658396  1
  Li  Li1  1  0.98759106  0.57381501  0.21630697  1
  Li  Li2  1  0.98736306  0.58023901  0.72138495  1
  Mo  Mo3  1  0.48731902  0.08025600  0.22124998  1
  W  W4  1  0.48639603  0.49067101  0.00909099  1
  Mo  Mo5  1  0.98635607  0.99139401  0.50908697  1
  Mo  Mo6  1  0.48645803  0.48749901  0.51155598  1
  Mo  Mo7  1  0.98652307  0.98752101  0.01167598  1
  O  O8  1  0.78264604  0.29899100  0.59569796  1
  O  O9  1  0.28267104  0.79892201  0.09506800  1
  O  O10  1  0.66931903  0.14744500  0.95830795  1
  O  O11  1  0.16919303  0.64738401  0.45789499  1
  O  O12  1  0.12442004  0.95384601  0.76353799  1
  O  O13  1  0.62370804  0.45426301  0.26319498  1
  O  O14  1  0.68516205  0.78928301  0.59549197  1
  O  O15  1  0.18575202  0.28987800  0.09531600  1
  O  O16  1  0.82286905  0.65246201  0.96039195  1
  O  O17  1  0.32420402  0.15273100  0.46055198  1
  O  O18  1  0.35105103  0.45571001  0.76450097  1
  O  O19  1  0.85024906  0.95584801  0.26388698  1
