# generated using pymatgen
data_Ba2Ge2PdRhS8
_symmetry_space_group_name_H-M   'P 1'
_cell_length_a   6.79600620
_cell_length_b   6.89944220
_cell_length_c   7.33332157
_cell_angle_alpha   90.00000000
_cell_angle_beta   70.00984192
_cell_angle_gamma   90.00000000
_symmetry_Int_Tables_number   1
_chemical_formula_structural   Ba2Ge2PdRhS8
_chemical_formula_sum   'Ba2 Ge2 Pd1 Rh1 S8'
_cell_volume   323.13309332
_cell_formula_units_Z   1
loop_
 _symmetry_equiv_pos_site_id
 _symmetry_equiv_pos_as_xyz
  1  'x, y, z'
loop_
 _atom_site_type_symbol
 _atom_site_label
 _atom_site_symmetry_multiplicity
 _atom_site_fract_x
 _atom_site_fract_y
 _atom_site_fract_z
 _atom_site_occupancy
  Ba  Ba0  1  0.71597698  0.74999998  0.49413401  1
  Ba  Ba1  1  0.28402299  0.24999999  0.50586601  1
  Rh  Rh2  1  0.00000000  0.00000000  0.00000000  1
  Pd  Pd3  1  -0.00000000  0.49999999  -0.00000000  1
  Ge  Ge4  1  0.48336899  0.74999998  0.00947200  1
  Ge  Ge5  1  0.51663098  0.24999999  0.99052802  1
  S  S6  1  0.20519599  0.74999998  0.51359201  1
  S  S7  1  0.79480398  0.24999999  0.48640801  1
  S  S8  1  0.02582400  0.24999999  0.21082900  1
  S  S9  1  0.97417597  0.74999998  0.78917101  1
  S  S10  1  0.63238598  0.99471797  0.14287900  1
  S  S11  1  0.36761399  0.49471799  0.85712101  1
  S  S12  1  0.63238598  0.50528199  0.14287900  1
  S  S13  1  0.36761399  0.00528200  0.85712101  1
