# generated using pymatgen
data_V3OF5
_symmetry_space_group_name_H-M   'P 1'
_cell_length_a   5.61748266
_cell_length_b   5.61788177
_cell_length_c   7.11070871
_cell_angle_alpha   73.50294495
_cell_angle_beta   73.53311920
_cell_angle_gamma   76.08437347
_symmetry_Int_Tables_number   1
_chemical_formula_structural   V3OF5
_chemical_formula_sum   'V6 O2 F10'
_cell_volume   203.19156160
_cell_formula_units_Z   2
loop_
 _symmetry_equiv_pos_site_id
 _symmetry_equiv_pos_as_xyz
  1  'x, y, z'
loop_
 _atom_site_type_symbol
 _atom_site_label
 _atom_site_symmetry_multiplicity
 _atom_site_fract_x
 _atom_site_fract_y
 _atom_site_fract_z
 _atom_site_occupancy
  V  V0  1  0.50000001  0.50000002  0.50000000  1
  V  V1  1  0.87737603  0.79061803  0.66596501  1
  V  V2  1  0.50000001  0.50000002  -0.00000000  1
  V  V3  1  0.83231902  0.82649103  0.17035000  1
  V  V4  1  0.16768100  0.17350901  0.82965001  1
  V  V5  1  0.12262400  0.20938201  0.33403500  1
  F  F6  1  0.93316403  0.93614304  0.37245600  1
  O  O7  1  0.60807602  0.60462203  0.69922701  1
  F  F8  1  0.26235101  0.26558901  0.03860000  1
  F  F9  1  0.06683600  0.06385700  0.62754401  1
  O  O10  1  0.39192401  0.39537802  0.30077300  1
  F  F11  1  0.73764902  0.73441103  0.96140001  1
  F  F12  1  0.13728400  0.53182102  0.66700801  1
  F  F13  1  0.86271603  0.46817902  0.33299200  1
  F  F14  1  0.53355702  0.13473901  0.66931200  1
  F  F15  1  0.19677100  0.80629003  0.99777102  1
  F  F16  1  0.46644301  0.86526104  0.33068801  1
  F  F17  1  0.80322903  0.19371001  0.00222899  1
