# generated using pymatgen
data_Sb4O7
_symmetry_space_group_name_H-M   'P 1'
_cell_length_a   3.90107393
_cell_length_b   3.98926091
_cell_length_c   10.71949100
_cell_angle_alpha   90.00000000
_cell_angle_beta   100.48404694
_cell_angle_gamma   90.00000000
_symmetry_Int_Tables_number   1
_chemical_formula_structural   Sb4O7
_chemical_formula_sum   'Sb4 O7'
_cell_volume   164.03605034
_cell_formula_units_Z   1
loop_
 _symmetry_equiv_pos_site_id
 _symmetry_equiv_pos_as_xyz
  1  'x, y, z'
loop_
 _atom_site_type_symbol
 _atom_site_label
 _atom_site_symmetry_multiplicity
 _atom_site_fract_x
 _atom_site_fract_y
 _atom_site_fract_z
 _atom_site_occupancy
  Sb  Sb0  1  0.18454100  1.00000002  0.36908201  1
  Sb  Sb1  1  0.81545902  0.00000000  0.63091803  1
  Sb  Sb2  1  0.00000000  0.00000000  0.00000000  1
  Sb  Sb3  1  0.09305000  0.00000000  0.18610001  1
  O  O4  1  0.18548200  0.50000001  0.37096401  1
  O  O5  1  0.70932202  0.00000000  0.41864402  1
  O  O6  1  0.29067801  1.00000002  0.58135602  1
  O  O7  1  0.81451802  0.50000001  0.62903603  1
  O  O8  1  0.90695002  0.00000000  0.81390003  1
  O  O9  1  0.50000001  0.00000000  0.00000001  1
  O  O10  1  0.00000000  0.50000001  -0.00000000  1
