# generated using pymatgen
data_MgZn(CO3)2
_symmetry_space_group_name_H-M   'P 1'
_cell_length_a   4.65468645
_cell_length_b   4.65468645
_cell_length_c   5.64331675
_cell_angle_alpha   65.64387512
_cell_angle_beta   65.64387512
_cell_angle_gamma   59.99999237
_symmetry_Int_Tables_number   1
_chemical_formula_structural   MgZn(CO3)2
_chemical_formula_sum   'Mg1 Zn1 C2 O6'
_cell_volume   93.11067991
_cell_formula_units_Z   1
loop_
 _symmetry_equiv_pos_site_id
 _symmetry_equiv_pos_as_xyz
  1  'x, y, z'
loop_
 _atom_site_type_symbol
 _atom_site_label
 _atom_site_symmetry_multiplicity
 _atom_site_fract_x
 _atom_site_fract_y
 _atom_site_fract_z
 _atom_site_occupancy
  Zn  Zn0  1  0.00000000  0.00000000  0.00000000  1
  Mg  Mg1  1  0.49999998  0.50000000  0.50000004  1
  C  C2  1  0.24999999  0.25000000  0.25000002  1
  C  C3  1  0.74999997  0.75000001  0.75000006  1
  O  O4  1  0.97153098  0.52846900  0.25000007  1
  O  O5  1  0.24999997  0.97153101  0.25000006  1
  O  O6  1  0.47153098  0.75000001  0.75000005  1
  O  O7  1  0.02846899  0.47153100  0.75000001  1
  O  O8  1  0.75000000  0.02846900  0.75000002  1
  O  O9  1  0.52846899  0.25000000  0.25000003  1
