# generated using pymatgen
data_MgAl2H5O
_symmetry_space_group_name_H-M   'P 1'
_cell_length_a   5.70230150
_cell_length_b   5.70230150
_cell_length_c   6.26969242
_cell_angle_alpha   65.92456818
_cell_angle_beta   65.92456818
_cell_angle_gamma   60.14269257
_symmetry_Int_Tables_number   1
_chemical_formula_structural   MgAl2H5O
_chemical_formula_sum   'Mg1 Al2 H5 O1'
_cell_volume   155.93095999
_cell_formula_units_Z   1
loop_
 _symmetry_equiv_pos_site_id
 _symmetry_equiv_pos_as_xyz
  1  'x, y, z'
loop_
 _atom_site_type_symbol
 _atom_site_label
 _atom_site_symmetry_multiplicity
 _atom_site_fract_x
 _atom_site_fract_y
 _atom_site_fract_z
 _atom_site_occupancy
  Mg  Mg0  1  0.00000000  0.00000000  0.00000000  1
  Al  Al1  1  0.35690403  0.35690402  0.90267396  1
  Al  Al2  1  0.64309606  0.64309603  0.09732594  1
  H  H3  1  0.24302502  0.24302501  0.76941097  1
  O  O4  1  0.75697507  0.75697504  0.23058893  1
  H  H5  1  0.29365304  0.76169704  0.21766395  1
  H  H6  1  0.76169705  0.29365301  0.21766395  1
  H  H7  1  0.70634705  0.23830301  0.78233596  1
  H  H8  1  0.23830304  0.70634703  0.78233595  1
