# generated using pymatgen
data_MgSc(BO3)2
_symmetry_space_group_name_H-M   'P 1'
_cell_length_a   4.76070833
_cell_length_b   5.55635357
_cell_length_c   8.05416775
_cell_angle_alpha   105.27085876
_cell_angle_beta   92.50722504
_cell_angle_gamma   110.44667053
_symmetry_Int_Tables_number   1
_chemical_formula_structural   MgSc(BO3)2
_chemical_formula_sum   'Mg2 Sc2 B4 O12'
_cell_volume   190.39483968
_cell_formula_units_Z   2
loop_
 _symmetry_equiv_pos_site_id
 _symmetry_equiv_pos_as_xyz
  1  'x, y, z'
loop_
 _atom_site_type_symbol
 _atom_site_label
 _atom_site_symmetry_multiplicity
 _atom_site_fract_x
 _atom_site_fract_y
 _atom_site_fract_z
 _atom_site_occupancy
  Mg  Mg0  1  0.50150899  0.00032700  0.49984403  1
  Mg  Mg1  1  0.75125097  0.50053901  0.24968403  1
  Sc  Sc2  1  0.00151000  0.00047500  0.99979404  1
  Sc  Sc3  1  0.25127498  0.50059801  0.74965904  1
  B  B4  1  0.11816099  0.24989501  0.36716602  1
  B  B5  1  0.61835498  0.25005701  0.86714905  1
  B  B6  1  0.38135097  0.74966402  0.13286802  1
  B  B7  1  0.88140296  0.74957902  0.63280605  1
  O  O8  1  0.25405699  0.23471900  0.21909402  1
  O  O9  1  0.75420697  0.23472600  0.71907505  1
  O  O10  1  0.66399196  0.73404602  0.13149303  1
  O  O11  1  0.16408797  0.73406502  0.63145604  1
  O  O12  1  0.72931596  0.74978302  0.48059604  1
  O  O13  1  0.22941597  0.75002602  0.98061706  1
  O  O14  1  0.77009697  0.24963301  0.01928602  1
  O  O15  1  0.26989999  0.24949901  0.51930303  1
  O  O16  1  0.83491197  0.26574901  0.36890203  1
  O  O17  1  0.33512398  0.26593001  0.86892905  1
  O  O18  1  0.24497697  0.76535302  0.28116103  1
  O  O19  1  0.74509896  0.76533702  0.78111806  1
