# generated using pymatgen
data_Li5MnO3F
_symmetry_space_group_name_H-M   'P 1'
_cell_length_a   4.75085878
_cell_length_b   6.70323467
_cell_length_c   6.71295643
_cell_angle_alpha   89.83824158
_cell_angle_beta   89.71492004
_cell_angle_gamma   89.68789673
_symmetry_Int_Tables_number   1
_chemical_formula_structural   Li5MnO3F
_chemical_formula_sum   'Li10 Mn2 O6 F2'
_cell_volume   213.77497126
_cell_formula_units_Z   2
loop_
 _symmetry_equiv_pos_site_id
 _symmetry_equiv_pos_as_xyz
  1  'x, y, z'
loop_
 _atom_site_type_symbol
 _atom_site_label
 _atom_site_symmetry_multiplicity
 _atom_site_fract_x
 _atom_site_fract_y
 _atom_site_fract_z
 _atom_site_occupancy
  Li  Li0  1  0.95703505  0.30445299  0.24749100  1
  Li  Li1  1  0.03325602  0.54145198  0.97859095  1
  Li  Li2  1  0.54192704  0.50755798  0.97718597  1
  Li  Li3  1  0.55850505  0.81590497  0.20206696  1
  Li  Li4  1  0.01759301  0.30281899  0.70066697  1
  Li  Li5  1  0.51514003  0.22967199  0.77252199  1
  Li  Li6  1  0.46532702  0.04671900  0.47217400  1
  Li  Li7  1  0.95693204  0.00805800  0.47824402  1
  Li  Li8  1  0.97993606  0.72155398  0.67686297  1
  Li  Li9  1  0.48028304  0.80290997  0.74857895  1
  Mn  Mn10  1  0.98073404  0.01203200  0.96306201  1
  Mn  Mn11  1  0.51859804  0.51394698  0.48275697  1
  O  O12  1  0.81158204  0.29201999  0.97118599  1
  O  O13  1  0.74261604  0.25741099  0.49257100  1
  O  O14  1  0.75784405  0.75589797  0.95664296  1
  O  O15  1  0.28028203  0.52345398  0.74275696  1
  O  O16  1  0.68738405  0.79392297  0.47814696  1
  O  O17  1  0.22152801  0.02619600  0.70710300  1
  F  F18  1  0.27550703  0.51733198  0.20480897  1
  F  F19  1  0.21799001  0.02668200  0.24657900  1
