# generated using pymatgen
data_Ba2Sr5Al5H8
_symmetry_space_group_name_H-M   'P 1'
_cell_length_a   6.99242973
_cell_length_b   6.99242973
_cell_length_c   9.91709328
_cell_angle_alpha   90.00000000
_cell_angle_beta   90.00000000
_cell_angle_gamma   91.05071259
_symmetry_Int_Tables_number   1
_chemical_formula_structural   Ba2Sr5Al5H8
_chemical_formula_sum   'Ba2 Sr5 Al5 H8'
_cell_volume   484.80555765
_cell_formula_units_Z   1
loop_
 _symmetry_equiv_pos_site_id
 _symmetry_equiv_pos_as_xyz
  1  'x, y, z'
loop_
 _atom_site_type_symbol
 _atom_site_label
 _atom_site_symmetry_multiplicity
 _atom_site_fract_x
 _atom_site_fract_y
 _atom_site_fract_z
 _atom_site_occupancy
  Ba  Ba0  1  0.97482397  0.55288498  0.24999999  1
  Ba  Ba1  1  0.44711499  0.02517600  0.74999998  1
  Sr  Sr2  1  0.02517600  0.44711499  0.74999998  1
  Sr  Sr3  1  0.55288498  0.97482397  0.24999999  1
  Sr  Sr4  1  0.25744799  0.25744799  0.97933297  1
  Sr  Sr5  1  0.74255198  0.74255198  0.02066700  1
  Al  Al6  1  0.25744799  0.25744799  0.52066699  1
  Sr  Sr7  1  0.74255198  0.74255198  0.47933299  1
  Al  Al8  1  0.70822398  0.29177599  -0.00000000  1
  Al  Al9  1  0.70822398  0.29177599  0.49999999  1
  Al  Al10  1  0.29177599  0.70822398  -0.00000000  1
  Al  Al11  1  0.29177599  0.70822398  0.49999999  1
  H  H12  1  -0.00000000  0.49999999  -0.00000000  1
  H  H13  1  0.49999999  0.00000000  -0.00000000  1
  H  H14  1  -0.00000000  0.49999999  0.49999999  1
  H  H15  1  0.49999999  0.00000000  0.49999999  1
  H  H16  1  0.96721897  0.96721897  0.24999999  1
  H  H17  1  0.03278100  0.03278100  0.74999998  1
  H  H18  1  0.49586098  0.49586099  0.24999999  1
  H  H19  1  0.50413898  0.50413899  0.74999998  1
