# generated using pymatgen
data_AlH3O5
_symmetry_space_group_name_H-M   'P 1'
_cell_length_a   5.57769680
_cell_length_b   5.60501814
_cell_length_c   7.76407099
_cell_angle_alpha   72.74082947
_cell_angle_beta   70.05056000
_cell_angle_gamma   89.86167908
_symmetry_Int_Tables_number   1
_chemical_formula_structural   AlH3O5
_chemical_formula_sum   'Al2 H6 O10'
_cell_volume   216.56586968
_cell_formula_units_Z   2
loop_
 _symmetry_equiv_pos_site_id
 _symmetry_equiv_pos_as_xyz
  1  'x, y, z'
loop_
 _atom_site_type_symbol
 _atom_site_label
 _atom_site_symmetry_multiplicity
 _atom_site_fract_x
 _atom_site_fract_y
 _atom_site_fract_z
 _atom_site_occupancy
  Al  Al0  1  0.11230797  0.37943202  0.74573602  1
  Al  Al1  1  0.86117297  0.59710502  0.24445104  1
  H  H2  1  0.69900801  0.02415500  0.80777505  1
  H  H3  1  0.73910994  0.85116503  0.65501803  1
  H  H4  1  0.54744795  0.73345603  0.87492403  1
  H  H5  1  0.17859599  0.18808301  0.30295501  1
  H  H6  1  0.40634300  0.04809500  0.37308803  1
  H  H7  1  0.48608899  0.24992001  0.16129702  1
  O  O8  1  0.60889594  0.89014504  0.76471103  1
  O  O9  1  0.35478600  0.10873400  0.25923802  1
  O  O10  1  0.06357795  0.68203003  0.62383701  1
  O  O11  1  0.31874798  0.25383401  0.57856502  1
  O  O12  1  0.67966497  0.54737902  0.10809103  1
  O  O13  1  0.13867894  0.79301703  0.09092200  1
  O  O14  1  0.94612999  0.30619301  0.36677205  1
  O  O15  1  0.68747595  0.74863103  0.40806903  1
  O  O16  1  0.25421697  0.39873202  0.91054902  1
  O  O17  1  0.81258400  0.18474101  0.86578305  1
