# generated using pymatgen
data_LuMn(OF)2
_symmetry_space_group_name_H-M   'P 1'
_cell_length_a   5.05357361
_cell_length_b   5.25913954
_cell_length_c   6.45795727
_cell_angle_alpha   111.77027130
_cell_angle_beta   110.70117188
_cell_angle_gamma   95.32283020
_symmetry_Int_Tables_number   1
_chemical_formula_structural   LuMn(OF)2
_chemical_formula_sum   'Lu2 Mn2 O4 F4'
_cell_volume   144.06747068
_cell_formula_units_Z   2
loop_
 _symmetry_equiv_pos_site_id
 _symmetry_equiv_pos_as_xyz
  1  'x, y, z'
loop_
 _atom_site_type_symbol
 _atom_site_label
 _atom_site_symmetry_multiplicity
 _atom_site_fract_x
 _atom_site_fract_y
 _atom_site_fract_z
 _atom_site_occupancy
  Lu  Lu0  1  0.38152202  0.63152196  0.26304398  1
  Lu  Lu1  1  0.61847804  0.36847798  0.73695600  1
  Mn  Mn2  1  0.85313305  0.10313299  0.20626602  1
  Mn  Mn3  1  0.14686701  0.89686695  0.79373396  1
  O  O4  1  0.00356200  0.78346996  0.06324397  1
  O  O5  1  0.55968203  0.27977398  0.06324401  1
  O  O6  1  0.99643806  0.21652999  0.93675602  1
  O  O7  1  0.44031802  0.72022596  0.93675598  1
  F  F8  1  0.21356201  0.37331798  0.42255199  1
  F  F9  1  0.70899004  0.04923400  0.42255202  1
  F  F10  1  0.78643805  0.62668196  0.57744799  1
  F  F11  1  0.29101001  0.95076595  0.57744797  1
