# generated using pymatgen
data_Ta4GaTe7Se
_symmetry_space_group_name_H-M   'P 1'
_cell_length_a   7.79435587
_cell_length_b   7.85525799
_cell_length_c   7.85525799
_cell_angle_alpha   60.90909195
_cell_angle_beta   60.25613785
_cell_angle_gamma   60.25613785
_symmetry_Int_Tables_number   1
_chemical_formula_structural   Ta4GaTe7Se
_chemical_formula_sum   'Ta4 Ga1 Te7 Se1'
_cell_volume   343.69658501
_cell_formula_units_Z   1
loop_
 _symmetry_equiv_pos_site_id
 _symmetry_equiv_pos_as_xyz
  1  'x, y, z'
loop_
 _atom_site_type_symbol
 _atom_site_label
 _atom_site_symmetry_multiplicity
 _atom_site_fract_x
 _atom_site_fract_y
 _atom_site_fract_z
 _atom_site_occupancy
  Ta  Ta0  1  0.40627599  0.80175200  0.38569603  1
  Ta  Ta1  1  0.40627600  0.38569600  0.80175202  1
  Ta  Ta2  1  0.78603401  0.40157700  0.40157701  1
  Ta  Ta3  1  0.41081200  0.40157800  0.40157701  1
  Ga  Ga4  1  0.00819898  0.99180100  0.99180104  1
  Te  Te5  1  0.13833199  0.58308400  0.14025202  1
  Te  Te6  1  0.13833300  0.14025200  0.58308301  1
  Te  Te7  1  0.59338001  0.13552100  0.13552100  1
  Te  Te8  1  0.13557800  0.13552100  0.13552100  1
  Te  Te9  1  0.08617699  0.64321400  0.64321403  1
  Te  Te10  1  0.62739500  0.64321500  0.64321402  1
  Te  Te11  1  0.63160401  0.10680700  0.62998500  1
  Se  Se12  1  0.63160400  0.62998500  0.10680702  1
