# generated using pymatgen
data_Li2MnBi3O13
_symmetry_space_group_name_H-M   'P 1'
_cell_length_a   5.61036301
_cell_length_b   5.61036301
_cell_length_c   9.43057251
_cell_angle_alpha   89.24577332
_cell_angle_beta   89.24577332
_cell_angle_gamma   73.56189728
_symmetry_Int_Tables_number   1
_chemical_formula_structural   Li2MnBi3O13
_chemical_formula_sum   'Li2 Mn1 Bi3 O13'
_cell_volume   284.66690876
_cell_formula_units_Z   1
loop_
 _symmetry_equiv_pos_site_id
 _symmetry_equiv_pos_as_xyz
  1  'x, y, z'
loop_
 _atom_site_type_symbol
 _atom_site_label
 _atom_site_symmetry_multiplicity
 _atom_site_fract_x
 _atom_site_fract_y
 _atom_site_fract_z
 _atom_site_occupancy
  Li  Li0  1  0.11568100  0.11568100  0.80185303  1
  Li  Li1  1  0.88431902  0.88431903  0.19814707  1
  Mn  Mn2  1  0.50000001  0.50000001  0.00000004  1
  Bi  Bi3  1  0.69252501  0.69252502  0.61555907  1
  Bi  Bi4  1  0.30747501  0.30747501  0.38444103  1
  Bi  Bi5  1  0.00000000  0.00000000  0.00000000  1
  O  O6  1  0.82023702  0.40789001  0.87599407  1
  O  O7  1  0.40789000  0.82023702  0.87599407  1
  O  O8  1  0.33499501  0.33499501  0.85539405  1
  O  O9  1  0.90515102  0.90515103  0.72338509  1
  O  O10  1  0.99617202  0.36023601  0.62544307  1
  O  O11  1  0.36023600  0.99617203  0.62544307  1
  O  O12  1  0.50000001  0.50000001  0.50000005  1
  O  O13  1  0.63976402  0.00382800  0.37455703  1
  O  O14  1  0.00382799  0.63976402  0.37455703  1
  O  O15  1  0.09484900  0.09484900  0.27661501  1
  O  O16  1  0.66500501  0.66500502  0.14460605  1
  O  O17  1  0.59211001  0.17976301  0.12400603  1
  O  O18  1  0.17976300  0.59211002  0.12400603  1
