# generated using pymatgen
data_LaCr(MoO4)2
_symmetry_space_group_name_H-M   'P 1'
_cell_length_a   5.28814983
_cell_length_b   5.42477083
_cell_length_c   6.78807163
_cell_angle_alpha   112.51262665
_cell_angle_beta   111.86323547
_cell_angle_gamma   92.45635223
_symmetry_Int_Tables_number   1
_chemical_formula_structural   LaCr(MoO4)2
_chemical_formula_sum   'La1 Cr1 Mo2 O8'
_cell_volume   162.99943320
_cell_formula_units_Z   1
loop_
 _symmetry_equiv_pos_site_id
 _symmetry_equiv_pos_as_xyz
  1  'x, y, z'
loop_
 _atom_site_type_symbol
 _atom_site_label
 _atom_site_symmetry_multiplicity
 _atom_site_fract_x
 _atom_site_fract_y
 _atom_site_fract_z
 _atom_site_occupancy
  La  La0  1  0.37752601  0.12752601  0.75505301  1
  Cr  Cr1  1  0.62247403  0.87247404  0.24494702  1
  Mo  Mo2  1  0.86643203  0.61643203  0.73286303  1
  Mo  Mo3  1  0.13356801  0.38356802  0.26713701  1
  O  O4  1  0.28085301  0.43890102  0.08011201  1
  O  O5  1  0.79926002  0.14121101  0.08011202  1
  O  O6  1  0.71914803  0.56109902  0.91988802  1
  O  O7  1  0.20074002  0.85878904  0.91988801  1
  O  O8  1  0.62466303  0.77327003  0.56623002  1
  O  O9  1  0.94156703  0.29296001  0.56623003  1
  O  O10  1  0.37533701  0.22673001  0.43377001  1
  O  O11  1  0.05843301  0.70704003  0.43377000  1
