# generated using pymatgen
data_V2F7
_symmetry_space_group_name_H-M   'P 1'
_cell_length_a   5.22541189
_cell_length_b   5.62127161
_cell_length_c   9.98667717
_cell_angle_alpha   84.09091187
_cell_angle_beta   77.20291138
_cell_angle_gamma   62.30342102
_symmetry_Int_Tables_number   1
_chemical_formula_structural   V2F7
_chemical_formula_sum   'V4 F14'
_cell_volume   253.28079764
_cell_formula_units_Z   2
loop_
 _symmetry_equiv_pos_site_id
 _symmetry_equiv_pos_as_xyz
  1  'x, y, z'
loop_
 _atom_site_type_symbol
 _atom_site_label
 _atom_site_symmetry_multiplicity
 _atom_site_fract_x
 _atom_site_fract_y
 _atom_site_fract_z
 _atom_site_occupancy
  V  V0  1  0.24950096  0.93084099  0.57435102  1
  V  V1  1  0.81965797  0.93084099  0.92564903  1
  V  V2  1  0.18034200  0.06915900  0.07435101  1
  V  V3  1  0.75049900  0.06915900  0.42564902  1
  F  F4  1  0.55375097  0.87054499  0.39797703  1
  F  F5  1  0.98161801  0.03676400  0.75000002  1
  F  F6  1  0.19939797  0.77218399  0.98255801  1
  F  F7  1  0.57570397  0.87054499  0.10202303  1
  F  F8  1  0.11393299  0.37072000  0.14536201  1
  F  F9  1  0.48465298  0.62927999  0.64536202  1
  F  F10  1  0.97158200  0.22781600  0.48255803  1
  F  F11  1  0.02841797  0.77218399  0.51744201  1
  F  F12  1  0.51534699  0.37072000  0.35463802  1
  F  F13  1  0.88606698  0.62927999  0.85463803  1
  F  F14  1  0.42429600  0.12945500  0.89797701  1
  F  F15  1  0.80060200  0.22781600  0.01744203  1
  F  F16  1  0.01838196  0.96323599  0.25000001  1
  F  F17  1  0.44624900  0.12945500  0.60202301  1
