# generated using pymatgen
data_TlGeBr3
_symmetry_space_group_name_H-M   'P 1'
_cell_length_a   5.55133009
_cell_length_b   5.56048441
_cell_length_c   5.56048441
_cell_angle_alpha   89.29557800
_cell_angle_beta   89.10866547
_cell_angle_gamma   89.10866547
_symmetry_Int_Tables_number   1
_chemical_formula_structural   TlGeBr3
_chemical_formula_sum   'Tl1 Ge1 Br3'
_cell_volume   171.58749688
_cell_formula_units_Z   1
loop_
 _symmetry_equiv_pos_site_id
 _symmetry_equiv_pos_as_xyz
  1  'x, y, z'
loop_
 _atom_site_type_symbol
 _atom_site_label
 _atom_site_symmetry_multiplicity
 _atom_site_fract_x
 _atom_site_fract_y
 _atom_site_fract_z
 _atom_site_occupancy
  Tl  Tl0  1  0.00539595  0.99519901  0.99519906  1
  Ge  Ge1  1  0.46867499  0.48276701  0.48276700  1
  Br  Br2  1  0.48360399  0.50220601  0.01051200  1
  Br  Br3  1  0.99521700  0.50956701  0.50956698  1
  Br  Br4  1  0.48360401  0.01051200  0.50220598  1
