# generated using pymatgen
data_YAsSe
_symmetry_space_group_name_H-M   'P 1'
_cell_length_a   3.92240095
_cell_length_b   3.94743800
_cell_length_c   17.63343048
_cell_angle_alpha   90.00000000
_cell_angle_beta   90.00000000
_cell_angle_gamma   90.00000000
_symmetry_Int_Tables_number   1
_chemical_formula_structural   YAsSe
_chemical_formula_sum   'Y4 As4 Se4'
_cell_volume   273.02606715
_cell_formula_units_Z   4
loop_
 _symmetry_equiv_pos_site_id
 _symmetry_equiv_pos_as_xyz
  1  'x, y, z'
loop_
 _atom_site_type_symbol
 _atom_site_label
 _atom_site_symmetry_multiplicity
 _atom_site_fract_x
 _atom_site_fract_y
 _atom_site_fract_z
 _atom_site_occupancy
  Y  Y0  1  0.75000001  0.73011400  0.63936098  1
  Y  Y1  1  0.25000000  0.26988600  0.36063899  1
  Y  Y2  1  0.75000001  0.76988600  0.13936100  1
  Y  Y3  1  0.25000000  0.23011400  0.86063898  1
  As  As4  1  0.25000000  0.71325700  0.99798097  1
  As  As5  1  0.75000001  0.28674300  0.00201900  1
  As  As6  1  0.25000000  0.78674300  0.49798099  1
  As  As7  1  0.75000001  0.21325700  0.50201899  1
  Se  Se8  1  0.75000001  0.73129500  0.81227798  1
  Se  Se9  1  0.25000000  0.26870500  0.18772199  1
  Se  Se10  1  0.75000001  0.76870500  0.31227799  1
  Se  Se11  1  0.25000000  0.23129500  0.68772198  1
