# generated using pymatgen
data_CsSc(WO4)2
_symmetry_space_group_name_H-M   'P 1'
_cell_length_a   5.93645811
_cell_length_b   5.93645859
_cell_length_c   7.84007597
_cell_angle_alpha   90.00000000
_cell_angle_beta   90.00000000
_cell_angle_gamma   120.00000000
_symmetry_Int_Tables_number   1
_chemical_formula_structural   CsSc(WO4)2
_chemical_formula_sum   'Cs1 Sc1 W2 O8'
_cell_volume   239.27964344
_cell_formula_units_Z   1
loop_
 _symmetry_equiv_pos_site_id
 _symmetry_equiv_pos_as_xyz
  1  'x, y, z'
loop_
 _atom_site_type_symbol
 _atom_site_label
 _atom_site_symmetry_multiplicity
 _atom_site_fract_x
 _atom_site_fract_y
 _atom_site_fract_z
 _atom_site_occupancy
  Cs  Cs0  1  0.00000000  0.00000000  0.00000000  1
  Sc  Sc1  1  0.00000000  0.00000000  0.50000000  1
  W  W2  1  0.66666667  0.33333334  0.73208100  1
  W  W3  1  0.33333336  0.66666667  0.26791900  1
  O  O4  1  0.83588402  0.67176801  0.66076400  1
  O  O5  1  0.16411601  0.32823200  0.33923600  1
  O  O6  1  0.83588399  0.16411600  0.66076400  1
  O  O7  1  0.16411604  0.83588401  0.33923600  1
  O  O8  1  0.32823200  0.16411600  0.66076400  1
  O  O9  1  0.67176803  0.83588401  0.33923600  1
  O  O10  1  0.66666667  0.33333334  0.95849300  1
  O  O11  1  0.33333336  0.66666667  0.04150700  1
