# generated using pymatgen
data_CrCd(Ag3S4)2
_symmetry_space_group_name_H-M   'P 1'
_cell_length_a   6.26719809
_cell_length_b   6.26719809
_cell_length_c   6.58098221
_cell_angle_alpha   90.00000000
_cell_angle_beta   90.00000000
_cell_angle_gamma   90.00000000
_symmetry_Int_Tables_number   1
_chemical_formula_structural   CrCd(Ag3S4)2
_chemical_formula_sum   'Cr1 Cd1 Ag6 S8'
_cell_volume   258.48631770
_cell_formula_units_Z   1
loop_
 _symmetry_equiv_pos_site_id
 _symmetry_equiv_pos_as_xyz
  1  'x, y, z'
loop_
 _atom_site_type_symbol
 _atom_site_label
 _atom_site_symmetry_multiplicity
 _atom_site_fract_x
 _atom_site_fract_y
 _atom_site_fract_z
 _atom_site_occupancy
  Cd  Cd0  1  0.84423699  0.15576300  0.76297498  1
  Ag  Ag1  1  0.65576299  0.65576299  0.73702498  1
  Ag  Ag2  1  0.15576300  0.84423699  0.23702499  1
  Cr  Cr3  1  0.15576300  0.84423699  0.76297498  1
  Ag  Ag4  1  0.00000000  0.49999999  -0.00000000  1
  Ag  Ag5  1  0.34423700  0.34423700  0.26297499  1
  Ag  Ag6  1  0.49999999  0.00000000  0.49999998  1
  Ag  Ag7  1  0.65576299  0.65576299  0.26297499  1
  S  S8  1  0.84423699  0.15576300  0.23702499  1
  S  S9  1  0.34423700  0.34423700  0.73702498  1
  S  S10  1  0.00000000  0.49999999  0.49999998  1
  S  S11  1  0.49999999  0.00000000  0.00000000  1
  S  S12  1  0.34365200  0.65634799  0.49999998  1
  S  S13  1  0.65634799  0.34365200  0.49999998  1
  S  S14  1  0.84365199  0.84365199  -0.00000000  1
  S  S15  1  0.15634800  0.15634800  -0.00000000  1
