# generated using pymatgen
data_Ca3MgH8
_symmetry_space_group_name_H-M   'P 1'
_cell_length_a   6.16710854
_cell_length_b   6.16710854
_cell_length_c   6.16710854
_cell_angle_alpha   106.16420746
_cell_angle_beta   106.16420746
_cell_angle_gamma   116.30937195
_symmetry_Int_Tables_number   1
_chemical_formula_structural   Ca3MgH8
_chemical_formula_sum   'Ca3 Mg1 H8'
_cell_volume   178.60938726
_cell_formula_units_Z   1
loop_
 _symmetry_equiv_pos_site_id
 _symmetry_equiv_pos_as_xyz
  1  'x, y, z'
loop_
 _atom_site_type_symbol
 _atom_site_label
 _atom_site_symmetry_multiplicity
 _atom_site_fract_x
 _atom_site_fract_y
 _atom_site_fract_z
 _atom_site_occupancy
  Ca  Ca0  1  0.12500006  0.37500003  0.25000004  1
  Mg  Mg1  1  0.87500009  0.62500005  0.75000010  1
  Ca  Ca2  1  0.37500002  0.12500001  0.75000002  1
  Ca  Ca3  1  0.62500013  0.87500007  0.25000012  1
  H  H4  1  0.86476912  0.79635207  0.56841712  1
  H  H5  1  0.29635211  0.72793506  0.43158309  1
  H  H6  1  0.77206503  0.20364802  0.06841706  1
  H  H7  1  0.29635206  0.36476903  0.06841705  1
  H  H8  1  0.70364810  0.63523105  0.93158309  1
  H  H9  1  0.22793512  0.79635207  0.93158309  1
  H  H10  1  0.70364804  0.27206502  0.56841705  1
  H  H11  1  0.13523103  0.20364802  0.43158302  1
