# generated using pymatgen
data_Ce4ThO9
_symmetry_space_group_name_H-M   'P 1'
_cell_length_a   3.96020389
_cell_length_b   3.96020389
_cell_length_c   14.28631115
_cell_angle_alpha   97.96691895
_cell_angle_beta   97.96691895
_cell_angle_gamma   90.00000000
_symmetry_Int_Tables_number   1
_chemical_formula_structural   Ce4ThO9
_chemical_formula_sum   'Ce4 Th1 O9'
_cell_volume   219.70895533
_cell_formula_units_Z   1
loop_
 _symmetry_equiv_pos_site_id
 _symmetry_equiv_pos_as_xyz
  1  'x, y, z'
loop_
 _atom_site_type_symbol
 _atom_site_label
 _atom_site_symmetry_multiplicity
 _atom_site_fract_x
 _atom_site_fract_y
 _atom_site_fract_z
 _atom_site_occupancy
  Ce  Ce0  1  0.80572301  0.80572302  0.61144597  1
  Ce  Ce1  1  0.19427700  0.19427700  0.38855399  1
  Ce  Ce2  1  0.39969601  0.39969601  0.79939197  1
  Ce  Ce3  1  0.00000000  0.00000000  0.00000000  1
  Th  Th4  1  0.60030401  0.60030401  0.20060798  1
  O  O5  1  0.05325000  0.55325001  0.10649999  1
  O  O6  1  0.64558801  0.14558800  0.29117599  1
  O  O7  1  0.85441202  0.35441201  0.70882397  1
  O  O8  1  0.34352100  0.84352102  0.68704197  1
  O  O9  1  0.44675000  0.94675002  0.89349997  1
  O  O10  1  0.95301302  0.45301301  0.90602597  1
  O  O11  1  0.54698701  0.04698700  0.09397399  1
  O  O12  1  0.15647900  0.65647902  0.31295799  1
  O  O13  1  0.75000002  0.25000001  0.49999998  1
