# generated using pymatgen
data_Na3Be2(HO)5
_symmetry_space_group_name_H-M   'P 1'
_cell_length_a   5.41178370
_cell_length_b   5.41178370
_cell_length_c   7.69647360
_cell_angle_alpha   101.84151459
_cell_angle_beta   103.55157471
_cell_angle_gamma   112.01935577
_symmetry_Int_Tables_number   1
_chemical_formula_structural   Na3Be2(HO)5
_chemical_formula_sum   'Na3 Be2 H5 O5'
_cell_volume   192.11001506
_cell_formula_units_Z   1
loop_
 _symmetry_equiv_pos_site_id
 _symmetry_equiv_pos_as_xyz
  1  'x, y, z'
loop_
 _atom_site_type_symbol
 _atom_site_label
 _atom_site_symmetry_multiplicity
 _atom_site_fract_x
 _atom_site_fract_y
 _atom_site_fract_z
 _atom_site_occupancy
  Na  Na0  1  0.49999999  0.00000000  0.00000002  1
  Na  Na1  1  -0.00000001  0.49999997  -0.00000001  1
  Na  Na2  1  -0.00000001  0.49999997  0.49999999  1
  Be  Be3  1  0.78808096  0.91942295  0.70750401  1
  Be  Be4  1  0.21191899  0.08057700  0.29249601  1
  H  H5  1  0.98400896  0.82446096  0.80847002  1
  H  H6  1  0.01599100  0.17553899  0.19153000  1
  H  H7  1  0.70009396  0.80285196  0.50294601  1
  H  H8  1  0.29990599  0.19714799  0.49705401  1
  H  H9  1  0.93211597  0.24145799  0.76042503  1
  O  O10  1  0.51896697  0.82830896  0.76042500  1
  O  O11  1  0.06788398  0.75854196  0.23957499  1
  O  O12  1  0.48103298  0.17169099  0.23957501  1
  O  O13  1  0.62458298  0.33356398  0.95814702  1
  O  O14  1  0.37541697  0.66643597  0.04185300  1
