# generated using pymatgen
data_Na3VAgOF12
_symmetry_space_group_name_H-M   'P 1'
_cell_length_a   4.96277523
_cell_length_b   6.44538927
_cell_length_c   6.99207735
_cell_angle_alpha   110.71938324
_cell_angle_beta   95.78496552
_cell_angle_gamma   105.69766998
_symmetry_Int_Tables_number   1
_chemical_formula_structural   Na3VAgOF12
_chemical_formula_sum   'Na3 V1 Ag1 O1 F12'
_cell_volume   196.53368189
_cell_formula_units_Z   1
loop_
 _symmetry_equiv_pos_site_id
 _symmetry_equiv_pos_as_xyz
  1  'x, y, z'
loop_
 _atom_site_type_symbol
 _atom_site_label
 _atom_site_symmetry_multiplicity
 _atom_site_fract_x
 _atom_site_fract_y
 _atom_site_fract_z
 _atom_site_occupancy
  Na  Na0  1  0.20029498  0.39217199  0.40742199  1
  Na  Na1  1  0.56360395  0.69425698  0.20414497  1
  Na  Na2  1  0.84706696  0.10895900  0.60051702  1
  Ag  Ag3  1  0.98187594  0.49917399  0.01118298  1
  V  V4  1  0.40198495  0.80543998  0.80111898  1
  O  O5  1  0.99801792  0.99697998  0.99631498  1
  F  F6  1  0.80249094  0.60232999  0.60135799  1
  F  F7  1  0.59613997  0.19850700  0.19725300  1
  F  F8  1  0.09726497  0.90649498  0.72746097  1
  F  F9  1  0.10328798  0.52072199  0.71108099  1
  F  F10  1  0.30156496  0.89246098  0.07114595  1
  F  F11  1  0.29322098  0.28585399  0.09303599  1
  F  F12  1  0.52912595  0.74142998  0.55009698  1
  F  F13  1  0.70290795  0.69399398  0.87212599  1
  F  F14  1  0.56369197  0.28569499  0.47719700  1
  F  F15  1  0.70113696  0.10773700  0.92495803  1
  F  F16  1  0.84428194  0.51188799  0.31901999  1
  F  F17  1  0.86555196  0.05467600  0.24476401  1
