# generated using pymatgen
data_LiNbO3
_symmetry_space_group_name_H-M   'P 1'
_cell_length_a   5.31791592
_cell_length_b   5.46627092
_cell_length_c   7.74468327
_cell_angle_alpha   90.00000000
_cell_angle_beta   89.65033722
_cell_angle_gamma   90.00000000
_symmetry_Int_Tables_number   1
_chemical_formula_structural   LiNbO3
_chemical_formula_sum   'Li4 Nb4 O12'
_cell_volume   225.12731549
_cell_formula_units_Z   4
loop_
 _symmetry_equiv_pos_site_id
 _symmetry_equiv_pos_as_xyz
  1  'x, y, z'
loop_
 _atom_site_type_symbol
 _atom_site_label
 _atom_site_symmetry_multiplicity
 _atom_site_fract_x
 _atom_site_fract_y
 _atom_site_fract_z
 _atom_site_occupancy
  Li  Li0  1  0.01103100  0.95042201  0.25295000  1
  Li  Li1  1  0.51103101  0.54957801  0.75295001  1
  Li  Li2  1  0.98896902  0.04957800  0.74705002  1
  Li  Li3  1  0.48896901  0.45042201  0.24705001  1
  Nb  Nb4  1  0.50000001  1.00000001  0.00000001  1
  Nb  Nb5  1  0.00000000  0.50000001  0.50000000  1
  Nb  Nb6  1  0.50000001  0.00000000  0.50000001  1
  Nb  Nb7  1  0.00000000  0.50000001  -0.00000000  1
  O  O8  1  0.31126200  0.69052701  0.05900301  1
  O  O9  1  0.81126201  0.80947301  0.55900302  1
  O  O10  1  0.68873801  0.30947300  0.94099701  1
  O  O11  1  0.18873800  0.19052700  0.44099700  1
  O  O12  1  0.31447300  0.69416201  0.43378501  1
  O  O13  1  0.81447301  0.80583801  0.93378502  1
  O  O14  1  0.68552701  0.30583800  0.56621501  1
  O  O15  1  0.18552700  0.19416200  0.06621500  1
  O  O16  1  0.88152501  0.55558701  0.24595002  1
  O  O17  1  0.38152501  0.94441301  0.74595001  1
  O  O18  1  0.11847500  0.44441301  0.75405000  1
  O  O19  1  0.61847501  0.05558700  0.25405001  1
