# generated using pymatgen
data_ZnH3O2
_symmetry_space_group_name_H-M   'P 1'
_cell_length_a   5.74483395
_cell_length_b   6.35584211
_cell_length_c   6.35584164
_cell_angle_alpha   120.00000000
_cell_angle_beta   90.00000000
_cell_angle_gamma   90.00000000
_symmetry_Int_Tables_number   1
_chemical_formula_structural   ZnH3O2
_chemical_formula_sum   'Zn3 H9 O6'
_cell_volume   200.98066537
_cell_formula_units_Z   3
loop_
 _symmetry_equiv_pos_site_id
 _symmetry_equiv_pos_as_xyz
  1  'x, y, z'
loop_
 _atom_site_type_symbol
 _atom_site_label
 _atom_site_symmetry_multiplicity
 _atom_site_fract_x
 _atom_site_fract_y
 _atom_site_fract_z
 _atom_site_occupancy
  Zn  Zn0  1  0.50000000  0.00000000  -0.00000000  1
  Zn  Zn1  1  0.50000000  0.00000000  0.49999999  1
  Zn  Zn2  1  0.50000000  0.49999998  0.49999996  1
  H  H3  1  0.50000000  0.49999998  -0.00000003  1
  H  H4  1  0.17853800  0.80072196  0.60144394  1
  H  H5  1  0.82146201  0.19927799  0.39855598  1
  H  H6  1  0.82146201  0.60144497  0.80072294  1
  H  H7  1  0.17853800  0.39855498  0.19927697  1
  H  H8  1  0.17853800  0.80072196  0.19927695  1
  H  H9  1  0.82146201  0.19927799  0.80072296  1
  H  H10  1  0.87765401  0.66666664  0.33333329  1
  H  H11  1  0.12234600  0.33333332  0.66666663  1
  O  O12  1  0.34534400  0.35466398  0.17733197  1
  O  O13  1  0.65465601  0.17733199  0.35466398  1
  O  O14  1  0.65465601  0.64533597  0.82266794  1
  O  O15  1  0.34534400  0.82266796  0.64533593  1
  O  O16  1  0.65465601  0.17733199  0.82266797  1
  O  O17  1  0.34534400  0.82266796  0.17733195  1
