# generated using pymatgen
data_SrLaI5
_symmetry_space_group_name_H-M   'P 1'
_cell_length_a   4.68622112
_cell_length_b   9.34484673
_cell_length_c   15.07886124
_cell_angle_alpha   92.37825775
_cell_angle_beta   90.00000000
_cell_angle_gamma   90.00000000
_symmetry_Int_Tables_number   1
_chemical_formula_structural   SrLaI5
_chemical_formula_sum   'Sr2 La2 I10'
_cell_volume   659.76498517
_cell_formula_units_Z   2
loop_
 _symmetry_equiv_pos_site_id
 _symmetry_equiv_pos_as_xyz
  1  'x, y, z'
loop_
 _atom_site_type_symbol
 _atom_site_label
 _atom_site_symmetry_multiplicity
 _atom_site_fract_x
 _atom_site_fract_y
 _atom_site_fract_z
 _atom_site_occupancy
  Sr  Sr0  1  0.24999999  0.91829402  0.85851897  1
  Sr  Sr1  1  0.74999998  0.08170600  0.14148100  1
  La  La2  1  0.74999998  0.58136302  0.65343798  1
  La  La3  1  0.24999999  0.41863701  0.34656198  1
  I  I4  1  0.74999998  0.92511002  0.67971697  1
  I  I5  1  0.24999999  0.85126302  0.07510497  1
  I  I6  1  0.24999999  0.67991602  0.51449297  1
  I  I7  1  0.74999998  0.64828302  0.86536498  1
  I  I8  1  0.74999998  0.62779402  0.28912798  1
  I  I9  1  0.24999999  0.37220601  0.71087199  1
  I  I10  1  0.24999999  0.35171701  0.13463499  1
  I  I11  1  0.74999998  0.32008401  0.48550699  1
  I  I12  1  0.74999998  0.14873700  0.92489499  1
  I  I13  1  0.24999999  0.07489000  0.32028300  1
