# generated using pymatgen
data_Li7NbO6
_symmetry_space_group_name_H-M   'P 1'
_cell_length_a   5.60229683
_cell_length_b   5.60229683
_cell_length_c   5.88489151
_cell_angle_alpha   61.57617950
_cell_angle_beta   61.57617950
_cell_angle_gamma   60.00001144
_symmetry_Int_Tables_number   1
_chemical_formula_structural   Li7NbO6
_chemical_formula_sum   'Li7 Nb1 O6'
_cell_volume   133.62925421
_cell_formula_units_Z   1
loop_
 _symmetry_equiv_pos_site_id
 _symmetry_equiv_pos_as_xyz
  1  'x, y, z'
loop_
 _atom_site_type_symbol
 _atom_site_label
 _atom_site_symmetry_multiplicity
 _atom_site_fract_x
 _atom_site_fract_y
 _atom_site_fract_z
 _atom_site_occupancy
  Li  Li0  1  0.49806603  0.12180201  0.65408498  1
  Li  Li1  1  0.72604705  0.49806602  0.65408496  1
  Li  Li2  1  0.12180202  0.72604703  0.65408497  1
  Li  Li3  1  0.48906504  0.93134204  0.34466395  1
  Li  Li4  1  0.23492902  0.48906502  0.34466397  1
  Li  Li5  1  0.93134205  0.23492901  0.34466396  1
  Li  Li6  1  0.65459005  0.65459003  0.03622996  1
  Nb  Nb7  1  0.00133300  0.00133300  0.99600099  1
  O  O8  1  0.88523306  0.64267103  0.24076095  1
  O  O9  1  0.64267104  0.23133501  0.24076097  1
  O  O10  1  0.23133503  0.88523304  0.24076096  1
  O  O11  1  0.79788504  0.07223200  0.75491297  1
  O  O12  1  0.37497004  0.79788503  0.75491296  1
  O  O13  1  0.07223201  0.37497002  0.75491298  1
