# generated using pymatgen
data_NaCaTi2SiGe(O3F2)2
_symmetry_space_group_name_H-M   'P 1'
_cell_length_a   5.56022263
_cell_length_b   5.56022263
_cell_length_c   7.17668438
_cell_angle_alpha   104.18675995
_cell_angle_beta   104.18675995
_cell_angle_gamma   105.86506653
_symmetry_Int_Tables_number   1
_chemical_formula_structural   NaCaTi2SiGe(O3F2)2
_chemical_formula_sum   'Na1 Ca1 Ti2 Si1 Ge1 O6 F4'
_cell_volume   194.98436321
_cell_formula_units_Z   1
loop_
 _symmetry_equiv_pos_site_id
 _symmetry_equiv_pos_as_xyz
  1  'x, y, z'
loop_
 _atom_site_type_symbol
 _atom_site_label
 _atom_site_symmetry_multiplicity
 _atom_site_fract_x
 _atom_site_fract_y
 _atom_site_fract_z
 _atom_site_occupancy
  Na  Na0  1  0.17396695  0.82603298  0.49999997  1
  Ca  Ca1  1  0.82751199  0.17248800  -0.00000002  1
  Ti  Ti2  1  0.49984197  0.49515899  0.74626897  1
  Ti  Ti3  1  0.50484097  0.50015799  0.25373097  1
  Si  Si4  1  0.81992599  0.18007400  0.49999998  1
  Ge  Ge5  1  0.18277495  0.81722498  -0.00000003  1
  O  O6  1  0.61461399  0.18839600  0.63266298  1
  O  O7  1  0.81160398  0.38538599  0.36733697  1
  O  O8  1  0.39792695  0.81529798  0.85517296  1
  O  O9  1  0.18470196  0.60207299  0.14482697  1
  O  O10  1  0.24648299  0.13441100  0.17153499  1
  O  O11  1  0.86558895  0.75351698  0.82846496  1
  F  F12  1  0.74941695  0.87890398  0.34213795  1
  F  F13  1  0.12109598  0.25058299  0.65786199  1
  F  F14  1  0.56743897  0.43256099  -0.00000003  1
  F  F15  1  0.43226396  0.56773599  0.49999997  1
