# generated using pymatgen
data_SrLaMgRuO6
_symmetry_space_group_name_H-M   'P 1'
_cell_length_a   5.56925344
_cell_length_b   5.65267181
_cell_length_c   7.89676523
_cell_angle_alpha   90.00001526
_cell_angle_beta   89.93364716
_cell_angle_gamma   89.99991608
_symmetry_Int_Tables_number   1
_chemical_formula_structural   SrLaMgRuO6
_chemical_formula_sum   'Sr2 La2 Mg2 Ru2 O12'
_cell_volume   248.59917862
_cell_formula_units_Z   2
loop_
 _symmetry_equiv_pos_site_id
 _symmetry_equiv_pos_as_xyz
  1  'x, y, z'
loop_
 _atom_site_type_symbol
 _atom_site_label
 _atom_site_symmetry_multiplicity
 _atom_site_fract_x
 _atom_site_fract_y
 _atom_site_fract_z
 _atom_site_occupancy
  Sr  Sr0  1  0.00531798  0.46891502  0.75047503  1
  Sr  Sr1  1  0.50532301  0.03108700  0.25047500  1
  La  La2  1  0.98983000  0.54873102  0.24687701  1
  La  La3  1  0.48982998  0.95126903  0.74687805  1
  Mg  Mg4  1  0.49991199  0.49755402  0.49978102  1
  Mg  Mg5  1  0.99992203  0.00244100  0.99978700  1
  Ru  Ru6  1  0.50013899  0.49934802  0.00072802  1
  Ru  Ru7  1  0.00013600  0.00065000  0.50072201  1
  O  O8  1  0.20899198  0.72754902  0.53779904  1
  O  O9  1  0.70899299  0.77245403  0.03779202  1
  O  O10  1  0.80811901  0.28380201  0.45523401  1
  O  O11  1  0.30811900  0.21619901  0.95524002  1
  O  O12  1  0.28450200  0.19617601  0.54197001  1
  O  O13  1  0.78450101  0.30382301  0.04197500  1
  O  O14  1  0.72610399  0.79035403  0.46750703  1
  O  O15  1  0.22610698  0.70964802  0.96750204  1
  O  O16  1  0.06349096  0.97513403  0.25885505  1
  O  O17  1  0.56349199  0.52485402  0.75885403  1
  O  O18  1  0.91358602  0.01627700  0.74077500  1
  O  O19  1  0.41358599  0.48373502  0.24077502  1
