# generated using pymatgen
data_BaCu5Te7S
_symmetry_space_group_name_H-M   'P 1'
_cell_length_a   6.93140221
_cell_length_b   6.95832920
_cell_length_c   7.02313757
_cell_angle_alpha   90.00000000
_cell_angle_beta   89.23963165
_cell_angle_gamma   90.00000000
_symmetry_Int_Tables_number   1
_chemical_formula_structural   BaCu5Te7S
_chemical_formula_sum   'Ba1 Cu5 Te7 S1'
_cell_volume   338.70296827
_cell_formula_units_Z   1
loop_
 _symmetry_equiv_pos_site_id
 _symmetry_equiv_pos_as_xyz
  1  'x, y, z'
loop_
 _atom_site_type_symbol
 _atom_site_label
 _atom_site_symmetry_multiplicity
 _atom_site_fract_x
 _atom_site_fract_y
 _atom_site_fract_z
 _atom_site_occupancy
  Ba  Ba0  1  0.49999998  0.50134599  0.50000000  1
  Cu  Cu1  1  0.81030798  0.80624398  0.80484600  1
  Cu  Cu2  1  0.18969199  0.80624398  0.19515400  1
  Cu  Cu3  1  0.81035998  0.18878999  0.18851901  1
  Cu  Cu4  1  0.18963999  0.18878999  0.81148099  1
  Cu  Cu5  1  0.20324599  0.19457499  0.19450500  1
  Te  Te6  1  0.79675398  0.19457499  0.80549500  1
  Te  Te7  1  0.00000000  0.70535698  0.49999999  1
  Te  Te8  1  0.00000000  0.29931199  0.49999999  1
  Te  Te9  1  0.70512298  0.50447099  0.00073602  1
  Te  Te10  1  0.29487699  0.50447099  0.99926399  1
  Te  Te11  1  0.50539998  0.00035200  0.29705401  1
  Te  Te12  1  0.49459999  0.00035200  0.70294600  1
  S  S13  1  0.00000000  0.99415997  0.99999998  1
