# generated using pymatgen
data_LiTi2O4
_symmetry_space_group_name_H-M   'P 1'
_cell_length_a   5.82519436
_cell_length_b   5.91515636
_cell_length_c   5.96331024
_cell_angle_alpha   60.27558899
_cell_angle_beta   60.99253464
_cell_angle_gamma   90.01758575
_symmetry_Int_Tables_number   1
_chemical_formula_structural   LiTi2O4
_chemical_formula_sum   'Li2 Ti4 O8'
_cell_volume   148.00868344
_cell_formula_units_Z   2
loop_
 _symmetry_equiv_pos_site_id
 _symmetry_equiv_pos_as_xyz
  1  'x, y, z'
loop_
 _atom_site_type_symbol
 _atom_site_label
 _atom_site_symmetry_multiplicity
 _atom_site_fract_x
 _atom_site_fract_y
 _atom_site_fract_z
 _atom_site_occupancy
  Li  Li0  1  0.63285994  0.87903097  0.24199003  1
  Li  Li1  1  0.36713998  0.12096900  0.75800999  1
  Ti  Ti2  1  0.99999992  0.99999997  0.50000003  1
  Ti  Ti3  1  0.99999994  0.49999998  0.50000001  1
  Ti  Ti4  1  0.49999996  0.49999998  0.00000002  1
  Ti  Ti5  1  -0.00000003  0.49999998  0.00000002  1
  O  O6  1  0.77561296  0.24576599  0.50833600  1
  O  O7  1  0.23503998  0.25919099  0.48166500  1
  O  O8  1  0.76495994  0.74080898  0.51833502  1
  O  O9  1  0.22438695  0.75423398  0.49166402  1
  O  O10  1  0.22375696  0.70586298  0.03474903  1
  O  O11  1  0.22408698  0.25956799  0.03466101  1
  O  O12  1  0.77591294  0.74043198  0.96533901  1
  O  O13  1  0.77624296  0.29413699  0.96525099  1
