# generated using pymatgen
data_NaLi2SiO4
_symmetry_space_group_name_H-M   'P 1'
_cell_length_a   4.87726355
_cell_length_b   4.87726355
_cell_length_c   4.87726355
_cell_angle_alpha   94.13756561
_cell_angle_beta   117.64062500
_cell_angle_gamma   117.64062500
_symmetry_Int_Tables_number   1
_chemical_formula_structural   NaLi2SiO4
_chemical_formula_sum   'Na1 Li2 Si1 O4'
_cell_volume   84.72437465
_cell_formula_units_Z   1
loop_
 _symmetry_equiv_pos_site_id
 _symmetry_equiv_pos_as_xyz
  1  'x, y, z'
loop_
 _atom_site_type_symbol
 _atom_site_label
 _atom_site_symmetry_multiplicity
 _atom_site_fract_x
 _atom_site_fract_y
 _atom_site_fract_z
 _atom_site_occupancy
  Li  Li0  1  0.49999997  0.24999998  0.74999995  1
  Li  Li1  1  0.49999994  0.74999995  0.24999993  1
  Na  Na2  1  -0.00000003  0.49999997  0.49999994  1
  Si  Si3  1  0.00000000  0.00000000  0.00000000  1
  O  O4  1  -0.00000002  0.33160198  0.94792494  1
  O  O5  1  -0.00000006  0.94792494  0.33160191  1
  O  O6  1  0.38367798  0.05207600  0.05207599  1
  O  O7  1  0.61632194  0.66839696  0.66839692  1
