# generated using pymatgen
data_MgMoH2O5
_symmetry_space_group_name_H-M   'P 1'
_cell_length_a   5.75804090
_cell_length_b   5.89150333
_cell_length_c   7.01486969
_cell_angle_alpha   100.44838715
_cell_angle_beta   94.67159271
_cell_angle_gamma   106.52654266
_symmetry_Int_Tables_number   1
_chemical_formula_structural   MgMoH2O5
_chemical_formula_sum   'Mg2 Mo2 H4 O10'
_cell_volume   222.11055475
_cell_formula_units_Z   2
loop_
 _symmetry_equiv_pos_site_id
 _symmetry_equiv_pos_as_xyz
  1  'x, y, z'
loop_
 _atom_site_type_symbol
 _atom_site_label
 _atom_site_symmetry_multiplicity
 _atom_site_fract_x
 _atom_site_fract_y
 _atom_site_fract_z
 _atom_site_occupancy
  Mg  Mg0  1  0.63942601  0.70729002  0.19470100  1
  Mg  Mg1  1  0.36057401  0.29271001  0.80529900  1
  Mo  Mo2  1  0.74460002  0.87923402  0.74611201  1
  Mo  Mo3  1  0.25540000  0.12076600  0.25388799  1
  H  H4  1  0.06981201  0.59284101  0.18860502  1
  H  H5  1  0.93018802  0.40715901  0.81139498  1
  H  H6  1  0.86994501  0.34955801  0.20010098  1
  H  H7  1  0.13005501  0.65044202  0.79989902  1
  O  O8  1  0.37807401  0.35981201  0.12203900  1
  O  O9  1  0.62192601  0.64018802  0.87796100  1
  O  O10  1  0.35681601  0.86316502  0.17354202  1
  O  O11  1  0.64318401  0.13683500  0.82645798  1
  O  O12  1  0.35945101  0.23377601  0.50630700  1
  O  O13  1  0.64054902  0.76622402  0.49369300  1
  O  O14  1  0.92491201  0.02903500  0.21252196  1
  O  O15  1  0.07508801  0.97096502  0.78747804  1
  O  O16  1  0.09668901  0.47421701  0.78143702  1
  O  O17  1  0.90331102  0.52578301  0.21856298  1
