# generated using pymatgen
data_NaAgP8
_symmetry_space_group_name_H-M   'P 1'
_cell_length_a   6.81212950
_cell_length_b   6.81213808
_cell_length_c   7.05591202
_cell_angle_alpha   89.99993134
_cell_angle_beta   89.99993134
_cell_angle_gamma   92.14320374
_symmetry_Int_Tables_number   1
_chemical_formula_structural   NaAgP8
_chemical_formula_sum   'Na2 Ag2 P16'
_cell_volume   327.20172899
_cell_formula_units_Z   2
loop_
 _symmetry_equiv_pos_site_id
 _symmetry_equiv_pos_as_xyz
  1  'x, y, z'
loop_
 _atom_site_type_symbol
 _atom_site_label
 _atom_site_symmetry_multiplicity
 _atom_site_fract_x
 _atom_site_fract_y
 _atom_site_fract_z
 _atom_site_occupancy
  Na  Na0  1  0.50000600  0.00000400  0.00000097  1
  Na  Na1  1  0.00000497  0.50001100  0.49999998  1
  Ag  Ag2  1  0.00000900  0.00000700  0.74999800  1
  Ag  Ag3  1  0.00000900  0.00000700  0.25000100  1
  P  P4  1  0.64966196  0.64966200  0.75000193  1
  P  P5  1  0.35035498  0.35035800  0.74999996  1
  P  P6  1  0.64966296  0.64966200  0.24999793  1
  P  P7  1  0.35035498  0.35035800  0.24999996  1
  P  P8  1  0.62459299  0.16071700  0.50000095  1
  P  P9  1  0.16071396  0.62459200  -0.00000004  1
  P  P10  1  0.37535195  0.83925200  0.49999994  1
  P  P11  1  0.83924598  0.37534000  -0.00000007  1
  P  P12  1  0.69705298  0.30294900  0.25001194  1
  P  P13  1  0.69705398  0.30294900  0.74998694  1
  P  P14  1  0.30295296  0.69706100  0.75000295  1
  P  P15  1  0.30295296  0.69705900  0.24999495  1
  P  P16  1  0.69274395  0.86435000  0.49999992  1
  P  P17  1  0.30724799  0.13567900  0.49999997  1
  P  P18  1  0.86434996  0.69273600  -0.00000008  1
  P  P19  1  0.13567298  0.30724800  0.00000098  1
