# generated using pymatgen
data_BaSr5O8
_symmetry_space_group_name_H-M   'P 1'
_cell_length_a   3.65827394
_cell_length_b   6.31597281
_cell_length_c   11.92853642
_cell_angle_alpha   90.00000000
_cell_angle_beta   90.00000000
_cell_angle_gamma   106.83430481
_symmetry_Int_Tables_number   1
_chemical_formula_structural   BaSr5O8
_chemical_formula_sum   'Ba1 Sr5 O8'
_cell_volume   263.80434700
_cell_formula_units_Z   1
loop_
 _symmetry_equiv_pos_site_id
 _symmetry_equiv_pos_as_xyz
  1  'x, y, z'
loop_
 _atom_site_type_symbol
 _atom_site_label
 _atom_site_symmetry_multiplicity
 _atom_site_fract_x
 _atom_site_fract_y
 _atom_site_fract_z
 _atom_site_occupancy
  Sr  Sr0  1  0.11008499  0.22017001  0.74999997  1
  Ba  Ba1  1  0.88991499  0.77983002  0.24999999  1
  Sr  Sr2  1  0.36620298  0.73240602  0.57252898  1
  Sr  Sr3  1  0.36620298  0.73240602  0.92747097  1
  Sr  Sr4  1  0.63379700  0.26759401  0.42747099  1
  Sr  Sr5  1  0.63379700  0.26759401  0.07252900  1
  O  O6  1  0.00000000  0.00000000  0.00000000  1
  O  O7  1  0.00000000  0.00000000  0.49999998  1
  O  O8  1  0.45406498  0.90813003  0.74999997  1
  O  O9  1  0.26288499  0.52577001  0.39595499  1
  O  O10  1  0.26288499  0.52577001  0.10404500  1
  O  O11  1  0.54593501  0.09187000  0.24999999  1
  O  O12  1  0.73711500  0.47423001  0.60404498  1
  O  O13  1  0.73711500  0.47423001  0.89595497  1
