# generated using pymatgen
data_SrAl2(SiO4)2
_symmetry_space_group_name_H-M   'P 1'
_cell_length_a   5.34500980
_cell_length_b   5.34500980
_cell_length_c   7.96328878
_cell_angle_alpha   90.00000000
_cell_angle_beta   90.00000000
_cell_angle_gamma   120.00000000
_symmetry_Int_Tables_number   1
_chemical_formula_structural   SrAl2(SiO4)2
_chemical_formula_sum   'Sr1 Al2 Si2 O8'
_cell_volume   197.02444345
_cell_formula_units_Z   1
loop_
 _symmetry_equiv_pos_site_id
 _symmetry_equiv_pos_as_xyz
  1  'x, y, z'
loop_
 _atom_site_type_symbol
 _atom_site_label
 _atom_site_symmetry_multiplicity
 _atom_site_fract_x
 _atom_site_fract_y
 _atom_site_fract_z
 _atom_site_occupancy
  Sr  Sr0  1  0.00000000  0.00000000  0.00000000  1
  Al  Al1  1  0.33333331  0.66666663  0.29693301  1
  Al  Al2  1  0.66666668  0.33333331  0.70306702  1
  Si  Si3  1  0.33333331  0.66666663  0.71352802  1
  Si  Si4  1  0.66666668  0.33333331  0.28647201  1
  O  O5  1  0.33333331  0.66666663  0.51258601  1
  O  O6  1  0.66666668  0.33333331  0.48741401  1
  O  O7  1  0.43762800  0.42639898  0.20957101  1
  O  O8  1  0.57360002  0.01122800  0.20957101  1
  O  O9  1  0.98877101  0.56237097  0.20957101  1
  O  O10  1  0.56237199  0.57360097  0.79042902  1
  O  O11  1  0.42639997  0.98877194  0.79042902  1
  O  O12  1  0.01122898  0.43762897  0.79042902  1
