# generated using pymatgen
data_Lu3In2GaF12
_symmetry_space_group_name_H-M   'P 1'
_cell_length_a   4.93234777
_cell_length_b   4.93234777
_cell_length_c   9.93245888
_cell_angle_alpha   90.00000000
_cell_angle_beta   90.00000000
_cell_angle_gamma   90.00000000
_symmetry_Int_Tables_number   1
_chemical_formula_structural   Lu3In2GaF12
_chemical_formula_sum   'Lu3 In2 Ga1 F12'
_cell_volume   241.63740157
_cell_formula_units_Z   1
loop_
 _symmetry_equiv_pos_site_id
 _symmetry_equiv_pos_as_xyz
  1  'x, y, z'
loop_
 _atom_site_type_symbol
 _atom_site_label
 _atom_site_symmetry_multiplicity
 _atom_site_fract_x
 _atom_site_fract_y
 _atom_site_fract_z
 _atom_site_occupancy
  Lu  Lu0  1  0.00000000  0.00000000  0.00000000  1
  Lu  Lu1  1  0.50000002  0.50000002  0.50000001  1
  Lu  Lu2  1  0.50000002  0.50000002  0.83295601  1
  In  In3  1  0.00000000  0.00000000  0.33295600  1
  In  In4  1  0.50000002  0.50000002  0.16704400  1
  Ga  Ga5  1  0.00000000  0.00000000  0.66704401  1
  F  F6  1  0.69121403  0.69121403  0.66424401  1
  F  F7  1  0.30878601  0.30878601  0.66424401  1
  F  F8  1  0.69121403  0.69121403  0.33575600  1
  F  F9  1  0.19121401  0.80878604  0.16424400  1
  F  F10  1  0.80878604  0.19121401  0.16424400  1
  F  F11  1  0.80878604  0.19121401  0.83575601  1
  F  F12  1  0.30264701  0.30264701  -0.00000000  1
  F  F13  1  0.19735301  0.80264704  0.50000001  1
  F  F14  1  0.80264704  0.19735301  0.50000001  1
  F  F15  1  0.69735303  0.69735303  -0.00000000  1
  F  F16  1  0.30878601  0.30878601  0.33575600  1
  F  F17  1  0.19121401  0.80878604  0.83575601  1
