# generated using pymatgen
data_Li2Co2P3HO10
_symmetry_space_group_name_H-M   'P 1'
_cell_length_a   5.14982700
_cell_length_b   5.42759657
_cell_length_c   7.08908558
_cell_angle_alpha   106.60494995
_cell_angle_beta   107.95944977
_cell_angle_gamma   100.19598389
_symmetry_Int_Tables_number   1
_chemical_formula_structural   Li2Co2P3HO10
_chemical_formula_sum   'Li2 Co2 P3 H1 O10'
_cell_volume   172.82449230
_cell_formula_units_Z   1
loop_
 _symmetry_equiv_pos_site_id
 _symmetry_equiv_pos_as_xyz
  1  'x, y, z'
loop_
 _atom_site_type_symbol
 _atom_site_label
 _atom_site_symmetry_multiplicity
 _atom_site_fract_x
 _atom_site_fract_y
 _atom_site_fract_z
 _atom_site_occupancy
  Li  Li0  1  0.74607999  0.39109399  0.82077198  1
  Li  Li1  1  0.25391999  0.60890598  0.17922798  1
  Co  Co2  1  0.00000000  0.00000000  0.50000001  1
  Co  Co3  1  0.00000000  0.00000000  0.00000000  1
  P  P4  1  0.67602599  0.36199699  0.23767298  1
  P  P5  1  0.32397399  0.63800298  0.76232699  1
  P  P6  1  0.34938400  0.07512000  0.34483999  1
  H  H7  1  0.65061598  0.92487998  0.65515997  1
  O  O8  1  0.85183199  0.04580900  0.72806899  1
  O  O9  1  0.71194599  0.21176299  0.39435398  1
  O  O10  1  0.31014099  0.33691799  0.65634399  1
  O  O11  1  0.36322899  0.25259399  0.06685898  1
  O  O12  1  0.88625699  0.34314399  0.12146997  1
  O  O13  1  0.11374299  0.65685598  0.87852999  1
  O  O14  1  0.63677098  0.74740598  0.93314098  1
  O  O15  1  0.68985898  0.66308198  0.34365597  1
  O  O16  1  0.28805399  0.78823698  0.60564598  1
  O  O17  1  0.14816799  0.95419098  0.27193098  1
