# generated using pymatgen
data_MgSn(BO3)2
_symmetry_space_group_name_H-M   'P 1'
_cell_length_a   4.83338976
_cell_length_b   4.83338928
_cell_length_c   5.89133835
_cell_angle_alpha   65.78187561
_cell_angle_beta   65.78187561
_cell_angle_gamma   60.00000381
_symmetry_Int_Tables_number   1
_chemical_formula_structural   MgSn(BO3)2
_chemical_formula_sum   'Mg1 Sn1 B2 O6'
_cell_volume   104.97285088
_cell_formula_units_Z   1
loop_
 _symmetry_equiv_pos_site_id
 _symmetry_equiv_pos_as_xyz
  1  'x, y, z'
loop_
 _atom_site_type_symbol
 _atom_site_label
 _atom_site_symmetry_multiplicity
 _atom_site_fract_x
 _atom_site_fract_y
 _atom_site_fract_z
 _atom_site_occupancy
  Mg  Mg0  1  0.00000000  0.00000000  0.00000000  1
  Sn  Sn1  1  0.49999997  0.49999998  0.50000105  1
  B  B2  1  0.75542895  0.75542896  0.73371307  1
  B  B3  1  0.24457098  0.24457199  0.26628602  1
  O  O4  1  0.74209494  0.04676600  0.73765306  1
  O  O5  1  0.47348597  0.74209396  0.73765306  1
  O  O6  1  0.95323293  0.52651297  0.26234807  1
  O  O7  1  0.04676700  0.47348498  0.73765403  1
  O  O8  1  0.25790499  0.95323495  0.26234804  1
  O  O9  1  0.52651396  0.25790499  0.26234704  1
