# generated using pymatgen
data_LaTmO3
_symmetry_space_group_name_H-M   'P 1'
_cell_length_a   5.87708712
_cell_length_b   6.07692385
_cell_length_c   8.51415253
_cell_angle_alpha   90.00000000
_cell_angle_beta   90.00000000
_cell_angle_gamma   90.00000000
_symmetry_Int_Tables_number   1
_chemical_formula_structural   LaTmO3
_chemical_formula_sum   'La4 Tm4 O12'
_cell_volume   304.07964420
_cell_formula_units_Z   4
loop_
 _symmetry_equiv_pos_site_id
 _symmetry_equiv_pos_as_xyz
  1  'x, y, z'
loop_
 _atom_site_type_symbol
 _atom_site_label
 _atom_site_symmetry_multiplicity
 _atom_site_fract_x
 _atom_site_fract_y
 _atom_site_fract_z
 _atom_site_occupancy
  La  La0  1  0.48476999  0.95205402  0.25000001  1
  La  La1  1  0.98476998  0.54794601  0.75000004  1
  La  La2  1  0.01523000  0.45205401  0.25000001  1
  La  La3  1  0.51522999  0.04794600  0.75000004  1
  Tm  Tm4  1  0.00000000  0.00000000  0.00000000  1
  Tm  Tm5  1  0.49999999  0.50000001  -0.00000000  1
  Tm  Tm6  1  0.49999999  0.50000001  0.50000003  1
  Tm  Tm7  1  0.00000000  0.00000000  0.50000003  1
  O  O8  1  0.19254600  0.69434702  0.06782800  1
  O  O9  1  0.69254599  0.80565302  0.93217205  1
  O  O10  1  0.30745399  0.19434700  0.43217202  1
  O  O11  1  0.80745398  0.30565301  0.56782803  1
  O  O12  1  0.80745398  0.30565301  0.93217205  1
  O  O13  1  0.30745399  0.19434700  0.06782800  1
  O  O14  1  0.69254599  0.80565302  0.56782803  1
  O  O15  1  0.19254600  0.69434702  0.43217202  1
  O  O16  1  0.87287098  0.05714900  0.25000001  1
  O  O17  1  0.37287099  0.44285101  0.75000004  1
  O  O18  1  0.62712899  0.55714901  0.25000001  1
  O  O19  1  0.12712900  0.94285102  0.75000004  1
