# generated using pymatgen
data_KNaMnV2O8
_symmetry_space_group_name_H-M   'P 1'
_cell_length_a   5.72263002
_cell_length_b   5.72263002
_cell_length_c   7.51698303
_cell_angle_alpha   67.62624359
_cell_angle_beta   67.62624359
_cell_angle_gamma   60.00000000
_symmetry_Int_Tables_number   1
_chemical_formula_structural   KNaMnV2O8
_chemical_formula_sum   'K1 Na1 Mn1 V2 O8'
_cell_volume   191.49231254
_cell_formula_units_Z   1
loop_
 _symmetry_equiv_pos_site_id
 _symmetry_equiv_pos_as_xyz
  1  'x, y, z'
loop_
 _atom_site_type_symbol
 _atom_site_label
 _atom_site_symmetry_multiplicity
 _atom_site_fract_x
 _atom_site_fract_y
 _atom_site_fract_z
 _atom_site_occupancy
  K  K0  1  0.79870906  0.79870901  0.60387299  1
  Na  Na1  1  0.20129101  0.20129100  0.39612700  1
  Mn  Mn2  1  0.00000000  0.00000000  0.00000000  1
  V  V3  1  0.59411004  0.59411001  0.21766999  1
  V  V4  1  0.40589003  0.40589000  0.78233001  1
  O  O5  1  0.73172603  0.23278900  0.30375900  1
  O  O6  1  0.23278904  0.73172601  0.30375899  1
  O  O7  1  0.73172605  0.73172601  0.30375899  1
  O  O8  1  0.26827404  0.76721101  0.69624100  1
  O  O9  1  0.76721103  0.26827400  0.69624100  1
  O  O10  1  0.32084802  0.32084800  0.03745599  1
  O  O11  1  0.67915205  0.67915201  0.96254400  1
  O  O12  1  0.26827402  0.26827400  0.69624101  1
