# generated using pymatgen
data_Sr4BrN2Cl
_symmetry_space_group_name_H-M   'P 1'
_cell_length_a   3.93552518
_cell_length_b   3.93552518
_cell_length_c   14.71444893
_cell_angle_alpha   82.31481934
_cell_angle_beta   82.31481934
_cell_angle_gamma   60.00001526
_symmetry_Int_Tables_number   1
_chemical_formula_structural   Sr4BrN2Cl
_chemical_formula_sum   'Sr4 Br1 N2 Cl1'
_cell_volume   195.00219653
_cell_formula_units_Z   1
loop_
 _symmetry_equiv_pos_site_id
 _symmetry_equiv_pos_as_xyz
  1  'x, y, z'
loop_
 _atom_site_type_symbol
 _atom_site_label
 _atom_site_symmetry_multiplicity
 _atom_site_fract_x
 _atom_site_fract_y
 _atom_site_fract_z
 _atom_site_occupancy
  Sr  Sr0  1  0.38405999  0.38405999  0.84782000  1
  Sr  Sr1  1  0.88750098  0.88750098  0.33749701  1
  Sr  Sr2  1  0.11249900  0.11249900  0.66250300  1
  Sr  Sr3  1  0.61593999  0.61593999  0.15218001  1
  Br  Br4  1  0.49999999  0.49999999  0.50000000  1
  N  N5  1  0.74830699  0.74830698  0.75507900  1
  N  N6  1  0.25169300  0.25169299  0.24492100  1
  Cl  Cl7  1  0.00000000  0.00000000  0.00000000  1
