# generated using pymatgen
data_LiNb(TeO4)3
_symmetry_space_group_name_H-M   'P 1'
_cell_length_a   5.03069305
_cell_length_b   5.31244087
_cell_length_c   7.34962893
_cell_angle_alpha   93.64261627
_cell_angle_beta   89.93815613
_cell_angle_gamma   89.96409607
_symmetry_Int_Tables_number   1
_chemical_formula_structural   LiNb(TeO4)3
_chemical_formula_sum   'Li1 Nb1 Te3 O12'
_cell_volume   196.02375858
_cell_formula_units_Z   1
loop_
 _symmetry_equiv_pos_site_id
 _symmetry_equiv_pos_as_xyz
  1  'x, y, z'
loop_
 _atom_site_type_symbol
 _atom_site_label
 _atom_site_symmetry_multiplicity
 _atom_site_fract_x
 _atom_site_fract_y
 _atom_site_fract_z
 _atom_site_occupancy
  Li  Li0  1  0.49718099  0.06797200  0.20400599  1
  Nb  Nb1  1  0.00245100  0.99773503  0.98319895  1
  Te  Te2  1  0.50381299  0.50509801  0.00005999  1
  Te  Te3  1  0.00573000  0.99581903  0.49675896  1
  Te  Te4  1  0.49850699  0.49882001  0.50664997  1
  O  O5  1  0.32045600  0.81410202  0.57517896  1
  O  O6  1  0.12647000  0.99469303  0.25406697  1
  O  O7  1  0.30040200  0.18873601  0.95609497  1
  O  O8  1  0.18222300  0.31390301  0.57620998  1
  O  O9  1  0.79378999  0.28605801  0.06313199  1
  O  O10  1  0.37022900  0.48028801  0.25502698  1
  O  O11  1  0.63916199  0.49167801  0.75115497  1
  O  O12  1  0.18859700  0.69481102  0.94581996  1
  O  O13  1  0.81497999  0.67983702  0.43438297  1
  O  O14  1  0.69133699  0.81031302  0.06325198  1
  O  O15  1  0.88628999  0.99525903  0.75156095  1
  O  O16  1  0.67837999  0.17728001  0.43724498  1
