# generated using pymatgen
data_K4Cu3Se11
_symmetry_space_group_name_H-M   'P 1'
_cell_length_a   6.07699823
_cell_length_b   6.09980011
_cell_length_c   13.67595482
_cell_angle_alpha   83.64584351
_cell_angle_beta   77.16300201
_cell_angle_gamma   60.12358093
_symmetry_Int_Tables_number   1
_chemical_formula_structural   K4Cu3Se11
_chemical_formula_sum   'K4 Cu3 Se11'
_cell_volume   428.58779998
_cell_formula_units_Z   1
loop_
 _symmetry_equiv_pos_site_id
 _symmetry_equiv_pos_as_xyz
  1  'x, y, z'
loop_
 _atom_site_type_symbol
 _atom_site_label
 _atom_site_symmetry_multiplicity
 _atom_site_fract_x
 _atom_site_fract_y
 _atom_site_fract_z
 _atom_site_occupancy
  K  K0  1  0.92386795  0.00000000  0.15226402  1
  K  K1  1  0.07613200  0.00000000  0.84773600  1
  K  K2  1  0.82613194  0.50000001  0.34773604  1
  K  K3  1  0.67386795  0.50000001  0.65226403  1
  Se  Se4  1  0.49999997  0.00000000  0.00000001  1
  Cu  Cu5  1  0.24999997  0.50000001  0.50000002  1
  Cu  Cu6  1  0.25036199  0.00000000  0.49927601  1
  Cu  Cu7  1  0.74963796  0.00000000  0.50072402  1
  Se  Se8  1  0.49963796  0.50000001  0.00072403  1
  Se  Se9  1  0.00036199  0.50000001  0.99927601  1
  Se  Se10  1  0.39393697  0.33309901  0.88348302  1
  Se  Se11  1  0.27296298  0.33309901  0.11651802  1
  Se  Se12  1  0.72257894  0.66690202  0.88348304  1
  Se  Se13  1  0.61051795  0.66690202  0.11651804  1
  Se  Se14  1  0.35606298  0.16690100  0.61651701  1
  Se  Se15  1  0.47703697  0.16690100  0.38348202  1
  Se  Se16  1  0.02742098  0.83309802  0.61651702  1
  Se  Se17  1  0.13948197  0.83309802  0.38348203  1
