# generated using pymatgen
data_ZrSn2Te9
_symmetry_space_group_name_H-M   'P 1'
_cell_length_a   3.77640891
_cell_length_b   6.92474079
_cell_length_c   16.36433601
_cell_angle_alpha   90.00000000
_cell_angle_beta   90.00000000
_cell_angle_gamma   90.00000000
_symmetry_Int_Tables_number   1
_chemical_formula_structural   ZrSn2Te9
_chemical_formula_sum   'Zr1 Sn2 Te9'
_cell_volume   427.93806987
_cell_formula_units_Z   1
loop_
 _symmetry_equiv_pos_site_id
 _symmetry_equiv_pos_as_xyz
  1  'x, y, z'
loop_
 _atom_site_type_symbol
 _atom_site_label
 _atom_site_symmetry_multiplicity
 _atom_site_fract_x
 _atom_site_fract_y
 _atom_site_fract_z
 _atom_site_occupancy
  Zr  Zr0  1  0.00000000  0.49084701  0.00697000  1
  Sn  Sn1  1  0.00000000  0.88356303  0.50048300  1
  Te  Te2  1  0.50000001  0.11643700  0.00048300  1
  Sn  Sn3  1  0.50000001  0.50915302  0.50697000  1
  Te  Te4  1  0.00000000  0.88421703  0.10367700  1
  Te  Te5  1  0.50000001  0.77777602  0.36889600  1
  Te  Te6  1  0.00000000  0.22222401  0.86889600  1
  Te  Te7  1  0.50000001  0.72302602  0.90373100  1
  Te  Te8  1  0.50000001  0.11578300  0.60367700  1
  Te  Te9  1  0.50000001  0.38467501  0.13854300  1
  Te  Te10  1  0.00000000  0.27697401  0.40373100  1
  Te  Te11  1  0.00000000  0.61532502  0.63854300  1
