# generated using pymatgen
data_Na2GeO3
_symmetry_space_group_name_H-M   'P 1'
_cell_length_a   4.99944782
_cell_length_b   6.31394005
_cell_length_c   6.32424879
_cell_angle_alpha   60.05390930
_cell_angle_beta   90.00000000
_cell_angle_gamma   90.00000000
_symmetry_Int_Tables_number   1
_chemical_formula_structural   Na2GeO3
_chemical_formula_sum   'Na4 Ge2 O6'
_cell_volume   172.98073412
_cell_formula_units_Z   2
loop_
 _symmetry_equiv_pos_site_id
 _symmetry_equiv_pos_as_xyz
  1  'x, y, z'
loop_
 _atom_site_type_symbol
 _atom_site_label
 _atom_site_symmetry_multiplicity
 _atom_site_fract_x
 _atom_site_fract_y
 _atom_site_fract_z
 _atom_site_occupancy
  Na  Na0  1  0.50183202  0.49354499  0.33411503  1
  Na  Na1  1  0.50183202  0.82765998  0.66588505  1
  Na  Na2  1  0.00183200  0.50645499  0.66588504  1
  Na  Na3  1  0.00183200  0.17234000  0.33411502  1
  Ge  Ge4  1  0.53434402  0.16384700  0.00000001  1
  Ge  Ge5  1  0.03434400  0.83615298  1.00000006  1
  O  O6  1  0.39692601  0.89544998  0.00000003  1
  O  O7  1  0.89692603  0.10455000  0.00000000  1
  O  O8  1  0.47483302  0.43241299  0.72676404  1
  O  O9  1  0.97483303  0.56758699  0.27323603  1
  O  O10  1  0.47483302  0.15917700  0.27323601  1
  O  O11  1  0.97483303  0.84082298  0.72676405  1
