# generated using pymatgen
data_ZnCO3
_symmetry_space_group_name_H-M   'P 1'
_cell_length_a   4.69212580
_cell_length_b   4.69212580
_cell_length_c   5.74481630
_cell_angle_alpha   65.89695740
_cell_angle_beta   65.89695740
_cell_angle_gamma   60.00000381
_symmetry_Int_Tables_number   1
_chemical_formula_structural   ZnCO3
_chemical_formula_sum   'Zn2 C2 O6'
_cell_volume   96.59043758
_cell_formula_units_Z   2
loop_
 _symmetry_equiv_pos_site_id
 _symmetry_equiv_pos_as_xyz
  1  'x, y, z'
loop_
 _atom_site_type_symbol
 _atom_site_label
 _atom_site_symmetry_multiplicity
 _atom_site_fract_x
 _atom_site_fract_y
 _atom_site_fract_z
 _atom_site_occupancy
  Zn  Zn0  1  0.49999995  0.49999999  0.50000005  1
  Zn  Zn1  1  0.00000000  0.00000000  0.00000000  1
  C  C2  1  0.74999993  0.74999998  0.75000007  1
  C  C3  1  0.24999998  0.24999999  0.25000002  1
  O  O4  1  0.74999994  0.47350599  0.75000005  1
  O  O5  1  0.02649396  0.74999998  0.75000003  1
  O  O6  1  0.52649393  0.97350597  0.25000009  1
  O  O7  1  0.24999996  0.52649399  0.25000004  1
  O  O8  1  0.97350594  0.24999999  0.25000007  1
  O  O9  1  0.47350598  0.02649400  0.75000001  1
