# generated using pymatgen
data_TmTl(MoO4)2
_symmetry_space_group_name_H-M   'P 1'
_cell_length_a   6.08955812
_cell_length_b   6.08955717
_cell_length_c   8.06267071
_cell_angle_alpha   90.00000000
_cell_angle_beta   90.00000000
_cell_angle_gamma   120.00000763
_symmetry_Int_Tables_number   1
_chemical_formula_structural   TmTl(MoO4)2
_chemical_formula_sum   'Tm1 Tl1 Mo2 O8'
_cell_volume   258.92919044
_cell_formula_units_Z   1
loop_
 _symmetry_equiv_pos_site_id
 _symmetry_equiv_pos_as_xyz
  1  'x, y, z'
loop_
 _atom_site_type_symbol
 _atom_site_label
 _atom_site_symmetry_multiplicity
 _atom_site_fract_x
 _atom_site_fract_y
 _atom_site_fract_z
 _atom_site_occupancy
  Tl  Tl0  1  0.00000000  0.00000000  0.00000000  1
  Tm  Tm1  1  0.00000000  0.00000000  0.50000002  1
  Mo  Mo2  1  0.66666668  0.33333335  0.73365303  1
  Mo  Mo3  1  0.33333337  0.66666669  0.26634701  1
  O  O4  1  0.83157203  0.66314403  0.66349602  1
  O  O5  1  0.16842802  0.33685601  0.33650401  1
  O  O6  1  0.83157199  0.16842801  0.66349602  1
  O  O7  1  0.16842805  0.83157203  0.33650401  1
  O  O8  1  0.33685600  0.16842801  0.66349602  1
  O  O9  1  0.66314404  0.83157203  0.33650401  1
  O  O10  1  0.66666668  0.33333335  0.95343403  1
  O  O11  1  0.33333337  0.66666669  0.04656600  1
