# generated using pymatgen
data_Sb2Te3Se2
_symmetry_space_group_name_H-M   'P 1'
_cell_length_a   4.28192806
_cell_length_b   4.28192806
_cell_length_c   15.06204987
_cell_angle_alpha   81.82812500
_cell_angle_beta   81.82812500
_cell_angle_gamma   59.99999619
_symmetry_Int_Tables_number   1
_chemical_formula_structural   Sb2Te3Se2
_chemical_formula_sum   'Sb2 Te3 Se2'
_cell_volume   235.91923109
_cell_formula_units_Z   1
loop_
 _symmetry_equiv_pos_site_id
 _symmetry_equiv_pos_as_xyz
  1  'x, y, z'
loop_
 _atom_site_type_symbol
 _atom_site_label
 _atom_site_symmetry_multiplicity
 _atom_site_fract_x
 _atom_site_fract_y
 _atom_site_fract_z
 _atom_site_occupancy
  Sb  Sb0  1  0.38141102  0.38141102  0.85576700  1
  Sb  Sb1  1  0.87089403  0.87089404  0.38731803  1
  Te  Te2  1  0.62757302  0.62757303  0.11728102  1
  Te  Te3  1  0.49889802  0.49889802  0.50330601  1
  Te  Te4  1  0.24974501  0.24974501  0.25076501  1
  Se  Se5  1  0.00002600  0.00002600  0.99992199  1
  Se  Se6  1  0.74645203  0.74645203  0.76064402  1
