# generated using pymatgen
data_Rb3SbF6
_symmetry_space_group_name_H-M   'P 1'
_cell_length_a   7.31291914
_cell_length_b   7.31432056
_cell_length_c   7.31655073
_cell_angle_alpha   102.79875183
_cell_angle_beta   104.51049805
_cell_angle_gamma   102.19028473
_symmetry_Int_Tables_number   1
_chemical_formula_structural   Rb3SbF6
_chemical_formula_sum   'Rb3 Sb1 F6'
_cell_volume   354.41265793
_cell_formula_units_Z   1
loop_
 _symmetry_equiv_pos_site_id
 _symmetry_equiv_pos_as_xyz
  1  'x, y, z'
loop_
 _atom_site_type_symbol
 _atom_site_label
 _atom_site_symmetry_multiplicity
 _atom_site_fract_x
 _atom_site_fract_y
 _atom_site_fract_z
 _atom_site_occupancy
  Rb  Rb0  1  0.50000000  0.00000000  0.00000002  1
  Rb  Rb1  1  -0.00000001  0.49999999  0.00000002  1
  Rb  Rb2  1  -0.00000000  0.00000000  0.50000002  1
  Sb  Sb3  1  0.00000000  0.00000000  0.00000000  1
  F  F4  1  0.22593699  0.92863299  0.22997206  1
  F  F5  1  0.77406301  0.07136700  0.77002905  1
  F  F6  1  0.22487900  0.21722400  0.92796305  1
  F  F7  1  0.77512100  0.78277599  0.07203707  1
  F  F8  1  0.93513301  0.22804300  0.22322605  1
  F  F9  1  0.06486699  0.77195699  0.77677407  1
