# generated using pymatgen
data_Ca2SnN2
_symmetry_space_group_name_H-M   'P 1'
_cell_length_a   5.12957811
_cell_length_b   6.19494963
_cell_length_c   12.13042831
_cell_angle_alpha   90.00000000
_cell_angle_beta   90.00000000
_cell_angle_gamma   114.45716858
_symmetry_Int_Tables_number   1
_chemical_formula_structural   Ca2SnN2
_chemical_formula_sum   'Ca8 Sn4 N8'
_cell_volume   350.88619279
_cell_formula_units_Z   4
loop_
 _symmetry_equiv_pos_site_id
 _symmetry_equiv_pos_as_xyz
  1  'x, y, z'
loop_
 _atom_site_type_symbol
 _atom_site_label
 _atom_site_symmetry_multiplicity
 _atom_site_fract_x
 _atom_site_fract_y
 _atom_site_fract_z
 _atom_site_occupancy
  Ca  Ca0  1  0.46069998  0.92139998  0.13755500  1
  Ca  Ca1  1  0.53929999  0.07860000  0.86244498  1
  Ca  Ca2  1  0.03930000  0.07860000  0.63755498  1
  Ca  Ca3  1  0.96069996  0.92139998  0.36244499  1
  Ca  Ca4  1  0.13837199  0.27674399  0.04582600  1
  Ca  Ca5  1  0.86162797  0.72325598  0.95417398  1
  Ca  Ca6  1  0.36162798  0.72325598  0.54582599  1
  Ca  Ca7  1  0.63837198  0.27674399  0.45417399  1
  Sn  Sn8  1  0.25708399  0.51416799  0.31442799  1
  Sn  Sn9  1  0.74291598  0.48583199  0.68557198  1
  Sn  Sn10  1  0.24291599  0.48583199  0.81442798  1
  Sn  Sn11  1  0.75708398  0.51416799  0.18557200  1
  N  N12  1  0.43833798  0.87667598  0.35944399  1
  N  N13  1  0.56166199  0.12332400  0.64055598  1
  N  N14  1  0.06166200  0.12332400  0.85944398  1
  N  N15  1  0.93833797  0.87667598  0.14055600  1
  N  N16  1  0.15115699  0.30231399  0.45472899  1
  N  N17  1  0.84884297  0.69768599  0.54527099  1
  N  N18  1  0.34884298  0.69768599  0.95472898  1
  N  N19  1  0.65115698  0.30231399  0.04527100  1
