# generated using pymatgen
data_MgGaTe2
_symmetry_space_group_name_H-M   'P 1'
_cell_length_a   4.35806608
_cell_length_b   4.35815859
_cell_length_c   6.90056896
_cell_angle_alpha   89.99772644
_cell_angle_beta   89.99798584
_cell_angle_gamma   60.00207138
_symmetry_Int_Tables_number   1
_chemical_formula_structural   MgGaTe2
_chemical_formula_sum   'Mg1 Ga1 Te2'
_cell_volume   113.50668421
_cell_formula_units_Z   1
loop_
 _symmetry_equiv_pos_site_id
 _symmetry_equiv_pos_as_xyz
  1  'x, y, z'
loop_
 _atom_site_type_symbol
 _atom_site_label
 _atom_site_symmetry_multiplicity
 _atom_site_fract_x
 _atom_site_fract_y
 _atom_site_fract_z
 _atom_site_occupancy
  Mg  Mg0  1  0.99998799  0.99999505  0.00943902  1
  Ga  Ga1  1  0.33333333  0.33333335  0.63467401  1
  Te  Te2  1  0.33333333  0.33327968  0.25486101  1
  Te  Te3  1  0.66666666  0.66666670  0.73502602  1
