# generated using pymatgen
data_SbTe
_symmetry_space_group_name_H-M   'P 1'
_cell_length_a   4.37655783
_cell_length_b   4.37655783
_cell_length_c   25.18000984
_cell_angle_alpha   90.00000000
_cell_angle_beta   90.00000000
_cell_angle_gamma   120.00000000
_symmetry_Int_Tables_number   1
_chemical_formula_structural   SbTe
_chemical_formula_sum   'Sb6 Te6'
_cell_volume   417.68787605
_cell_formula_units_Z   6
loop_
 _symmetry_equiv_pos_site_id
 _symmetry_equiv_pos_as_xyz
  1  'x, y, z'
loop_
 _atom_site_type_symbol
 _atom_site_label
 _atom_site_symmetry_multiplicity
 _atom_site_fract_x
 _atom_site_fract_y
 _atom_site_fract_z
 _atom_site_occupancy
  Sb  Sb0  1  0.66666668  0.33333331  0.12675700  1
  Sb  Sb1  1  0.66666668  0.33333331  0.87396601  1
  Sb  Sb2  1  0.33333331  0.66666662  0.53166200  1
  Sb  Sb3  1  0.00000000  0.00000000  0.46686800  1
  Sb  Sb4  1  0.66666668  0.33333331  0.29203700  1
  Sb  Sb5  1  0.66666668  0.33333331  0.70890600  1
  Te  Te6  1  0.33333331  0.66666662  0.78813100  1
  Te  Te7  1  0.00000000  0.00000000  0.21094600  1
  Te  Te8  1  0.33333331  0.66666662  0.05670500  1
  Te  Te9  1  0.00000000  0.00000000  0.94350701  1
  Te  Te10  1  0.33333331  0.66666662  0.35898300  1
  Te  Te11  1  0.00000000  0.00000000  0.64153000  1
