# generated using pymatgen
data_CsKClO
_symmetry_space_group_name_H-M   'P 1'
_cell_length_a   4.04204702
_cell_length_b   4.04204702
_cell_length_c   7.86578941
_cell_angle_alpha   75.11151886
_cell_angle_beta   75.11151886
_cell_angle_gamma   60.00001907
_symmetry_Int_Tables_number   1
_chemical_formula_structural   CsKClO
_chemical_formula_sum   'Cs1 K1 Cl1 O1'
_cell_volume   106.28394012
_cell_formula_units_Z   1
loop_
 _symmetry_equiv_pos_site_id
 _symmetry_equiv_pos_as_xyz
  1  'x, y, z'
loop_
 _atom_site_type_symbol
 _atom_site_label
 _atom_site_symmetry_multiplicity
 _atom_site_fract_x
 _atom_site_fract_y
 _atom_site_fract_z
 _atom_site_occupancy
  K  K0  1  0.00000000  0.00000000  0.00000000  1
  Cs  Cs1  1  0.50000000  0.49999998  0.49999998  1
  Cl  Cl2  1  0.73251801  0.73251797  0.80244597  1
  O  O3  1  0.26748200  0.26748199  0.19755399  1
