# generated using pymatgen
data_SrH4
_symmetry_space_group_name_H-M   'P 1'
_cell_length_a   4.05212116
_cell_length_b   4.05212116
_cell_length_c   8.12374306
_cell_angle_alpha   90.00000000
_cell_angle_beta   90.00000000
_cell_angle_gamma   90.00000000
_symmetry_Int_Tables_number   1
_chemical_formula_structural   SrH4
_chemical_formula_sum   'Sr2 H8'
_cell_volume   133.38930945
_cell_formula_units_Z   2
loop_
 _symmetry_equiv_pos_site_id
 _symmetry_equiv_pos_as_xyz
  1  'x, y, z'
loop_
 _atom_site_type_symbol
 _atom_site_label
 _atom_site_symmetry_multiplicity
 _atom_site_fract_x
 _atom_site_fract_y
 _atom_site_fract_z
 _atom_site_occupancy
  Sr  Sr0  1  0.00000000  0.00000000  0.00000000  1
  Sr  Sr1  1  0.00000000  0.00000000  0.50000000  1
  H  H2  1  0.49999998  0.49999998  0.28225700  1
  H  H3  1  0.49999998  0.49999998  0.71774299  1
  H  H4  1  0.49999998  0.00000000  -0.00000000  1
  H  H5  1  0.49999998  0.00000000  0.50000000  1
  H  H6  1  0.00000000  0.49999998  -0.00000000  1
  H  H7  1  0.00000000  0.49999998  0.50000000  1
  H  H8  1  0.00000000  0.00000000  0.24880000  1
  H  H9  1  0.00000000  0.00000000  0.75119999  1
