# generated using pymatgen
data_CaZr2NbN3O
_symmetry_space_group_name_H-M   'P 1'
_cell_length_a   5.72205210
_cell_length_b   5.77438927
_cell_length_c   8.80612183
_cell_angle_alpha   71.71955109
_cell_angle_beta   86.36333466
_cell_angle_gamma   86.52153015
_symmetry_Int_Tables_number   1
_chemical_formula_structural   CaZr2NbN3O
_chemical_formula_sum   'Ca2 Zr4 Nb2 N6 O2'
_cell_volume   275.47015054
_cell_formula_units_Z   2
loop_
 _symmetry_equiv_pos_site_id
 _symmetry_equiv_pos_as_xyz
  1  'x, y, z'
loop_
 _atom_site_type_symbol
 _atom_site_label
 _atom_site_symmetry_multiplicity
 _atom_site_fract_x
 _atom_site_fract_y
 _atom_site_fract_z
 _atom_site_occupancy
  Ca  Ca0  1  0.97442198  0.00129900  0.01684900  1
  Ca  Ca1  1  0.98118496  0.67044202  0.66666663  1
  Zr  Zr2  1  0.50798199  0.14722100  0.66582897  1
  Zr  Zr3  1  0.02131099  0.31685801  0.34291298  1
  Zr  Zr4  1  0.49768297  0.51172201  0.99544095  1
  Zr  Zr5  1  0.48679097  0.78548302  0.36865697  1
  Nb  Nb6  1  0.71226998  0.34241001  0.83148696  1
  Nb  Nb7  1  0.26868397  0.78488402  0.83232695  1
  N  N8  1  0.76295497  0.50943801  0.47874997  1
  N  N9  1  0.74215296  0.79996502  0.89917295  1
  N  N10  1  0.75976495  0.98950002  0.51474696  1
  N  N11  1  0.25294796  0.99516602  0.49030196  1
  N  N12  1  0.24909799  0.23804001  0.04162999  1
  N  N13  1  0.26408398  0.48755901  0.52406997  1
  O  O14  1  0.73616098  0.26899501  0.15947699  1
  O  O15  1  0.28250797  0.65101902  0.17168398  1
