# generated using pymatgen
data_KInF3
_symmetry_space_group_name_H-M   'P 1'
_cell_length_a   4.70898056
_cell_length_b   4.70898056
_cell_length_c   4.70898056
_cell_angle_alpha   81.70017242
_cell_angle_beta   81.70017242
_cell_angle_gamma   81.70017242
_symmetry_Int_Tables_number   1
_chemical_formula_structural   KInF3
_chemical_formula_sum   'K1 In1 F3'
_cell_volume   101.42668047
_cell_formula_units_Z   1
loop_
 _symmetry_equiv_pos_site_id
 _symmetry_equiv_pos_as_xyz
  1  'x, y, z'
loop_
 _atom_site_type_symbol
 _atom_site_label
 _atom_site_symmetry_multiplicity
 _atom_site_fract_x
 _atom_site_fract_y
 _atom_site_fract_z
 _atom_site_occupancy
  K  K0  1  0.50000003  0.50000002  0.49999993  1
  In  In1  1  0.00000000  0.00000000  0.00000000  1
  F  F2  1  0.00000001  0.79342704  0.20657295  1
  F  F3  1  0.79342704  0.20657301  -0.00000005  1
  F  F4  1  0.20657301  0.00000000  0.79342695  1
