# generated using pymatgen
data_UOsBr10
_symmetry_space_group_name_H-M   'P 1'
_cell_length_a   6.91335392
_cell_length_b   7.54583645
_cell_length_c   10.26720428
_cell_angle_alpha   108.54982758
_cell_angle_beta   91.04257965
_cell_angle_gamma   116.20381165
_symmetry_Int_Tables_number   1
_chemical_formula_structural   UOsBr10
_chemical_formula_sum   'U1 Os1 Br10'
_cell_volume   447.60130754
_cell_formula_units_Z   1
loop_
 _symmetry_equiv_pos_site_id
 _symmetry_equiv_pos_as_xyz
  1  'x, y, z'
loop_
 _atom_site_type_symbol
 _atom_site_label
 _atom_site_symmetry_multiplicity
 _atom_site_fract_x
 _atom_site_fract_y
 _atom_site_fract_z
 _atom_site_occupancy
  U  U0  1  0.10385199  0.21180399  0.21128400  1
  Os  Os1  1  0.89614798  0.78819595  0.78871598  1
  Br  Br2  1  0.93782801  0.19224599  0.42042398  1
  Br  Br3  1  0.06217196  0.80775395  0.57957600  1
  Br  Br4  1  0.23018500  0.17100299  0.95754003  1
  Br  Br5  1  0.76981498  0.82899695  0.04245995  1
  Br  Br6  1  0.10279997  0.61820296  0.84769502  1
  Br  Br7  1  0.89720000  0.38179698  0.15230496  1
  Br  Br8  1  0.69935497  0.97671494  0.74776298  1
  Br  Br9  1  0.30064501  0.02328500  0.25223700  1
  Br  Br10  1  0.56813299  0.43970397  0.67350000  1
  Br  Br11  1  0.43186698  0.56029597  0.32649998  1
