# generated using pymatgen
data_Cs2H4Pt
_symmetry_space_group_name_H-M   'P 1'
_cell_length_a   6.27285910
_cell_length_b   6.27285910
_cell_length_c   8.97670555
_cell_angle_alpha   90.00000000
_cell_angle_beta   90.00000000
_cell_angle_gamma   90.00000000
_symmetry_Int_Tables_number   1
_chemical_formula_structural   Cs2H4Pt
_chemical_formula_sum   'Cs4 H8 Pt2'
_cell_volume   353.22224350
_cell_formula_units_Z   2
loop_
 _symmetry_equiv_pos_site_id
 _symmetry_equiv_pos_as_xyz
  1  'x, y, z'
loop_
 _atom_site_type_symbol
 _atom_site_label
 _atom_site_symmetry_multiplicity
 _atom_site_fract_x
 _atom_site_fract_y
 _atom_site_fract_z
 _atom_site_occupancy
  Cs  Cs0  1  0.50000099  0.00000000  0.25000001  1
  Cs  Cs1  1  0.00000000  0.50000099  0.25000001  1
  Cs  Cs2  1  0.50000099  0.00000000  0.75000004  1
  Cs  Cs3  1  0.00000000  0.50000099  0.75000004  1
  H  H4  1  0.18752500  0.18752500  -0.00000000  1
  H  H5  1  0.81247499  0.81247499  0.00000000  1
  H  H6  1  0.00000000  0.00000000  0.18536201  1
  H  H7  1  0.50000099  0.50000099  0.31463802  1
  H  H8  1  0.68752499  0.31247500  0.50000103  1
  H  H9  1  0.31247500  0.68752499  0.50000103  1
  H  H10  1  0.50000099  0.50000099  0.68536303  1
  H  H11  1  0.00000000  0.00000000  0.81463804  1
  Pt  Pt12  1  0.00000000  0.00000000  0.00000000  1
  Pt  Pt13  1  0.50000099  0.50000099  0.50000103  1
