# generated using pymatgen
data_KBiSe2
_symmetry_space_group_name_H-M   'P 1'
_cell_length_a   6.17535019
_cell_length_b   6.17535019
_cell_length_c   7.77709627
_cell_angle_alpha   113.39211273
_cell_angle_beta   113.39211273
_cell_angle_gamma   90.00000000
_symmetry_Int_Tables_number   1
_chemical_formula_structural   KBiSe2
_chemical_formula_sum   'K2 Bi2 Se4'
_cell_volume   245.41775086
_cell_formula_units_Z   2
loop_
 _symmetry_equiv_pos_site_id
 _symmetry_equiv_pos_as_xyz
  1  'x, y, z'
loop_
 _atom_site_type_symbol
 _atom_site_label
 _atom_site_symmetry_multiplicity
 _atom_site_fract_x
 _atom_site_fract_y
 _atom_site_fract_z
 _atom_site_occupancy
  K  K0  1  0.00000000  0.00000000  0.00000000  1
  K  K1  1  0.74999996  0.24999999  0.49999996  1
  Bi  Bi2  1  0.49999996  0.49999997  -0.00000004  1
  Bi  Bi3  1  0.24999996  0.74999996  0.49999995  1
  Se  Se4  1  0.72782594  0.72782596  0.45565194  1
  Se  Se5  1  0.47782594  0.97782595  0.95565193  1
  Se  Se6  1  0.27217398  0.27217399  0.54434797  1
  Se  Se7  1  0.02217398  0.52217397  0.04434798  1
