# generated using pymatgen
data_LuGaO3
_symmetry_space_group_name_H-M   'P 1'
_cell_length_a   5.26750422
_cell_length_b   5.59176016
_cell_length_c   7.62117386
_cell_angle_alpha   90.00000000
_cell_angle_beta   90.00000000
_cell_angle_gamma   90.00000000
_symmetry_Int_Tables_number   1
_chemical_formula_structural   LuGaO3
_chemical_formula_sum   'Lu4 Ga4 O12'
_cell_volume   224.47878153
_cell_formula_units_Z   4
loop_
 _symmetry_equiv_pos_site_id
 _symmetry_equiv_pos_as_xyz
  1  'x, y, z'
loop_
 _atom_site_type_symbol
 _atom_site_label
 _atom_site_symmetry_multiplicity
 _atom_site_fract_x
 _atom_site_fract_y
 _atom_site_fract_z
 _atom_site_occupancy
  Lu  Lu0  1  0.02084300  0.92990997  0.75000001  1
  Lu  Lu1  1  0.52084298  0.57008998  0.25000000  1
  Lu  Lu2  1  0.47915698  0.42990999  0.75000001  1
  Lu  Lu3  1  0.97915696  0.07009000  0.25000000  1
  Ga  Ga4  1  0.49999998  0.00000000  0.50000001  1
  Ga  Ga5  1  0.00000000  0.49999999  0.50000001  1
  Ga  Ga6  1  0.00000000  0.49999999  -0.00000000  1
  Ga  Ga7  1  0.49999998  0.00000000  -0.00000000  1
  O  O8  1  0.69047497  0.30458499  0.43948901  1
  O  O9  1  0.19047499  0.19541499  0.56051101  1
  O  O10  1  0.80952497  0.80458498  0.06051100  1
  O  O11  1  0.30952499  0.69541498  0.93948902  1
  O  O12  1  0.30952499  0.69541498  0.56051101  1
  O  O13  1  0.80952497  0.80458498  0.43948901  1
  O  O14  1  0.19047499  0.19541499  0.93948902  1
  O  O15  1  0.69047497  0.30458499  0.06051100  1
  O  O16  1  0.11866100  0.45531199  0.25000000  1
  O  O17  1  0.61866097  0.04468800  0.75000001  1
  O  O18  1  0.38133898  0.95531197  0.25000000  1
  O  O19  1  0.88133896  0.54468798  0.75000001  1
