# generated using pymatgen
data_PrHO2
_symmetry_space_group_name_H-M   'P 1'
_cell_length_a   3.94023204
_cell_length_b   4.49418116
_cell_length_c   6.44094133
_cell_angle_alpha   107.67817688
_cell_angle_beta   90.00000000
_cell_angle_gamma   90.00000000
_symmetry_Int_Tables_number   1
_chemical_formula_structural   PrHO2
_chemical_formula_sum   'Pr2 H2 O4'
_cell_volume   108.67085353
_cell_formula_units_Z   2
loop_
 _symmetry_equiv_pos_site_id
 _symmetry_equiv_pos_as_xyz
  1  'x, y, z'
loop_
 _atom_site_type_symbol
 _atom_site_label
 _atom_site_symmetry_multiplicity
 _atom_site_fract_x
 _atom_site_fract_y
 _atom_site_fract_z
 _atom_site_occupancy
  Pr  Pr0  1  0.74999999  0.66861997  0.30737498  1
  Pr  Pr1  1  0.25000000  0.33137999  0.69262498  1
  H  H2  1  0.25000000  0.97735396  0.07953798  1
  H  H3  1  0.74999999  0.02264600  0.92046199  1
  O  O4  1  0.25000000  0.76179897  0.54282298  1
  O  O5  1  0.74999999  0.23820099  0.45717699  1
  O  O6  1  0.25000000  0.75403897  0.06295798  1
  O  O7  1  0.74999999  0.24596099  0.93704198  1
