# generated using pymatgen
data_V2OF5
_symmetry_space_group_name_H-M   'P 1'
_cell_length_a   5.22989988
_cell_length_b   5.26447344
_cell_length_c   5.41293955
_cell_angle_alpha   90.95638275
_cell_angle_beta   118.40933990
_cell_angle_gamma   119.24441528
_symmetry_Int_Tables_number   1
_chemical_formula_structural   V2OF5
_chemical_formula_sum   'V2 O1 F5'
_cell_volume   108.18375013
_cell_formula_units_Z   1
loop_
 _symmetry_equiv_pos_site_id
 _symmetry_equiv_pos_as_xyz
  1  'x, y, z'
loop_
 _atom_site_type_symbol
 _atom_site_label
 _atom_site_symmetry_multiplicity
 _atom_site_fract_x
 _atom_site_fract_y
 _atom_site_fract_z
 _atom_site_occupancy
  V  V0  1  0.69187203  0.33125600  0.00593105  1
  V  V1  1  0.68505001  0.84528600  0.52774008  1
  O  O2  1  0.75211303  0.17526400  0.78137407  1
  F  F3  1  0.60081402  0.50444400  0.26670406  1
  F  F4  1  0.18493199  0.99789300  0.79447406  1
  F  F5  1  0.79299804  0.10836400  0.28908306  1
  F  F6  1  0.18047499  0.69033500  0.26819704  1
  F  F7  1  0.57766702  0.58540200  0.77126307  1
