# generated using pymatgen
data_MgSc3(CdSe4)2
_symmetry_space_group_name_H-M   'P 1'
_cell_length_a   7.86490822
_cell_length_b   7.86490822
_cell_length_c   7.86490822
_cell_angle_alpha   60.00000000
_cell_angle_beta   60.00000000
_cell_angle_gamma   60.00000000
_symmetry_Int_Tables_number   1
_chemical_formula_structural   MgSc3(CdSe4)2
_chemical_formula_sum   'Mg1 Sc3 Cd2 Se8'
_cell_volume   344.00596941
_cell_formula_units_Z   1
loop_
 _symmetry_equiv_pos_site_id
 _symmetry_equiv_pos_as_xyz
  1  'x, y, z'
loop_
 _atom_site_type_symbol
 _atom_site_label
 _atom_site_symmetry_multiplicity
 _atom_site_fract_x
 _atom_site_fract_y
 _atom_site_fract_z
 _atom_site_occupancy
  Sc  Sc0  1  0.87500001  0.37500000  0.87500001  1
  Mg  Mg1  1  0.87500001  0.87500001  0.87500001  1
  Sc  Sc2  1  0.87500001  0.87500001  0.37500000  1
  Sc  Sc3  1  0.37500000  0.87500001  0.87500001  1
  Cd  Cd4  1  0.25000000  0.25000000  0.25000000  1
  Cd  Cd5  1  0.50000001  0.50000001  0.50000001  1
  Se  Se6  1  0.11628400  0.11628500  0.11628500  1
  Se  Se7  1  0.63371601  0.09885400  0.63371501  1
  Se  Se8  1  0.09885500  0.63371501  0.63371501  1
  Se  Se9  1  0.63371601  0.63371501  0.09885400  1
  Se  Se10  1  0.65114501  0.11628500  0.11628500  1
  Se  Se11  1  0.11628400  0.11628500  0.65114601  1
  Se  Se12  1  0.63371601  0.63371501  0.63371501  1
  Se  Se13  1  0.11628400  0.65114601  0.11628500  1
