# generated using pymatgen
data_SrAs3HSeO10F3
_symmetry_space_group_name_H-M   'P 1'
_cell_length_a   5.03278685
_cell_length_b   6.68005800
_cell_length_c   7.84268761
_cell_angle_alpha   86.13193512
_cell_angle_beta   79.76811218
_cell_angle_gamma   78.66980743
_symmetry_Int_Tables_number   1
_chemical_formula_structural   SrAs3HSeO10F3
_chemical_formula_sum   'Sr1 As3 H1 Se1 O10 F3'
_cell_volume   254.27094030
_cell_formula_units_Z   1
loop_
 _symmetry_equiv_pos_site_id
 _symmetry_equiv_pos_as_xyz
  1  'x, y, z'
loop_
 _atom_site_type_symbol
 _atom_site_label
 _atom_site_symmetry_multiplicity
 _atom_site_fract_x
 _atom_site_fract_y
 _atom_site_fract_z
 _atom_site_occupancy
  Sr  Sr0  1  0.00000000  0.00000000  0.00000000  1
  As  As1  1  0.63090697  0.72553398  0.72475804  1
  As  As2  1  0.36909299  0.27446599  0.27524202  1
  As  As3  1  0.04749297  0.38726599  0.81732002  1
  Se  Se4  1  0.95250698  0.61273399  0.18268004  1
  H  H5  1  0.55994098  0.48560299  0.69707603  1
  O  O6  1  0.44005898  0.51439699  0.30292403  1
  O  O7  1  0.34852995  0.85887498  0.63786605  1
  O  O8  1  0.65147001  0.14112500  0.36213401  1
  O  O9  1  0.85840897  0.72563498  0.53181004  1
  F  F10  1  0.14159098  0.27436499  0.46819002  1
  O  O11  1  0.41124896  0.73509198  0.93800704  1
  O  O12  1  0.58875100  0.26490799  0.06199302  1
  O  O13  1  0.71547395  0.96077198  0.78150805  1
  O  O14  1  0.28452601  0.03922800  0.21849200  1
  F  F15  1  0.91209698  0.59756599  0.83774704  1
  F  F16  1  0.08790297  0.40243399  0.16225302  1
  O  O17  1  0.14904599  0.24251999  0.81216101  1
  O  O18  1  0.85095397  0.75747998  0.18783904  1
