# generated using pymatgen
data_SrCu2GeSe4
_symmetry_space_group_name_H-M   'P 1'
_cell_length_a   6.35397530
_cell_length_b   6.35397530
_cell_length_c   10.89029694
_cell_angle_alpha   90.00000000
_cell_angle_beta   90.00000000
_cell_angle_gamma   117.21154022
_symmetry_Int_Tables_number   1
_chemical_formula_structural   SrCu2GeSe4
_chemical_formula_sum   'Sr2 Cu4 Ge2 Se8'
_cell_volume   391.01275021
_cell_formula_units_Z   2
loop_
 _symmetry_equiv_pos_site_id
 _symmetry_equiv_pos_as_xyz
  1  'x, y, z'
loop_
 _atom_site_type_symbol
 _atom_site_label
 _atom_site_symmetry_multiplicity
 _atom_site_fract_x
 _atom_site_fract_y
 _atom_site_fract_z
 _atom_site_occupancy
  Sr  Sr0  1  0.01256800  0.01256800  0.50000000  1
  Sr  Sr1  1  0.01256800  0.01256800  -0.00000000  1
  Cu  Cu2  1  0.19129098  0.63153298  0.37017800  1
  Cu  Cu3  1  0.63153298  0.19129099  0.62982200  1
  Cu  Cu4  1  0.63153298  0.19129099  0.87017801  1
  Cu  Cu5  1  0.19129098  0.63153298  0.12982200  1
  Ge  Ge6  1  0.55857998  0.26364099  0.25000000  1
  Ge  Ge7  1  0.26364098  0.55857998  0.75000000  1
  Se  Se8  1  0.19725499  0.30240699  0.25000000  1
  Se  Se9  1  0.30240699  0.19725499  0.75000000  1
  Se  Se10  1  0.52070099  0.01073600  0.42416700  1
  Se  Se11  1  0.01073598  0.52070098  0.57583300  1
  Se  Se12  1  0.52070099  0.01073600  0.07583300  1
  Se  Se13  1  0.01073598  0.52070098  0.92416701  1
  Se  Se14  1  0.66427396  0.87358897  0.75000000  1
  Se  Se15  1  0.87358896  0.66427398  0.25000000  1
