# generated using pymatgen
data_Lu3Bi5O12
_symmetry_space_group_name_H-M   'P 1'
_cell_length_a   5.61601782
_cell_length_b   5.88403797
_cell_length_c   8.26636505
_cell_angle_alpha   90.00000000
_cell_angle_beta   90.00000000
_cell_angle_gamma   90.00000000
_symmetry_Int_Tables_number   1
_chemical_formula_structural   Lu3Bi5O12
_chemical_formula_sum   'Lu3 Bi5 O12'
_cell_volume   273.16089312
_cell_formula_units_Z   1
loop_
 _symmetry_equiv_pos_site_id
 _symmetry_equiv_pos_as_xyz
  1  'x, y, z'
loop_
 _atom_site_type_symbol
 _atom_site_label
 _atom_site_symmetry_multiplicity
 _atom_site_fract_x
 _atom_site_fract_y
 _atom_site_fract_z
 _atom_site_occupancy
  Bi  Bi0  1  0.01709600  0.94510000  0.75000000  1
  Lu  Lu1  1  0.48290402  0.44510000  0.75000000  1
  Lu  Lu2  1  0.51709602  0.55490000  0.25000000  1
  Lu  Lu3  1  0.98290403  0.05490000  0.25000000  1
  Bi  Bi4  1  0.00000000  0.50000000  -0.00000000  1
  Bi  Bi5  1  0.00000000  0.50000000  0.50000000  1
  Bi  Bi6  1  0.50000002  0.00000000  -0.00000000  1
  Bi  Bi7  1  0.50000002  0.00000000  0.50000000  1
  O  O8  1  0.14033900  0.43150400  0.25000000  1
  O  O9  1  0.18486801  0.18780900  0.57362800  1
  O  O10  1  0.18486801  0.18780900  0.92637199  1
  O  O11  1  0.31513201  0.68780900  0.92637199  1
  O  O12  1  0.31513201  0.68780900  0.57362800  1
  O  O13  1  0.35966101  0.93150400  0.25000000  1
  O  O14  1  0.64033902  0.06849600  0.75000000  1
  O  O15  1  0.68486802  0.31219100  0.07362800  1
  O  O16  1  0.68486802  0.31219100  0.42637200  1
  O  O17  1  0.81513203  0.81219100  0.07362800  1
  O  O18  1  0.81513203  0.81219100  0.42637200  1
  O  O19  1  0.85966103  0.56849600  0.75000000  1
