# generated using pymatgen
data_KCl
_symmetry_space_group_name_H-M   'P 1'
_cell_length_a   4.67357063
_cell_length_b   4.67357063
_cell_length_c   8.15288734
_cell_angle_alpha   73.34425354
_cell_angle_beta   73.34425354
_cell_angle_gamma   59.99998856
_symmetry_Int_Tables_number   1
_chemical_formula_structural   KCl
_chemical_formula_sum   'K2 Cl2'
_cell_volume   145.52849174
_cell_formula_units_Z   2
loop_
 _symmetry_equiv_pos_site_id
 _symmetry_equiv_pos_as_xyz
  1  'x, y, z'
loop_
 _atom_site_type_symbol
 _atom_site_label
 _atom_site_symmetry_multiplicity
 _atom_site_fract_x
 _atom_site_fract_y
 _atom_site_fract_z
 _atom_site_occupancy
  K  K0  1  0.75963798  0.75963802  0.72108605  1
  K  K1  1  0.24036199  0.24036201  0.27891402  1
  Cl  Cl2  1  0.49999999  0.50000001  0.50000003  1
  Cl  Cl3  1  0.00000000  0.00000000  0.00000000  1
