# generated using pymatgen
data_NaCeV2O8
_symmetry_space_group_name_H-M   'P 1'
_cell_length_a   5.16162205
_cell_length_b   5.16162205
_cell_length_c   6.83494234
_cell_angle_alpha   112.18452454
_cell_angle_beta   112.18452454
_cell_angle_gamma   90.00000000
_symmetry_Int_Tables_number   1
_chemical_formula_structural   NaCeV2O8
_chemical_formula_sum   'Na1 Ce1 V2 O8'
_cell_volume   153.96247313
_cell_formula_units_Z   1
loop_
 _symmetry_equiv_pos_site_id
 _symmetry_equiv_pos_as_xyz
  1  'x, y, z'
loop_
 _atom_site_type_symbol
 _atom_site_label
 _atom_site_symmetry_multiplicity
 _atom_site_fract_x
 _atom_site_fract_y
 _atom_site_fract_z
 _atom_site_occupancy
  Na  Na0  1  0.24999996  0.74999997  0.49999997  1
  Ce  Ce1  1  0.49999997  0.49999998  0.99999999  1
  V  V2  1  0.74999997  0.24999999  0.49999998  1
  V  V3  1  0.00000000  0.00000000  0.00000000  1
  O  O4  1  0.08134099  0.18728299  0.66015801  1
  O  O5  1  0.57881596  0.47287398  0.66015598  1
  O  O6  1  0.93728194  0.82881597  0.16015693  1
  O  O7  1  0.22287498  0.33134099  0.16015698  1
  O  O8  1  0.66865898  0.06271700  0.83984200  1
  O  O9  1  0.17118396  0.77712597  0.83984398  1
  O  O10  1  0.81271796  0.42118399  0.33984296  1
  O  O11  1  0.52712495  0.91865897  0.33984295  1
