# generated using pymatgen
data_Cs3As2Cl9
_symmetry_space_group_name_H-M   'P 1'
_cell_length_a   7.56753397
_cell_length_b   7.56753349
_cell_length_c   9.13853264
_cell_angle_alpha   90.00000000
_cell_angle_beta   90.00000000
_cell_angle_gamma   120.00000000
_symmetry_Int_Tables_number   1
_chemical_formula_structural   Cs3As2Cl9
_chemical_formula_sum   'Cs3 As2 Cl9'
_cell_volume   453.22705821
_cell_formula_units_Z   1
loop_
 _symmetry_equiv_pos_site_id
 _symmetry_equiv_pos_as_xyz
  1  'x, y, z'
loop_
 _atom_site_type_symbol
 _atom_site_label
 _atom_site_symmetry_multiplicity
 _atom_site_fract_x
 _atom_site_fract_y
 _atom_site_fract_z
 _atom_site_occupancy
  Cs  Cs0  1  0.00000000  0.00000000  0.00000000  1
  Cs  Cs1  1  0.33333330  0.66666664  0.32000201  1
  Cs  Cs2  1  0.66666665  0.33333332  0.67999803  1
  As  As3  1  0.33333330  0.66666664  0.81711903  1
  As  As4  1  0.66666665  0.33333332  0.18288101  1
  Cl  Cl5  1  0.51574797  0.51574798  1.00000004  1
  Cl  Cl6  1  0.48425195  0.99999996  1.00000004  1
  Cl  Cl7  1  0.99999998  0.48425198  -0.00000000  1
  Cl  Cl8  1  0.82679197  0.63203298  0.32421501  1
  Cl  Cl9  1  0.36796699  0.19475899  0.32421501  1
  Cl  Cl10  1  0.80524099  0.17320799  0.32421501  1
  Cl  Cl11  1  0.17320796  0.80524097  0.67578503  1
  Cl  Cl12  1  0.19475898  0.36796699  0.67578503  1
  Cl  Cl13  1  0.63203296  0.82679197  0.67578503  1
