# generated using pymatgen
data_Al3Re(ClO)8
_symmetry_space_group_name_H-M   'P 1'
_cell_length_a   5.79552269
_cell_length_b   5.79552269
_cell_length_c   10.14259148
_cell_angle_alpha   73.79084778
_cell_angle_beta   73.79084778
_cell_angle_gamma   61.12308121
_symmetry_Int_Tables_number   1
_chemical_formula_structural   Al3Re(ClO)8
_chemical_formula_sum   'Al3 Re1 Cl8 O8'
_cell_volume   282.20100623
_cell_formula_units_Z   1
loop_
 _symmetry_equiv_pos_site_id
 _symmetry_equiv_pos_as_xyz
  1  'x, y, z'
loop_
 _atom_site_type_symbol
 _atom_site_label
 _atom_site_symmetry_multiplicity
 _atom_site_fract_x
 _atom_site_fract_y
 _atom_site_fract_z
 _atom_site_occupancy
  Al  Al0  1  0.49999999  0.00000000  0.00000000  1
  Al  Al1  1  0.25045296  0.74954700  0.74999999  1
  Re  Re2  1  -0.00000002  0.50000000  0.49999999  1
  Al  Al3  1  0.74954698  0.25045300  0.25000000  1
  Cl  Cl4  1  0.68654099  0.04648800  0.63334499  1
  Cl  Cl5  1  0.04648797  0.68654100  0.13334500  1
  Cl  Cl6  1  0.31345895  0.95351201  0.36665500  1
  Cl  Cl7  1  0.95351197  0.31345900  0.86665499  1
  Cl  Cl8  1  0.82477195  0.88290000  0.83647099  1
  Cl  Cl9  1  0.26859696  0.89327200  0.91870799  1
  Cl  Cl10  1  0.37161898  0.31254000  0.36395300  1
  O  O11  1  0.11709999  0.17522800  0.66352898  1
  Cl  Cl12  1  0.68745996  0.62838100  0.13604701  1
  O  O13  1  0.62838096  0.68746000  0.63604699  1
  O  O14  1  0.89327198  0.26859700  0.41870800  1
  O  O15  1  0.10672797  0.73140300  0.58129199  1
  O  O16  1  0.17522799  0.11710000  0.16352900  1
  O  O17  1  0.31253998  0.37161900  0.86395298  1
  O  O18  1  0.73140299  0.10672800  0.08129200  1
  O  O19  1  0.88289995  0.82477200  0.33647101  1
