# generated using pymatgen
data_V4CoCuO12
_symmetry_space_group_name_H-M   'P 1'
_cell_length_a   6.00305653
_cell_length_b   6.58614302
_cell_length_c   6.58614302
_cell_angle_alpha   95.83296967
_cell_angle_beta   103.41845703
_cell_angle_gamma   76.58155060
_symmetry_Int_Tables_number   1
_chemical_formula_structural   V4CoCuO12
_chemical_formula_sum   'V4 Co1 Cu1 O12'
_cell_volume   246.05899635
_cell_formula_units_Z   1
loop_
 _symmetry_equiv_pos_site_id
 _symmetry_equiv_pos_as_xyz
  1  'x, y, z'
loop_
 _atom_site_type_symbol
 _atom_site_label
 _atom_site_symmetry_multiplicity
 _atom_site_fract_x
 _atom_site_fract_y
 _atom_site_fract_z
 _atom_site_occupancy
  V  V0  1  0.24294199  0.38543699  0.79465399  1
  V  V1  1  0.73208899  0.21318899  0.60952796  1
  V  V2  1  0.25705797  0.79465397  0.38543696  1
  V  V3  1  0.76791098  0.60952798  0.21318894  1
  Co  Co4  1  0.74999999  0.08116700  0.08116696  1
  Cu  Cu5  1  0.24999997  0.91558697  0.91558697  1
  O  O6  1  0.35805799  0.18484799  0.96549199  1
  O  O7  1  0.23361898  0.62363098  0.92086898  1
  O  O8  1  0.81719000  0.03540600  0.79775697  1
  O  O9  1  0.44283299  0.36166999  0.62575798  1
  O  O10  1  0.26638097  0.92086897  0.62363096  1
  O  O11  1  0.95306298  0.36794199  0.65644995  1
  O  O12  1  0.05716698  0.62575798  0.36166998  1
  O  O13  1  0.71988399  0.09011300  0.37050196  1
  O  O14  1  0.54693697  0.65644998  0.36794195  1
  O  O15  1  0.14194197  0.96549197  0.18484796  1
  O  O16  1  0.78011598  0.37050199  0.09011294  1
  O  O17  1  0.68280997  0.79775697  0.03540593  1
