# generated using pymatgen
data_K2S3
_symmetry_space_group_name_H-M   'P 1'
_cell_length_a   6.29597712
_cell_length_b   6.29597712
_cell_length_c   7.58762693
_cell_angle_alpha   90.00000000
_cell_angle_beta   90.00000000
_cell_angle_gamma   108.64217377
_symmetry_Int_Tables_number   1
_chemical_formula_structural   K2S3
_chemical_formula_sum   'K4 S6'
_cell_volume   284.98812753
_cell_formula_units_Z   2
loop_
 _symmetry_equiv_pos_site_id
 _symmetry_equiv_pos_as_xyz
  1  'x, y, z'
loop_
 _atom_site_type_symbol
 _atom_site_label
 _atom_site_symmetry_multiplicity
 _atom_site_fract_x
 _atom_site_fract_y
 _atom_site_fract_z
 _atom_site_occupancy
  K  K0  1  0.58251898  0.41748099  0.84297901  1
  K  K1  1  0.41748098  0.58251898  0.34297900  1
  K  K2  1  0.10568098  0.89431897  0.11305600  1
  K  K3  1  0.89431897  0.10568100  0.61305601  1
  S  S4  1  0.07263799  0.38710899  0.99961601  1
  S  S5  1  0.92736196  0.61289098  0.49961600  1
  S  S6  1  0.61289096  0.92736197  0.99961601  1
  S  S7  1  0.38710899  0.07263800  0.49961600  1
  S  S8  1  0.19980998  0.80018997  0.65403401  1
  S  S9  1  0.80018997  0.19980999  0.15403400  1
