# generated using pymatgen
data_AlF3
_symmetry_space_group_name_H-M   'P 1'
_cell_length_a   5.11945391
_cell_length_b   5.11945391
_cell_length_c   6.34950876
_cell_angle_alpha   90.00000000
_cell_angle_beta   90.00000000
_cell_angle_gamma   120.00000000
_symmetry_Int_Tables_number   1
_chemical_formula_structural   AlF3
_chemical_formula_sum   'Al3 F9'
_cell_volume   144.11793574
_cell_formula_units_Z   3
loop_
 _symmetry_equiv_pos_site_id
 _symmetry_equiv_pos_as_xyz
  1  'x, y, z'
loop_
 _atom_site_type_symbol
 _atom_site_label
 _atom_site_symmetry_multiplicity
 _atom_site_fract_x
 _atom_site_fract_y
 _atom_site_fract_z
 _atom_site_occupancy
  Al  Al0  1  0.00000000  0.00000000  0.00000000  1
  Al  Al1  1  0.33333332  0.66666665  0.66650602  1
  Al  Al2  1  0.66666667  0.33333332  0.33349401  1
  F  F3  1  -0.00000001  0.47648299  0.50000002  1
  F  F4  1  0.52351700  0.52351698  0.50000002  1
  F  F5  1  0.47648298  0.99999997  0.50000002  1
  F  F6  1  0.82520401  0.15868000  0.16665601  1
  F  F7  1  0.84132000  0.66652398  0.16665601  1
  F  F8  1  0.33347600  0.17479599  0.16665601  1
  F  F9  1  0.17479599  0.33347599  0.83334403  1
  F  F10  1  0.66652399  0.84131997  0.83334403  1
  F  F11  1  0.15867998  0.82520397  0.83334403  1
