# generated using pymatgen
data_KLaSiS4
_symmetry_space_group_name_H-M   'P 1'
_cell_length_a   6.57774401
_cell_length_b   6.60657310
_cell_length_c   8.83689213
_cell_angle_alpha   90.00000000
_cell_angle_beta   73.03354645
_cell_angle_gamma   90.00000000
_symmetry_Int_Tables_number   1
_chemical_formula_structural   KLaSiS4
_chemical_formula_sum   'K2 La2 Si2 S8'
_cell_volume   367.30491598
_cell_formula_units_Z   2
loop_
 _symmetry_equiv_pos_site_id
 _symmetry_equiv_pos_as_xyz
  1  'x, y, z'
loop_
 _atom_site_type_symbol
 _atom_site_label
 _atom_site_symmetry_multiplicity
 _atom_site_fract_x
 _atom_site_fract_y
 _atom_site_fract_z
 _atom_site_occupancy
  K  K0  1  0.72617699  0.25000000  0.06607901  1
  K  K1  1  0.27382300  0.74999999  0.93392098  1
  La  La2  1  0.76789699  0.25000000  0.55108700  1
  La  La3  1  0.23210300  0.74999999  0.44891299  1
  Si  Si4  1  0.21636500  0.25000000  0.68155999  1
  Si  Si5  1  0.78363499  0.74999999  0.31844001  1
  S  S6  1  0.99620199  0.49857799  0.27911801  1
  S  S7  1  0.00379800  0.99857798  0.72088198  1
  S  S8  1  0.00379800  0.50142199  0.72088198  1
  S  S9  1  0.99620199  0.00142200  0.27911801  1
  S  S10  1  0.41422600  0.25000000  0.83167099  1
  S  S11  1  0.58577400  0.74999999  0.16832901  1
  S  S12  1  0.39789100  0.25000000  0.43730400  1
  S  S13  1  0.60210900  0.74999999  0.56269600  1
