# generated using pymatgen
data_AlCuTe2
_symmetry_space_group_name_H-M   'P 1'
_cell_length_a   4.25868177
_cell_length_b   4.25868225
_cell_length_c   7.00732899
_cell_angle_alpha   90.00000000
_cell_angle_beta   90.00000000
_cell_angle_gamma   120.00000000
_symmetry_Int_Tables_number   1
_chemical_formula_structural   AlCuTe2
_chemical_formula_sum   'Al1 Cu1 Te2'
_cell_volume   110.06102830
_cell_formula_units_Z   1
loop_
 _symmetry_equiv_pos_site_id
 _symmetry_equiv_pos_as_xyz
  1  'x, y, z'
loop_
 _atom_site_type_symbol
 _atom_site_label
 _atom_site_symmetry_multiplicity
 _atom_site_fract_x
 _atom_site_fract_y
 _atom_site_fract_z
 _atom_site_occupancy
  Al  Al0  1  0.66666671  0.33333333  0.62552800  1
  Cu  Cu1  1  0.33333337  0.66666666  0.12552800  1
  Te  Te2  1  0.66666671  0.33333333  0.99947200  1
  Te  Te3  1  0.33333337  0.66666666  0.49947200  1
