# generated using pymatgen
data_K3ZnCd3Ge(S2F3)2
_symmetry_space_group_name_H-M   'P 1'
_cell_length_a   3.82092595
_cell_length_b   8.25062275
_cell_length_c   10.27452564
_cell_angle_alpha   107.57316589
_cell_angle_beta   90.00000000
_cell_angle_gamma   103.38856506
_symmetry_Int_Tables_number   1
_chemical_formula_structural   K3ZnCd3Ge(S2F3)2
_chemical_formula_sum   'K3 Zn1 Cd3 Ge1 S4 F6'
_cell_volume   299.54174118
_cell_formula_units_Z   1
loop_
 _symmetry_equiv_pos_site_id
 _symmetry_equiv_pos_as_xyz
  1  'x, y, z'
loop_
 _atom_site_type_symbol
 _atom_site_label
 _atom_site_symmetry_multiplicity
 _atom_site_fract_x
 _atom_site_fract_y
 _atom_site_fract_z
 _atom_site_occupancy
  K  K0  1  0.83192395  0.66384799  0.15833403  1
  K  K1  1  0.16807597  0.33615200  0.84166601  1
  Ge  Ge2  1  0.68728097  0.37456200  0.34305501  1
  K  K3  1  0.31271895  0.62543799  0.65694502  1
  Cd  Cd4  1  0.51691200  0.03382400  0.88257199  1
  Zn  Zn5  1  0.48308792  0.96617599  0.11742804  1
  Cd  Cd6  1  0.09092698  0.18185400  0.50783500  1
  Cd  Cd7  1  0.08756399  0.17512800  0.08788701  1
  S  S8  1  0.91243594  0.82487199  0.91211303  1
  S  S9  1  0.47444992  0.94889999  0.36667304  1
  S  S10  1  0.52555000  0.05110000  0.63332700  1
  S  S11  1  0.90907294  0.81814599  0.49216503  1
  F  F12  1  0.65012498  0.30025000  0.04575801  1
  F  F13  1  0.02802700  0.05605400  0.27180100  1
  F  F14  1  0.97197293  0.94394599  0.72819903  1
  F  F15  1  0.66475198  0.32950400  0.61394701  1
  F  F16  1  0.33524794  0.67049599  0.38605302  1
  F  F17  1  0.34987494  0.69974999  0.95424202  1
