# generated using pymatgen
data_Ga2CuTe3Se
_symmetry_space_group_name_H-M   'P 1'
_cell_length_a   4.18820477
_cell_length_b   7.31607866
_cell_length_c   7.41376781
_cell_angle_alpha   99.64083099
_cell_angle_beta   106.40715790
_cell_angle_gamma   90.00000000
_symmetry_Int_Tables_number   1
_chemical_formula_structural   Ga2CuTe3Se
_chemical_formula_sum   'Ga2 Cu1 Te3 Se1'
_cell_volume   214.56990435
_cell_formula_units_Z   1
loop_
 _symmetry_equiv_pos_site_id
 _symmetry_equiv_pos_as_xyz
  1  'x, y, z'
loop_
 _atom_site_type_symbol
 _atom_site_label
 _atom_site_symmetry_multiplicity
 _atom_site_fract_x
 _atom_site_fract_y
 _atom_site_fract_z
 _atom_site_occupancy
  Ga  Ga0  1  0.56747000  0.18784500  0.13494000  1
  Ga  Ga1  1  0.81012900  0.93700199  0.62025799  1
  Cu  Cu2  1  0.30648900  0.43765900  0.61297800  1
  Te  Te3  1  0.00281399  0.98020599  0.00562697  1
  Se  Se4  1  0.24938300  0.73363699  0.49876499  1
  Te  Te5  1  0.75594100  0.27095700  0.51188201  1
  Te  Te6  1  0.49527500  0.51519399  0.99055001  1
