# generated using pymatgen
data_LiGa5S8
_symmetry_space_group_name_H-M   'P 1'
_cell_length_a   7.23152447
_cell_length_b   7.23152447
_cell_length_c   7.23152447
_cell_angle_alpha   60.00000000
_cell_angle_beta   60.00000000
_cell_angle_gamma   60.00000000
_symmetry_Int_Tables_number   1
_chemical_formula_structural   LiGa5S8
_chemical_formula_sum   'Li1 Ga5 S8'
_cell_volume   267.40811464
_cell_formula_units_Z   1
loop_
 _symmetry_equiv_pos_site_id
 _symmetry_equiv_pos_as_xyz
  1  'x, y, z'
loop_
 _atom_site_type_symbol
 _atom_site_label
 _atom_site_symmetry_multiplicity
 _atom_site_fract_x
 _atom_site_fract_y
 _atom_site_fract_z
 _atom_site_occupancy
  Li  Li0  1  0.00000000  0.00000000  0.00000000  1
  Ga  Ga1  1  0.11099900  0.62966700  0.62966700  1
  Ga  Ga2  1  0.62966600  0.11100000  0.62966700  1
  Ga  Ga3  1  0.62966600  0.62966700  0.62966700  1
  Ga  Ga4  1  0.62966600  0.62966700  0.11100000  1
  Ga  Ga5  1  0.25000000  0.25000000  0.25000000  1
  S  S6  1  0.41252400  0.86249200  0.86249200  1
  S  S7  1  0.86249200  0.41252400  0.86249200  1
  S  S8  1  0.86249200  0.86249200  0.86249200  1
  S  S9  1  0.86249200  0.86249200  0.41252400  1
  S  S10  1  0.82883300  0.39038900  0.39038900  1
  S  S11  1  0.39039000  0.82883200  0.39038900  1
  S  S12  1  0.39039000  0.39038900  0.39038900  1
  S  S13  1  0.39039000  0.39038900  0.82883200  1
