# generated using pymatgen
data_LaGdSeS3
_symmetry_space_group_name_H-M   'P 1'
_cell_length_a   4.05264997
_cell_length_b   4.05264997
_cell_length_c   7.02270079
_cell_angle_alpha   90.00000000
_cell_angle_beta   90.00000000
_cell_angle_gamma   90.00000000
_symmetry_Int_Tables_number   1
_chemical_formula_structural   LaGdSeS3
_chemical_formula_sum   'La1 Gd1 Se1 S3'
_cell_volume   115.34063981
_cell_formula_units_Z   1
loop_
 _symmetry_equiv_pos_site_id
 _symmetry_equiv_pos_as_xyz
  1  'x, y, z'
loop_
 _atom_site_type_symbol
 _atom_site_label
 _atom_site_symmetry_multiplicity
 _atom_site_fract_x
 _atom_site_fract_y
 _atom_site_fract_z
 _atom_site_occupancy
  La  La0  1  0.00000000  0.50000000  0.76824102  1
  Gd  Gd1  1  0.50000000  0.00000000  0.23175901  1
  Se  Se2  1  0.50000000  0.00000000  0.64911802  1
  S  S3  1  0.00000000  0.50000000  0.35088201  1
  S  S4  1  0.50000000  0.50000000  0.00000000  1
  S  S5  1  0.00000000  0.00000000  0.00000000  1
