# generated using pymatgen
data_Na2MnF6
_symmetry_space_group_name_H-M   'P 1'
_cell_length_a   3.97627997
_cell_length_b   5.59790611
_cell_length_c   6.70511198
_cell_angle_alpha   114.67279816
_cell_angle_beta   107.24816895
_cell_angle_gamma   90.00000000
_symmetry_Int_Tables_number   1
_chemical_formula_structural   Na2MnF6
_chemical_formula_sum   'Na2 Mn1 F6'
_cell_volume   128.19950636
_cell_formula_units_Z   1
loop_
 _symmetry_equiv_pos_site_id
 _symmetry_equiv_pos_as_xyz
  1  'x, y, z'
loop_
 _atom_site_type_symbol
 _atom_site_label
 _atom_site_symmetry_multiplicity
 _atom_site_fract_x
 _atom_site_fract_y
 _atom_site_fract_z
 _atom_site_occupancy
  Na  Na0  1  0.33638500  0.33638500  0.67277002  1
  Na  Na1  1  0.66361500  0.66361500  0.32723002  1
  Mn  Mn2  1  0.00000000  0.00000000  0.00000000  1
  F  F3  1  0.85093500  0.08370800  0.70186901  1
  F  F4  1  0.50000000  0.22160000  0.00000000  1
  F  F5  1  0.85093400  0.61816100  0.70186803  1
  F  F6  1  0.14906600  0.38183900  0.29813202  1
  F  F7  1  0.50000000  0.77840000  0.00000002  1
  F  F8  1  0.14906500  0.91629200  0.29813103  1
