# generated using pymatgen
data_GaS3
_symmetry_space_group_name_H-M   'P 1'
_cell_length_a   6.14237213
_cell_length_b   6.14237213
_cell_length_c   6.51518869
_cell_angle_alpha   98.76391602
_cell_angle_beta   98.76391602
_cell_angle_gamma   119.97998810
_symmetry_Int_Tables_number   1
_chemical_formula_structural   GaS3
_chemical_formula_sum   'Ga2 S6'
_cell_volume   202.80020335
_cell_formula_units_Z   2
loop_
 _symmetry_equiv_pos_site_id
 _symmetry_equiv_pos_as_xyz
  1  'x, y, z'
loop_
 _atom_site_type_symbol
 _atom_site_label
 _atom_site_symmetry_multiplicity
 _atom_site_fract_x
 _atom_site_fract_y
 _atom_site_fract_z
 _atom_site_occupancy
  Ga  Ga0  1  0.83332201  0.16667800  -0.00000001  1
  Ga  Ga1  1  0.16667798  0.83332200  -0.00000002  1
  S  S2  1  0.56737698  0.92136900  0.20841898  1
  S  S3  1  0.07863099  0.43262300  0.79158101  1
  S  S4  1  0.78666499  0.78666500  0.79130899  1
  S  S5  1  0.21333500  0.21333500  0.20869100  1
  S  S6  1  0.92136900  0.56737700  0.20841898  1
  S  S7  1  0.43262300  0.07863100  0.79158101  1
