# generated using pymatgen
data_Nb3Mo3O11
_symmetry_space_group_name_H-M   'P 1'
_cell_length_a   4.90711403
_cell_length_b   5.17350817
_cell_length_c   8.45453262
_cell_angle_alpha   90.00000000
_cell_angle_beta   90.00000000
_cell_angle_gamma   91.02774811
_symmetry_Int_Tables_number   1
_chemical_formula_structural   Nb3Mo3O11
_chemical_formula_sum   'Nb3 Mo3 O11'
_cell_volume   214.60064399
_cell_formula_units_Z   1
loop_
 _symmetry_equiv_pos_site_id
 _symmetry_equiv_pos_as_xyz
  1  'x, y, z'
loop_
 _atom_site_type_symbol
 _atom_site_label
 _atom_site_symmetry_multiplicity
 _atom_site_fract_x
 _atom_site_fract_y
 _atom_site_fract_z
 _atom_site_occupancy
  Nb  Nb0  1  0.00000003  0.50000001  0.29367501  1
  Nb  Nb1  1  0.00000000  0.00000000  0.09147200  1
  Nb  Nb2  1  0.50000000  0.00000000  0.40601502  1
  Mo  Mo3  1  0.00000003  0.50000001  0.91890404  1
  Mo  Mo4  1  0.50000003  0.50000001  0.60464403  1
  Mo  Mo5  1  0.75481505  0.87627802  0.25411801  1
  O  O6  1  0.71140104  0.81883402  0.57571503  1
  O  O7  1  0.79930404  0.81683002  0.93627804  1
  O  O8  1  0.28403004  0.67548002  0.43364902  1
  O  O9  1  0.20186204  0.68694402  0.08649100  1
  O  O10  1  0.25039304  0.64185901  0.75793303  1
  O  O11  1  0.74960702  0.35814101  0.75793303  1
  O  O12  1  0.79813801  0.31305601  0.08649100  1
  O  O13  1  0.71597001  0.32452001  0.43364902  1
  O  O14  1  0.20069601  0.18317000  0.93627804  1
  O  O15  1  0.28859901  0.18116600  0.57571503  1
  O  O16  1  0.24518501  0.12372200  0.25411801  1
