# generated using pymatgen
data_In5AgTe8
_symmetry_space_group_name_H-M   'P 1'
_cell_length_a   7.76524496
_cell_length_b   7.76524496
_cell_length_c   9.17822933
_cell_angle_alpha   89.77218628
_cell_angle_beta   89.77218628
_cell_angle_gamma   107.80139160
_symmetry_Int_Tables_number   1
_chemical_formula_structural   In5AgTe8
_chemical_formula_sum   'In5 Ag1 Te8'
_cell_volume   526.92878275
_cell_formula_units_Z   1
loop_
 _symmetry_equiv_pos_site_id
 _symmetry_equiv_pos_as_xyz
  1  'x, y, z'
loop_
 _atom_site_type_symbol
 _atom_site_label
 _atom_site_symmetry_multiplicity
 _atom_site_fract_x
 _atom_site_fract_y
 _atom_site_fract_z
 _atom_site_occupancy
  In  In0  1  0.49054501  0.50945501  -0.00000001  1
  In  In1  1  0.01010301  0.98989702  0.49999998  1
  In  In2  1  0.49955801  0.50044201  0.49999998  1
  In  In3  1  0.48905702  0.98965202  0.75308397  1
  In  In4  1  0.01034801  0.51094301  0.24691599  1
  Ag  Ag5  1  0.99912702  0.00087300  0.99999997  1
  Te  Te6  1  0.11191501  0.38079801  0.98563597  1
  Te  Te7  1  0.61881902  0.88768102  0.48143297  1
  Te  Te8  1  0.61920202  0.88808502  0.01436398  1
  Te  Te9  1  0.11231901  0.38118101  0.51856698  1
  Te  Te10  1  0.15361201  0.88720002  0.24621098  1
  Te  Te11  1  0.65153102  0.37893501  0.75121997  1
  Te  Te12  1  0.11280001  0.84638802  0.75378897  1
  Te  Te13  1  0.62106501  0.34846901  0.24877998  1
