# generated using pymatgen
data_Ag2S
_symmetry_space_group_name_H-M   'P 1'
_cell_length_a   4.26464081
_cell_length_b   4.26464081
_cell_length_c   7.58942223
_cell_angle_alpha   90.00000000
_cell_angle_beta   90.00000000
_cell_angle_gamma   111.82897186
_symmetry_Int_Tables_number   1
_chemical_formula_structural   Ag2S
_chemical_formula_sum   'Ag4 S2'
_cell_volume   128.13300484
_cell_formula_units_Z   2
loop_
 _symmetry_equiv_pos_site_id
 _symmetry_equiv_pos_as_xyz
  1  'x, y, z'
loop_
 _atom_site_type_symbol
 _atom_site_label
 _atom_site_symmetry_multiplicity
 _atom_site_fract_x
 _atom_site_fract_y
 _atom_site_fract_z
 _atom_site_occupancy
  Ag  Ag0  1  0.50654300  0.49345698  0.30878399  1
  Ag  Ag1  1  0.49345701  0.50654298  0.80878398  1
  Ag  Ag2  1  0.89400496  0.10599500  0.06465100  1
  Ag  Ag3  1  0.10599505  0.89400497  0.56465098  1
  S  S4  1  0.71670998  0.28328999  0.56381798  1
  S  S5  1  0.28329003  0.71670998  0.06381800  1
