# generated using pymatgen
data_Zr2Nb2N5O3
_symmetry_space_group_name_H-M   'P 1'
_cell_length_a   5.32757711
_cell_length_b   5.35312986
_cell_length_c   5.50218916
_cell_angle_alpha   89.66331482
_cell_angle_beta   80.97962952
_cell_angle_gamma   89.41207886
_symmetry_Int_Tables_number   1
_chemical_formula_structural   Zr2Nb2N5O3
_chemical_formula_sum   'Zr2 Nb2 N5 O3'
_cell_volume   154.96783492
_cell_formula_units_Z   1
loop_
 _symmetry_equiv_pos_site_id
 _symmetry_equiv_pos_as_xyz
  1  'x, y, z'
loop_
 _atom_site_type_symbol
 _atom_site_label
 _atom_site_symmetry_multiplicity
 _atom_site_fract_x
 _atom_site_fract_y
 _atom_site_fract_z
 _atom_site_occupancy
  Zr  Zr0  1  0.73093794  0.53283399  0.70822503  1
  Zr  Zr1  1  0.27445099  0.03518300  0.79611200  1
  Nb  Nb2  1  0.27711596  0.45128200  0.28306703  1
  Nb  Nb3  1  0.72217591  0.95794999  0.21221206  1
  N  N4  1  0.53092497  0.24200400  0.98674101  1
  N  N5  1  0.44527093  0.76384699  0.52257405  1
  N  N6  1  0.44893193  0.74458999  0.03486805  1
  N  N7  1  0.54995797  0.23886200  0.46980701  1
  O  O8  1  0.93749192  0.83925199  0.85995105  1
  N  N9  1  0.08817597  0.32109200  0.63722702  1
  O  O10  1  0.05075198  0.19011400  0.14456501  1
  O  O11  1  0.94381393  0.68298799  0.34465004  1
