# generated using pymatgen
data_Li2SnF6
_symmetry_space_group_name_H-M   'P 1'
_cell_length_a   4.79603195
_cell_length_b   4.79603195
_cell_length_c   9.33733940
_cell_angle_alpha   90.00000000
_cell_angle_beta   90.00000000
_cell_angle_gamma   90.00000000
_symmetry_Int_Tables_number   1
_chemical_formula_structural   Li2SnF6
_chemical_formula_sum   'Li4 Sn2 F12'
_cell_volume   214.77675711
_cell_formula_units_Z   2
loop_
 _symmetry_equiv_pos_site_id
 _symmetry_equiv_pos_as_xyz
  1  'x, y, z'
loop_
 _atom_site_type_symbol
 _atom_site_label
 _atom_site_symmetry_multiplicity
 _atom_site_fract_x
 _atom_site_fract_y
 _atom_site_fract_z
 _atom_site_occupancy
  Li  Li0  1  0.00000000  0.00000000  0.33487899  1
  Li  Li1  1  0.00000000  0.00000000  0.66512097  1
  Li  Li2  1  0.50000001  0.50000001  0.16512099  1
  Li  Li3  1  0.50000001  0.50000001  0.83487896  1
  Sn  Sn4  1  0.50000001  0.50000001  0.49999998  1
  Sn  Sn5  1  0.00000000  0.00000000  0.00000000  1
  F  F6  1  0.70656401  0.70656401  -0.00000000  1
  F  F7  1  0.79343601  0.20656400  0.49999998  1
  F  F8  1  0.30077600  0.30077600  0.34009999  1
  F  F9  1  0.19922400  0.80077601  0.84009996  1
  F  F10  1  0.80077601  0.19922400  0.84009996  1
  F  F11  1  0.80077601  0.19922400  0.15989999  1
  F  F12  1  0.19922400  0.80077601  0.15989999  1
  F  F13  1  0.69922401  0.69922401  0.34009999  1
  F  F14  1  0.30077600  0.30077600  0.65989997  1
  F  F15  1  0.69922401  0.69922401  0.65989997  1
  F  F16  1  0.29343600  0.29343600  0.00000000  1
  F  F17  1  0.20656400  0.79343601  0.49999998  1
