# generated using pymatgen
data_La3Cu3Bi4
_symmetry_space_group_name_H-M   'P 1'
_cell_length_a   8.78591061
_cell_length_b   8.78591061
_cell_length_c   8.78591061
_cell_angle_alpha   109.47122192
_cell_angle_beta   109.47122192
_cell_angle_gamma   109.47122192
_symmetry_Int_Tables_number   1
_chemical_formula_structural   La3Cu3Bi4
_chemical_formula_sum   'La6 Cu6 Bi8'
_cell_volume   522.08164998
_cell_formula_units_Z   2
loop_
 _symmetry_equiv_pos_site_id
 _symmetry_equiv_pos_as_xyz
  1  'x, y, z'
loop_
 _atom_site_type_symbol
 _atom_site_label
 _atom_site_symmetry_multiplicity
 _atom_site_fract_x
 _atom_site_fract_y
 _atom_site_fract_z
 _atom_site_occupancy
  La  La0  1  0.87500004  0.12500001  0.75000005  1
  La  La1  1  0.62500005  0.37500003  0.25000004  1
  La  La2  1  0.12500002  0.25000002  0.37500003  1
  La  La3  1  0.37500006  0.75000005  0.12500005  1
  La  La4  1  0.75000007  0.62500004  0.87500008  1
  La  La5  1  0.25000006  0.87500006  0.62500007  1
  Cu  Cu6  1  0.37500005  0.62500004  0.75000007  1
  Cu  Cu7  1  0.12500006  0.87500006  0.25000006  1
  Cu  Cu8  1  0.62500004  0.25000002  0.87500005  1
  Cu  Cu9  1  0.87500008  0.75000005  0.62500008  1
  Cu  Cu10  1  0.75000004  0.12500001  0.37500004  1
  Cu  Cu11  1  0.25000003  0.37500003  0.12500003  1
  Bi  Bi12  1  0.00000003  0.50000003  0.65797205  1
  Bi  Bi13  1  0.34202803  0.34202802  0.84202805  1
  Bi  Bi14  1  0.50000003  0.15797201  0.50000004  1
  Bi  Bi15  1  0.15797207  1.00000007  1.00000009  1
  Bi  Bi16  1  0.84202808  0.84202806  0.34202808  1
  Bi  Bi17  1  0.00000003  0.50000003  0.15797203  1
  Bi  Bi18  1  0.50000006  0.65797205  0.50000006  1
  Bi  Bi19  1  0.65797209  1.00000007  1.00000010  1
