# generated using pymatgen
data_BaSr4H7
_symmetry_space_group_name_H-M   'P 1'
_cell_length_a   4.01516914
_cell_length_b   8.00669575
_cell_length_c   8.10080814
_cell_angle_alpha   89.89950562
_cell_angle_beta   90.00000000
_cell_angle_gamma   90.00000000
_symmetry_Int_Tables_number   1
_chemical_formula_structural   BaSr4H7
_chemical_formula_sum   'Ba1 Sr4 H7'
_cell_volume   260.42630524
_cell_formula_units_Z   1
loop_
 _symmetry_equiv_pos_site_id
 _symmetry_equiv_pos_as_xyz
  1  'x, y, z'
loop_
 _atom_site_type_symbol
 _atom_site_label
 _atom_site_symmetry_multiplicity
 _atom_site_fract_x
 _atom_site_fract_y
 _atom_site_fract_z
 _atom_site_occupancy
  Sr  Sr0  1  0.28555099  0.12909800  0.22460102  1
  Ba  Ba1  1  0.78555097  0.37090201  0.77539905  1
  Sr  Sr2  1  0.71444897  0.87090203  0.77539909  1
  Sr  Sr3  1  0.21444899  0.62909802  0.22460105  1
  H  H4  1  0.84089697  0.10886700  0.49749103  1
  Sr  Sr5  1  0.34089699  0.39113301  0.50250904  1
  H  H6  1  0.15910299  0.89113303  0.50250908  1
  H  H7  1  0.65910298  0.60886702  0.49749106  1
  H  H8  1  0.25994199  0.12517500  0.86749704  1
  H  H9  1  0.75994197  0.37482501  0.13250303  1
  H  H10  1  0.74005797  0.87482503  0.13250306  1
  H  H11  1  0.24005799  0.62517502  0.86749707  1
