# generated using pymatgen
data_Na3Li3SbO8
_symmetry_space_group_name_H-M   'P 1'
_cell_length_a   5.72316408
_cell_length_b   5.83628130
_cell_length_c   5.98314095
_cell_angle_alpha   117.42960358
_cell_angle_beta   90.00000000
_cell_angle_gamma   119.36090088
_symmetry_Int_Tables_number   1
_chemical_formula_structural   Na3Li3SbO8
_chemical_formula_sum   'Na3 Li3 Sb1 O8'
_cell_volume   147.85989150
_cell_formula_units_Z   1
loop_
 _symmetry_equiv_pos_site_id
 _symmetry_equiv_pos_as_xyz
  1  'x, y, z'
loop_
 _atom_site_type_symbol
 _atom_site_label
 _atom_site_symmetry_multiplicity
 _atom_site_fract_x
 _atom_site_fract_y
 _atom_site_fract_z
 _atom_site_occupancy
  Na  Na0  1  0.15706300  0.31412600  0.96909596  1
  Na  Na1  1  0.49999999  0.00000000  0.49999999  1
  Li  Li2  1  0.00000000  0.00000000  0.49999999  1
  Li  Li3  1  -0.00000000  0.50000001  0.49999997  1
  Sb  Sb4  1  0.84293698  0.68587401  0.03090398  1
  Li  Li5  1  0.49999999  0.50000001  0.49999997  1
  Na  Na6  1  0.49999999  0.00000000  0.00000000  1
  O  O7  1  0.74658499  0.00391100  0.76903998  1
  O  O8  1  0.27950999  0.55902001  0.32231197  1
  O  O9  1  0.22464499  0.44929001  0.72558496  1
  O  O10  1  0.25732600  0.00391100  0.76903998  1
  O  O11  1  0.74267398  0.99608901  0.23095996  1
  O  O12  1  0.77535499  0.55071001  0.27441497  1
  O  O13  1  0.72048999  0.44098001  0.67768797  1
  O  O14  1  0.25341499  0.99608901  0.23095996  1
