# generated using pymatgen
data_KGaBr3
_symmetry_space_group_name_H-M   'P 1'
_cell_length_a   4.11940002
_cell_length_b   9.21228313
_cell_length_c   15.31262970
_cell_angle_alpha   90.00000000
_cell_angle_beta   90.00000000
_cell_angle_gamma   90.00000000
_symmetry_Int_Tables_number   1
_chemical_formula_structural   KGaBr3
_chemical_formula_sum   'K4 Ga4 Br12'
_cell_volume   581.10019982
_cell_formula_units_Z   4
loop_
 _symmetry_equiv_pos_site_id
 _symmetry_equiv_pos_as_xyz
  1  'x, y, z'
loop_
 _atom_site_type_symbol
 _atom_site_label
 _atom_site_symmetry_multiplicity
 _atom_site_fract_x
 _atom_site_fract_y
 _atom_site_fract_z
 _atom_site_occupancy
  K  K0  1  0.75000000  0.56970999  0.17416200  1
  K  K1  1  0.25000000  0.43028999  0.82583802  1
  K  K2  1  0.75000000  0.06971000  0.32583801  1
  K  K3  1  0.25000000  0.93028999  0.67416201  1
  Ga  Ga4  1  0.75000000  0.83508399  0.94410502  1
  Ga  Ga5  1  0.25000000  0.16491600  0.05589500  1
  Ga  Ga6  1  0.75000000  0.33508400  0.55589501  1
  Ga  Ga7  1  0.25000000  0.66491599  0.44410501  1
  Br  Br8  1  0.75000000  0.97639399  0.09759600  1
  Br  Br9  1  0.75000000  0.32628000  0.99623202  1
  Br  Br10  1  0.25000000  0.17372000  0.49623201  1
  Br  Br11  1  0.75000000  0.82627999  0.50376801  1
  Br  Br12  1  0.25000000  0.78167399  0.29352201  1
  Br  Br13  1  0.75000000  0.21832600  0.70647801  1
  Br  Br14  1  0.25000000  0.28167400  0.20647800  1
  Br  Br15  1  0.25000000  0.02360600  0.90240402  1
  Br  Br16  1  0.75000000  0.47639299  0.40240401  1
  Br  Br17  1  0.25000000  0.52360599  0.59759601  1
  Br  Br18  1  0.75000000  0.71832599  0.79352202  1
  Br  Br19  1  0.25000000  0.67371999  0.00376800  1
