# generated using pymatgen
data_KMnTl2V2O3F4
_symmetry_space_group_name_H-M   'P 1'
_cell_length_a   5.81319380
_cell_length_b   5.81319380
_cell_length_c   7.54609013
_cell_angle_alpha   67.34513092
_cell_angle_beta   67.34513092
_cell_angle_gamma   60.00000381
_symmetry_Int_Tables_number   1
_chemical_formula_structural   KMnTl2V2O3F4
_chemical_formula_sum   'K1 Mn1 Tl2 V2 O3 F4'
_cell_volume   197.79661408
_cell_formula_units_Z   1
loop_
 _symmetry_equiv_pos_site_id
 _symmetry_equiv_pos_as_xyz
  1  'x, y, z'
loop_
 _atom_site_type_symbol
 _atom_site_label
 _atom_site_symmetry_multiplicity
 _atom_site_fract_x
 _atom_site_fract_y
 _atom_site_fract_z
 _atom_site_occupancy
  K  K0  1  0.59552300  0.59552299  0.21343097  1
  Mn  Mn1  1  0.40447700  0.40447699  0.78656897  1
  Tl  Tl2  1  0.79910800  0.79910798  0.60267595  1
  Tl  Tl3  1  0.20089200  0.20089200  0.39732398  1
  V  V4  1  0.00000000  0.00000000  0.00000000  1
  V  V5  1  0.68040900  0.68040899  0.95877295  1
  O  O6  1  0.31959100  0.31959099  0.04122698  1
  O  O7  1  0.73188800  0.73188799  0.29839596  1
  O  O8  1  0.73188799  0.23782800  0.29839597  1
  F  F9  1  0.23782801  0.73188799  0.29839597  1
  F  F10  1  0.26811201  0.76217199  0.70160396  1
  F  F11  1  0.26811200  0.26811199  0.70160398  1
  F  F12  1  0.76217199  0.26811199  0.70160396  1
