# generated using pymatgen
data_Ga5Se11
_symmetry_space_group_name_H-M   'P 1'
_cell_length_a   5.55483294
_cell_length_b   5.55483294
_cell_length_c   11.01042843
_cell_angle_alpha   90.00000000
_cell_angle_beta   90.00000000
_cell_angle_gamma   90.00000000
_symmetry_Int_Tables_number   1
_chemical_formula_structural   Ga5Se11
_chemical_formula_sum   'Ga5 Se11'
_cell_volume   339.73963969
_cell_formula_units_Z   1
loop_
 _symmetry_equiv_pos_site_id
 _symmetry_equiv_pos_as_xyz
  1  'x, y, z'
loop_
 _atom_site_type_symbol
 _atom_site_label
 _atom_site_symmetry_multiplicity
 _atom_site_fract_x
 _atom_site_fract_y
 _atom_site_fract_z
 _atom_site_occupancy
  Ga  Ga0  1  0.50000001  0.50000001  0.49999998  1
  Ga  Ga1  1  0.00000000  0.00000000  0.00000000  1
  Ga  Ga2  1  0.50000001  0.00000000  0.25281499  1
  Ga  Ga3  1  0.00000000  0.50000001  0.74718497  1
  Ga  Ga4  1  0.00000000  0.50000001  0.25281499  1
  Se  Se5  1  0.50000001  0.00000000  0.74718497  1
  Se  Se6  1  0.50000001  0.50000001  -0.00000000  1
  Se  Se7  1  0.00000000  0.00000000  0.49999998  1
  Se  Se8  1  0.74406101  0.74406101  0.14201299  1
  Se  Se9  1  0.25633200  0.25633200  0.63224898  1
  Se  Se10  1  0.25593900  0.25593900  0.14201299  1
  Se  Se11  1  0.74366801  0.74366801  0.63224898  1
  Se  Se12  1  0.74366801  0.25633200  0.36775099  1
  Se  Se13  1  0.25593900  0.74406101  0.85798697  1
  Se  Se14  1  0.25633200  0.74366801  0.36775099  1
  Se  Se15  1  0.74406101  0.25593900  0.85798697  1
