# generated using pymatgen
data_EuZrTl2Cd2F14
_symmetry_space_group_name_H-M   'P 1'
_cell_length_a   6.64345598
_cell_length_b   6.64345598
_cell_length_c   8.65134525
_cell_angle_alpha   90.00000000
_cell_angle_beta   90.00000000
_cell_angle_gamma   116.98728180
_symmetry_Int_Tables_number   1
_chemical_formula_structural   EuZrTl2Cd2F14
_chemical_formula_sum   'Eu1 Zr1 Tl2 Cd2 F14'
_cell_volume   340.25283905
_cell_formula_units_Z   1
loop_
 _symmetry_equiv_pos_site_id
 _symmetry_equiv_pos_as_xyz
  1  'x, y, z'
loop_
 _atom_site_type_symbol
 _atom_site_label
 _atom_site_symmetry_multiplicity
 _atom_site_fract_x
 _atom_site_fract_y
 _atom_site_fract_z
 _atom_site_occupancy
  Eu  Eu0  1  0.80869101  0.19130900  0.24999999  1
  Zr  Zr1  1  0.19130904  0.80869102  0.74999998  1
  Tl  Tl2  1  0.50000002  0.50000001  0.49999999  1
  Tl  Tl3  1  0.50000002  0.50000001  0.99999997  1
  Cd  Cd4  1  0.19201204  0.80798802  0.24999999  1
  Cd  Cd5  1  0.80798801  0.19201100  0.74999998  1
  F  F6  1  0.20093604  0.79906402  0.51365198  1
  F  F7  1  0.56384004  0.84505702  0.24999999  1
  F  F8  1  0.15494302  0.43616001  0.24999999  1
  F  F9  1  0.43616001  0.15494300  0.74999998  1
  F  F10  1  0.20093604  0.79906402  0.98634797  1
  F  F11  1  0.79906401  0.20093600  0.48634799  1
  F  F12  1  0.52333404  0.83014802  0.74999998  1
  F  F13  1  0.16985202  0.47666601  0.74999998  1
  F  F14  1  0.84505703  0.56384001  0.74999998  1
  F  F15  1  0.83014802  0.52333401  0.24999999  1
  F  F16  1  0.79906401  0.20093600  0.01365200  1
  F  F17  1  0.47666601  0.16985200  0.24999999  1
  F  F18  1  0.99060500  0.00939500  0.24999999  1
  F  F19  1  0.00939505  0.99060502  0.74999998  1
