# generated using pymatgen
data_EuHf4Ti(OF)4
_symmetry_space_group_name_H-M   'P 1'
_cell_length_a   4.20898485
_cell_length_b   4.20898485
_cell_length_c   12.73015404
_cell_angle_alpha   90.00000000
_cell_angle_beta   90.00000000
_cell_angle_gamma   90.00000000
_symmetry_Int_Tables_number   1
_chemical_formula_structural   EuHf4Ti(OF)4
_chemical_formula_sum   'Eu1 Hf4 Ti1 O4 F4'
_cell_volume   225.52172470
_cell_formula_units_Z   1
loop_
 _symmetry_equiv_pos_site_id
 _symmetry_equiv_pos_as_xyz
  1  'x, y, z'
loop_
 _atom_site_type_symbol
 _atom_site_label
 _atom_site_symmetry_multiplicity
 _atom_site_fract_x
 _atom_site_fract_y
 _atom_site_fract_z
 _atom_site_occupancy
  Ti  Ti0  1  0.50000002  0.50000002  0.14179600  1
  Hf  Hf1  1  0.50000002  0.50000002  0.85820400  1
  Hf  Hf2  1  0.00000000  0.00000000  0.35077000  1
  Eu  Eu3  1  0.00000000  0.00000000  0.64923000  1
  Hf  Hf4  1  0.00000000  0.00000000  0.00000000  1
  Hf  Hf5  1  0.50000002  0.50000002  0.50000000  1
  F  F6  1  0.00000000  0.00000000  0.16217500  1
  F  F7  1  0.00000000  0.00000000  0.83782500  1
  O  O8  1  0.50000002  0.50000002  0.32846300  1
  O  O9  1  0.50000002  0.50000002  0.67153700  1
  O  O10  1  0.00000000  0.50000002  -0.00000000  1
  O  O11  1  0.50000002  0.00000000  -0.00000000  1
  F  F12  1  0.00000000  0.50000002  0.50000000  1
  F  F13  1  0.50000002  0.00000000  0.50000000  1
