# generated using pymatgen
data_Na4O7F
_symmetry_space_group_name_H-M   'P 1'
_cell_length_a   4.43927479
_cell_length_b   6.63369608
_cell_length_c   7.10902500
_cell_angle_alpha   90.00000000
_cell_angle_beta   90.00000000
_cell_angle_gamma   96.11768341
_symmetry_Int_Tables_number   1
_chemical_formula_structural   Na4O7F
_chemical_formula_sum   'Na4 O7 F1'
_cell_volume   208.16001360
_cell_formula_units_Z   1
loop_
 _symmetry_equiv_pos_site_id
 _symmetry_equiv_pos_as_xyz
  1  'x, y, z'
loop_
 _atom_site_type_symbol
 _atom_site_label
 _atom_site_symmetry_multiplicity
 _atom_site_fract_x
 _atom_site_fract_y
 _atom_site_fract_z
 _atom_site_occupancy
  Na  Na0  1  0.45996605  0.36433001  0.75000000  1
  Na  Na1  1  0.54003407  0.63567001  0.25000000  1
  Na  Na2  1  0.31986003  0.14804600  0.25000000  1
  Na  Na3  1  0.68014010  0.85195402  0.75000000  1
  O  O4  1  0.41057602  0.01566500  0.75000000  1
  O  O5  1  0.58942410  0.98433502  0.25000000  1
  O  O6  1  0.43864204  0.32290301  0.42608600  1
  O  O7  1  0.56135808  0.67709702  0.92608600  1
  O  O8  1  0.56135808  0.67709702  0.57391400  1
  O  O9  1  0.43864204  0.32290301  0.07391400  1
  F  F10  1  0.95960107  0.35095501  0.75000000  1
  O  O11  1  0.04039905  0.64904502  0.25000000  1
