# generated using pymatgen
data_CsTaGeS5
_symmetry_space_group_name_H-M   'P 1'
_cell_length_a   7.06243992
_cell_length_b   7.48602724
_cell_length_c   9.54045010
_cell_angle_alpha   67.34803772
_cell_angle_beta   77.48155212
_cell_angle_gamma   74.84189606
_symmetry_Int_Tables_number   1
_chemical_formula_structural   CsTaGeS5
_chemical_formula_sum   'Cs2 Ta2 Ge2 S10'
_cell_volume   445.46651211
_cell_formula_units_Z   2
loop_
 _symmetry_equiv_pos_site_id
 _symmetry_equiv_pos_as_xyz
  1  'x, y, z'
loop_
 _atom_site_type_symbol
 _atom_site_label
 _atom_site_symmetry_multiplicity
 _atom_site_fract_x
 _atom_site_fract_y
 _atom_site_fract_z
 _atom_site_occupancy
  Cs  Cs0  1  0.60530799  0.35130099  0.31232099  1
  Cs  Cs1  1  0.39469198  0.64869898  0.68767899  1
  Ta  Ta2  1  0.23975300  0.02800100  0.00425600  1
  Ta  Ta3  1  0.76024697  0.97199898  0.99574398  1
  Ge  Ge4  1  0.97719098  0.70237998  0.37237100  1
  Ge  Ge5  1  0.02280899  0.29761999  0.62762898  1
  S  S6  1  0.07003397  0.76079998  0.01360902  1
  S  S7  1  0.43799500  0.21633399  0.03105800  1
  S  S8  1  0.69075297  0.86162498  0.28626901  1
  S  S9  1  0.21079496  0.88033198  0.28899201  1
  S  S10  1  0.07684898  0.39049699  0.36642000  1
  S  S11  1  0.92315098  0.60950299  0.63357998  1
  S  S12  1  0.78920501  0.11966800  0.71100797  1
  S  S13  1  0.30924700  0.13837500  0.71373097  1
  S  S14  1  0.56200497  0.78366598  0.96894198  1
  S  S15  1  0.92996600  0.23919999  0.98639096  1
