# generated using pymatgen
data_BaSr3Te2O
_symmetry_space_group_name_H-M   'P 1'
_cell_length_a   5.04790401
_cell_length_b   5.04790401
_cell_length_c   9.56873512
_cell_angle_alpha   105.29392242
_cell_angle_beta   105.29392242
_cell_angle_gamma   90.00000000
_symmetry_Int_Tables_number   1
_chemical_formula_structural   BaSr3Te2O
_chemical_formula_sum   'Ba1 Sr3 Te2 O1'
_cell_volume   226.22492404
_cell_formula_units_Z   1
loop_
 _symmetry_equiv_pos_site_id
 _symmetry_equiv_pos_as_xyz
  1  'x, y, z'
loop_
 _atom_site_type_symbol
 _atom_site_label
 _atom_site_symmetry_multiplicity
 _atom_site_fract_x
 _atom_site_fract_y
 _atom_site_fract_z
 _atom_site_occupancy
  Ba  Ba0  1  0.83448002  0.83448000  0.66896001  1
  Sr  Sr1  1  0.17015100  0.17015100  0.34030200  1
  Sr  Sr2  1  0.99825301  0.49825300  0.99650600  1
  Sr  Sr3  1  0.49825302  0.99825301  0.99650600  1
  Te  Te4  1  0.63796501  0.63796500  0.27593001  1
  Te  Te5  1  0.36003301  0.36003300  0.72006599  1
  O  O6  1  0.99046602  0.99046601  0.98093201  1
