# generated using pymatgen
data_Sr2LaSbO6
_symmetry_space_group_name_H-M   'P 1'
_cell_length_a   5.98091507
_cell_length_b   6.10743523
_cell_length_c   8.51661587
_cell_angle_alpha   90.00000000
_cell_angle_beta   90.85778809
_cell_angle_gamma   90.00000000
_symmetry_Int_Tables_number   1
_chemical_formula_structural   Sr2LaSbO6
_chemical_formula_sum   'Sr4 La2 Sb2 O12'
_cell_volume   311.06051858
_cell_formula_units_Z   2
loop_
 _symmetry_equiv_pos_site_id
 _symmetry_equiv_pos_as_xyz
  1  'x, y, z'
loop_
 _atom_site_type_symbol
 _atom_site_label
 _atom_site_symmetry_multiplicity
 _atom_site_fract_x
 _atom_site_fract_y
 _atom_site_fract_z
 _atom_site_occupancy
  Sr  Sr0  1  0.51675199  0.54290098  0.74933998  1
  Sr  Sr1  1  0.01675200  0.95709896  0.24933999  1
  Sr  Sr2  1  0.48324799  0.45709898  0.25066000  1
  Sr  Sr3  1  0.98324799  0.04290100  0.75065999  1
  La  La4  1  0.00000000  0.49999998  0.49999997  1
  La  La5  1  0.49999999  0.00000000  0.00000002  1
  Sb  Sb6  1  0.49999999  0.00000000  0.49999999  1
  Sb  Sb7  1  0.99999999  0.49999998  0.00000003  1
  O  O8  1  0.76446899  0.80251997  0.55087500  1
  O  O9  1  0.26446900  0.69747997  0.05087501  1
  O  O10  1  0.23553100  0.19747999  0.44912498  1
  O  O11  1  0.73553099  0.30251999  0.94912498  1
  O  O12  1  0.81044899  0.76570397  0.93861498  1
  O  O13  1  0.31044900  0.73429597  0.43861499  1
  O  O14  1  0.18955100  0.23429599  0.06138500  1
  O  O15  1  0.68955099  0.26570399  0.56138499  1
  O  O16  1  0.39733200  0.96075596  0.72581198  1
  O  O17  1  0.89733199  0.53924398  0.22581202  1
  O  O18  1  0.60266799  0.03924400  0.27418801  1
  O  O19  1  0.10266800  0.46075598  0.77418796  1
