# generated using pymatgen
data_KRb3V4F12
_symmetry_space_group_name_H-M   'P 1'
_cell_length_a   6.04757404
_cell_length_b   6.07679319
_cell_length_c   8.58621216
_cell_angle_alpha   89.99057770
_cell_angle_beta   90.00000000
_cell_angle_gamma   90.00000000
_symmetry_Int_Tables_number   1
_chemical_formula_structural   KRb3V4F12
_chemical_formula_sum   'Rb3 K1 V4 F12'
_cell_volume   315.54206288
_cell_formula_units_Z   1
loop_
 _symmetry_equiv_pos_site_id
 _symmetry_equiv_pos_as_xyz
  1  'x, y, z'
loop_
 _atom_site_type_symbol
 _atom_site_label
 _atom_site_symmetry_multiplicity
 _atom_site_fract_x
 _atom_site_fract_y
 _atom_site_fract_z
 _atom_site_occupancy
  Rb  Rb0  1  0.25000000  0.75634798  0.00060900  1
  K  K1  1  0.74999999  0.24365199  0.99939100  1
  Rb  Rb2  1  0.25000000  0.75441098  0.49979000  1
  Rb  Rb3  1  0.74999999  0.24558899  0.50021000  1
  V  V4  1  0.74999999  0.74775598  0.76509400  1
  V  V5  1  0.25000000  0.25224399  0.23490600  1
  V  V6  1  0.25000000  0.25207199  0.74516300  1
  V  V7  1  0.74999999  0.74792798  0.25483700  1
  F  F8  1  0.25000000  0.28938099  0.97029600  1
  F  F9  1  0.25000000  0.21935699  0.51369300  1
  F  F10  1  0.74999999  0.78064298  0.48630700  1
  F  F11  1  0.74999999  0.71061898  0.02970400  1
  F  F12  1  0.47978300  0.48073598  0.71909700  1
  F  F13  1  0.01930200  0.02394100  0.75283600  1
  F  F14  1  0.48069800  0.02394100  0.75283600  1
  F  F15  1  0.02021700  0.48073598  0.71909700  1
  F  F16  1  0.98069799  0.97605897  0.24716400  1
  F  F17  1  0.52021700  0.51926398  0.28090300  1
  F  F18  1  0.97978299  0.51926398  0.28090300  1
  F  F19  1  0.51930200  0.97605897  0.24716400  1
