# generated using pymatgen
data_Bi2O3
_symmetry_space_group_name_H-M   'P 1'
_cell_length_a   3.65504789
_cell_length_b   7.46748734
_cell_length_c   8.97328186
_cell_angle_alpha   99.97084808
_cell_angle_beta   90.00000000
_cell_angle_gamma   104.16592407
_symmetry_Int_Tables_number   1
_chemical_formula_structural   Bi2O3
_chemical_formula_sum   'Bi6 O9'
_cell_volume   233.65219189
_cell_formula_units_Z   3
loop_
 _symmetry_equiv_pos_site_id
 _symmetry_equiv_pos_as_xyz
  1  'x, y, z'
loop_
 _atom_site_type_symbol
 _atom_site_label
 _atom_site_symmetry_multiplicity
 _atom_site_fract_x
 _atom_site_fract_y
 _atom_site_fract_z
 _atom_site_occupancy
  Bi  Bi0  1  0.96777902  0.93555799  0.18657697  1
  Bi  Bi1  1  0.36618700  0.73237399  0.51060998  1
  Bi  Bi2  1  0.03222100  0.06444200  0.81342300  1
  Bi  Bi3  1  0.69244502  0.38488999  0.13903299  1
  Bi  Bi4  1  0.63381302  0.26762600  0.48938999  1
  Bi  Bi5  1  0.30755500  0.61510999  0.86096698  1
  O  O6  1  0.12933100  0.25866200  0.28531799  1
  O  O7  1  0.52658001  0.05316000  0.65648000  1
  O  O8  1  0.20205800  0.40411599  0.62601499  1
  O  O9  1  0.79794202  0.59588399  0.37398498  1
  O  O10  1  0.50000000  0.99999999  -0.00000003  1
  O  O11  1  0.87066902  0.74133799  0.71468198  1
  O  O12  1  0.82513102  0.65026199  0.02672898  1
  O  O13  1  0.17486900  0.34973800  0.97327099  1
  O  O14  1  0.47342000  0.94683999  0.34351997  1
