# generated using pymatgen
data_SrHBrO
_symmetry_space_group_name_H-M   'P 1'
_cell_length_a   4.33857822
_cell_length_b   5.95057726
_cell_length_c   7.43683815
_cell_angle_alpha   105.60346985
_cell_angle_beta   90.00000000
_cell_angle_gamma   111.37995148
_symmetry_Int_Tables_number   1
_chemical_formula_structural   SrHBrO
_chemical_formula_sum   'Sr2 H2 Br2 O2'
_cell_volume   171.16345404
_cell_formula_units_Z   2
loop_
 _symmetry_equiv_pos_site_id
 _symmetry_equiv_pos_as_xyz
  1  'x, y, z'
loop_
 _atom_site_type_symbol
 _atom_site_label
 _atom_site_symmetry_multiplicity
 _atom_site_fract_x
 _atom_site_fract_y
 _atom_site_fract_z
 _atom_site_occupancy
  Sr  Sr0  1  0.69834294  0.39668600  0.27620399  1
  Sr  Sr1  1  0.30165695  0.60331401  0.72379598  1
  H  H2  1  0.94394990  0.88790001  0.61896899  1
  H  H3  1  0.05604999  0.11210000  0.38103099  1
  Br  Br4  1  0.61190096  0.22380200  0.82657498  1
  Br  Br5  1  0.38809894  0.77619801  0.17342500  1
  O  O6  1  0.85299992  0.70600001  0.59598299  1
  O  O7  1  0.14699998  0.29400000  0.40401699  1
