# generated using pymatgen
data_Li4WO5
_symmetry_space_group_name_H-M   'P 1'
_cell_length_a   5.13460207
_cell_length_b   5.18051672
_cell_length_c   7.81392813
_cell_angle_alpha   108.43907928
_cell_angle_beta   101.82195282
_cell_angle_gamma   101.38362885
_symmetry_Int_Tables_number   1
_chemical_formula_structural   Li4WO5
_chemical_formula_sum   'Li8 W2 O10'
_cell_volume   185.14337368
_cell_formula_units_Z   2
loop_
 _symmetry_equiv_pos_site_id
 _symmetry_equiv_pos_as_xyz
  1  'x, y, z'
loop_
 _atom_site_type_symbol
 _atom_site_label
 _atom_site_symmetry_multiplicity
 _atom_site_fract_x
 _atom_site_fract_y
 _atom_site_fract_z
 _atom_site_occupancy
  Li  Li0  1  0.42261896  0.80613302  0.29797099  1
  Li  Li1  1  0.57738099  0.19386700  0.70202899  1
  Li  Li2  1  0.00000000  0.00000000  0.50000001  1
  Li  Li3  1  0.50000000  0.00000000  -0.00000002  1
  Li  Li4  1  0.21745298  0.40246601  0.90237600  1
  Li  Li5  1  0.78254697  0.59753401  0.09762397  1
  Li  Li6  1  0.30623397  0.61391401  0.60999300  1
  Li  Li7  1  0.69376598  0.38608601  0.39000698  1
  W  W8  1  0.89286396  0.77910202  0.78271497  1
  W  W9  1  0.10713599  0.22089800  0.21728500  1
  O  O10  1  0.57436097  0.60882201  0.84495299  1
  O  O11  1  0.42563898  0.39117801  0.15504699  1
  O  O12  1  0.05061598  0.56842901  0.33577000  1
  O  O13  1  0.94938398  0.43157101  0.66422997  1
  O  O14  1  0.13228797  0.82379002  0.04204100  1
  O  O15  1  0.86771199  0.17621000  0.95795898  1
  O  O16  1  0.22252896  0.98910602  0.75109600  1
  O  O17  1  0.77747099  0.01089400  0.24890397  1
  O  O18  1  0.33263699  0.18792400  0.42724799  1
  O  O19  1  0.66736296  0.81207602  0.57275198  1
