# generated using pymatgen
data_BaGdCl5
_symmetry_space_group_name_H-M   'P 1'
_cell_length_a   5.57540607
_cell_length_b   6.93225336
_cell_length_c   10.12929821
_cell_angle_alpha   89.10018158
_cell_angle_beta   74.02536011
_cell_angle_gamma   86.72881317
_symmetry_Int_Tables_number   1
_chemical_formula_structural   BaGdCl5
_chemical_formula_sum   'Ba2 Gd2 Cl10'
_cell_volume   375.76713983
_cell_formula_units_Z   2
loop_
 _symmetry_equiv_pos_site_id
 _symmetry_equiv_pos_as_xyz
  1  'x, y, z'
loop_
 _atom_site_type_symbol
 _atom_site_label
 _atom_site_symmetry_multiplicity
 _atom_site_fract_x
 _atom_site_fract_y
 _atom_site_fract_z
 _atom_site_occupancy
  Ba  Ba0  1  0.67223199  0.74999998  0.65553598  1
  Ba  Ba1  1  0.32776800  0.24999999  0.34446399  1
  Gd  Gd2  1  0.92343099  0.74999998  0.15313799  1
  Gd  Gd3  1  0.07656900  0.24999999  0.84686198  1
  Cl  Cl4  1  0.37324100  0.74999998  0.25351799  1
  Cl  Cl5  1  0.62675899  0.24999999  0.74648198  1
  Cl  Cl6  1  0.72597299  0.09671400  0.06468100  1
  Cl  Cl7  1  0.20934600  0.40328599  0.06468099  1
  Cl  Cl8  1  0.18080800  0.99888397  0.62397398  1
  Cl  Cl9  1  0.19521800  0.50111598  0.62397398  1
  Cl  Cl10  1  0.81919199  0.00111600  0.37602600  1
  Cl  Cl11  1  0.80478199  0.49888398  0.37602599  1
  Cl  Cl12  1  0.79065399  0.59671398  0.93531898  1
  Cl  Cl13  1  0.27402700  0.90328597  0.93531897  1
