# generated using pymatgen
data_LiCaGaF6
_symmetry_space_group_name_H-M   'P 1'
_cell_length_a   5.22003603
_cell_length_b   5.22003603
_cell_length_c   9.70410824
_cell_angle_alpha   90.00000000
_cell_angle_beta   90.00000000
_cell_angle_gamma   120.00000000
_symmetry_Int_Tables_number   1
_chemical_formula_structural   LiCaGaF6
_chemical_formula_sum   'Li2 Ca2 Ga2 F12'
_cell_volume   228.99883074
_cell_formula_units_Z   2
loop_
 _symmetry_equiv_pos_site_id
 _symmetry_equiv_pos_as_xyz
  1  'x, y, z'
loop_
 _atom_site_type_symbol
 _atom_site_label
 _atom_site_symmetry_multiplicity
 _atom_site_fract_x
 _atom_site_fract_y
 _atom_site_fract_z
 _atom_site_occupancy
  Li  Li0  1  0.66666667  0.33333335  0.24999999  1
  Li  Li1  1  0.33333335  0.66666670  0.74999998  1
  Ca  Ca2  1  0.00000000  0.00000000  0.00000000  1
  Ca  Ca3  1  0.00000000  0.00000000  0.49999999  1
  Ga  Ga4  1  0.33333335  0.66666670  0.24999999  1
  Ga  Ga5  1  0.66666667  0.33333335  0.74999998  1
  F  F6  1  0.01408601  0.36055402  0.13861100  1
  F  F7  1  0.98591401  0.63944603  0.86138898  1
  F  F8  1  0.63944601  0.65353203  0.13861100  1
  F  F9  1  0.63944602  0.98591404  0.36138899  1
  F  F10  1  0.36055401  0.34646801  0.86138898  1
  F  F11  1  0.36055400  0.01408600  0.63861098  1
  F  F12  1  0.34646802  0.98591404  0.13861100  1
  F  F13  1  0.34646801  0.36055402  0.36138899  1
  F  F14  1  0.65353200  0.01408600  0.86138898  1
  F  F15  1  0.65353201  0.63944603  0.63861098  1
  F  F16  1  0.01408602  0.65353203  0.36138899  1
  F  F17  1  0.98591400  0.34646801  0.63861098  1
