# generated using pymatgen
data_Na2HSCl2
_symmetry_space_group_name_H-M   'P 1'
_cell_length_a   4.06276608
_cell_length_b   4.06276655
_cell_length_c   8.02577114
_cell_angle_alpha   90.00000000
_cell_angle_beta   90.00000000
_cell_angle_gamma   120.00000000
_symmetry_Int_Tables_number   1
_chemical_formula_structural   Na2HSCl2
_chemical_formula_sum   'Na2 H1 S1 Cl2'
_cell_volume   114.72579843
_cell_formula_units_Z   1
loop_
 _symmetry_equiv_pos_site_id
 _symmetry_equiv_pos_as_xyz
  1  'x, y, z'
loop_
 _atom_site_type_symbol
 _atom_site_label
 _atom_site_symmetry_multiplicity
 _atom_site_fract_x
 _atom_site_fract_y
 _atom_site_fract_z
 _atom_site_occupancy
  Na  Na0  1  0.66666668  0.33333333  0.74999999  1
  Na  Na1  1  0.33333337  0.66666666  0.25000000  1
  S  S2  1  0.66666668  0.33333333  0.25000000  1
  H  H3  1  0.33333337  0.66666666  0.74999999  1
  Cl  Cl4  1  0.00000000  0.00000000  0.00000000  1
  Cl  Cl5  1  0.00000000  0.00000000  0.49999999  1
