# generated using pymatgen
data_YBS3
_symmetry_space_group_name_H-M   'P 1'
_cell_length_a   6.00113821
_cell_length_b   7.66587687
_cell_length_c   8.99070740
_cell_angle_alpha   90.00000000
_cell_angle_beta   90.00000000
_cell_angle_gamma   90.00000000
_symmetry_Int_Tables_number   1
_chemical_formula_structural   YBS3
_chemical_formula_sum   'Y4 B4 S12'
_cell_volume   413.60838239
_cell_formula_units_Z   4
loop_
 _symmetry_equiv_pos_site_id
 _symmetry_equiv_pos_as_xyz
  1  'x, y, z'
loop_
 _atom_site_type_symbol
 _atom_site_label
 _atom_site_symmetry_multiplicity
 _atom_site_fract_x
 _atom_site_fract_y
 _atom_site_fract_z
 _atom_site_occupancy
  Y  Y0  1  0.92992497  0.38364401  0.25589499  1
  Y  Y1  1  0.07007500  0.61635601  0.75589497  1
  Y  Y2  1  0.42992498  0.11635600  0.75589497  1
  Y  Y3  1  0.57007498  0.88364402  0.25589499  1
  B  B4  1  0.09511300  0.84627101  0.42704198  1
  B  B5  1  0.90488697  0.15372900  0.92704196  1
  B  B6  1  0.59511298  0.65372901  0.92704196  1
  B  B7  1  0.40488699  0.34627101  0.42704198  1
  S  S8  1  0.59147698  0.50667901  0.76985197  1
  S  S9  1  0.40852299  0.49332101  0.26985199  1
  S  S10  1  0.09147700  0.99332102  0.26985199  1
  S  S11  1  0.90852297  0.00667900  0.76985197  1
  S  S12  1  0.83520897  0.67725001  0.04957000  1
  S  S13  1  0.16479099  0.32275001  0.54956998  1
  S  S14  1  0.33520899  0.82275001  0.54956998  1
  S  S15  1  0.66479098  0.17725000  0.04957000  1
  S  S16  1  0.36330899  0.80414901  0.95688096  1
  S  S17  1  0.63669098  0.19585100  0.45688098  1
  S  S18  1  0.86330897  0.69585101  0.45688098  1
  S  S19  1  0.13669100  0.30414901  0.95688096  1
