# generated using pymatgen
data_TlIn(PSe3)2
_symmetry_space_group_name_H-M   'P 1'
_cell_length_a   6.60561705
_cell_length_b   8.12034607
_cell_length_c   12.40746593
_cell_angle_alpha   102.34000397
_cell_angle_beta   93.42531586
_cell_angle_gamma   111.73381805
_symmetry_Int_Tables_number   1
_chemical_formula_structural   TlIn(PSe3)2
_chemical_formula_sum   'Tl2 In2 P4 Se12'
_cell_volume   596.82675210
_cell_formula_units_Z   2
loop_
 _symmetry_equiv_pos_site_id
 _symmetry_equiv_pos_as_xyz
  1  'x, y, z'
loop_
 _atom_site_type_symbol
 _atom_site_label
 _atom_site_symmetry_multiplicity
 _atom_site_fract_x
 _atom_site_fract_y
 _atom_site_fract_z
 _atom_site_occupancy
  Tl  Tl0  1  0.16950708  0.82468906  0.53692403  1
  Tl  Tl1  1  0.83049301  0.17531101  0.46307603  1
  In  In2  1  0.70812404  0.42996003  0.90853704  1
  In  In3  1  0.29187605  0.57004004  0.09146302  1
  P  P4  1  0.07926502  0.17006101  0.79502103  1
  P  P5  1  0.92073507  0.82993906  0.20497903  1
  P  P6  1  0.19854904  0.44217803  0.74597403  1
  P  P7  1  0.80145105  0.55782204  0.25402603  1
  Se  Se8  1  0.63283208  0.90363006  0.18459303  1
  Se  Se9  1  0.36716801  0.09637001  0.81540703  1
  Se  Se10  1  0.67173405  0.58868404  0.40918203  1
  Se  Se11  1  0.32826604  0.41131603  0.59081803  1
  Se  Se12  1  0.04409907  0.76909305  0.04000602  1
  Se  Se13  1  0.95590102  0.23090702  0.95999404  1
  Se  Se14  1  0.53928003  0.35758803  0.10999402  1
  Se  Se15  1  0.46072006  0.64241205  0.89000604  1
  Se  Se16  1  0.18075200  0.03595200  0.33281001  1
  Se  Se17  1  0.81924809  0.96404807  0.66719005  1
  Se  Se18  1  0.09470005  0.48927503  0.27299202  1
  Se  Se19  1  0.90530004  0.51072504  0.72700804  1
