# generated using pymatgen
data_SmVO4
_symmetry_space_group_name_H-M   'P 1'
_cell_length_a   5.19111586
_cell_length_b   5.19111586
_cell_length_c   6.86933661
_cell_angle_alpha   112.20037842
_cell_angle_beta   112.20037842
_cell_angle_gamma   90.00000000
_symmetry_Int_Tables_number   1
_chemical_formula_structural   SmVO4
_chemical_formula_sum   'Sm2 V2 O8'
_cell_volume   156.46825728
_cell_formula_units_Z   2
loop_
 _symmetry_equiv_pos_site_id
 _symmetry_equiv_pos_as_xyz
  1  'x, y, z'
loop_
 _atom_site_type_symbol
 _atom_site_label
 _atom_site_symmetry_multiplicity
 _atom_site_fract_x
 _atom_site_fract_y
 _atom_site_fract_z
 _atom_site_occupancy
  Sm  Sm0  1  0.49999997  0.50000000  -0.00000006  1
  Sm  Sm1  1  0.24999995  0.74999999  0.49999994  1
  V  V2  1  0.00000000  0.00000000  0.00000000  1
  V  V3  1  0.74999999  0.25000000  0.49999995  1
  O  O4  1  0.22917198  0.33463000  0.15737797  1
  O  O5  1  0.08463099  0.17820600  0.65737799  1
  O  O6  1  0.57274797  0.47917300  0.65737895  1
  O  O7  1  0.92820595  0.82274799  0.15737889  1
  O  O8  1  0.82179397  0.42725200  0.34262093  1
  O  O9  1  0.17725195  0.77082699  0.84262095  1
  O  O10  1  0.66536900  0.07179400  0.84262197  1
  O  O11  1  0.52082794  0.91536999  0.34262191  1
