# generated using pymatgen
data_TlPt2Se3
_symmetry_space_group_name_H-M   'P 1'
_cell_length_a   6.03371000
_cell_length_b   7.52436399
_cell_length_c   7.52436352
_cell_angle_alpha   120.00000000
_cell_angle_beta   90.00000000
_cell_angle_gamma   90.00000000
_symmetry_Int_Tables_number   1
_chemical_formula_structural   TlPt2Se3
_chemical_formula_sum   'Tl2 Pt4 Se6'
_cell_volume   295.83845808
_cell_formula_units_Z   2
loop_
 _symmetry_equiv_pos_site_id
 _symmetry_equiv_pos_as_xyz
  1  'x, y, z'
loop_
 _atom_site_type_symbol
 _atom_site_label
 _atom_site_symmetry_multiplicity
 _atom_site_fract_x
 _atom_site_fract_y
 _atom_site_fract_z
 _atom_site_occupancy
  Tl  Tl0  1  0.35612800  0.33333333  0.66666667  1
  Tl  Tl1  1  0.64387200  0.66666666  0.33333332  1
  Pt  Pt2  1  0.00000000  0.00000000  0.00000000  1
  Pt  Pt3  1  1.00000000  0.99999999  0.49999998  1
  Pt  Pt4  1  0.00000000  0.49999999  0.50000000  1
  Pt  Pt5  1  -0.00000000  0.49999999  -0.00000001  1
  Se  Se6  1  0.79059100  0.16979100  0.33958200  1
  Se  Se7  1  0.79059100  0.16979100  0.83020901  1
  Se  Se8  1  0.79059100  0.66041799  0.83020900  1
  Se  Se9  1  0.20940900  0.33958200  0.16979099  1
  Se  Se10  1  0.20940900  0.83020899  0.66041799  1
  Se  Se11  1  0.20940900  0.83020899  0.16979098  1
