# generated using pymatgen
data_Sr4ZnInGaCl7
_symmetry_space_group_name_H-M   'P 1'
_cell_length_a   4.25319576
_cell_length_b   9.11687183
_cell_length_c   12.25858021
_cell_angle_alpha   92.90789032
_cell_angle_beta   90.00000000
_cell_angle_gamma   90.00000000
_symmetry_Int_Tables_number   1
_chemical_formula_structural   Sr4ZnInGaCl7
_chemical_formula_sum   'Sr4 Zn1 In1 Ga1 Cl7'
_cell_volume   474.72469987
_cell_formula_units_Z   1
loop_
 _symmetry_equiv_pos_site_id
 _symmetry_equiv_pos_as_xyz
  1  'x, y, z'
loop_
 _atom_site_type_symbol
 _atom_site_label
 _atom_site_symmetry_multiplicity
 _atom_site_fract_x
 _atom_site_fract_y
 _atom_site_fract_z
 _atom_site_occupancy
  Sr  Sr0  1  0.75000004  0.68032301  0.37870003  1
  Sr  Sr1  1  0.25000001  0.31967701  0.62130002  1
  Sr  Sr2  1  0.75000004  0.10231500  0.38705301  1
  Sr  Sr3  1  0.25000001  0.89768502  0.61294704  1
  Ga  Ga4  1  0.75000004  0.12023100  0.83948101  1
  Zn  Zn5  1  0.25000001  0.87976902  0.16051903  1
  In  In6  1  0.75000004  0.11247900  0.62275201  1
  Cl  Cl7  1  0.25000001  0.88752102  0.37724804  1
  Cl  Cl8  1  0.75000004  0.60570801  0.62663103  1
  Cl  Cl9  1  0.25000001  0.39429201  0.37336902  1
  Cl  Cl10  1  0.75000004  0.11401700  0.11501501  1
  Cl  Cl11  1  0.25000001  0.88598302  0.88498504  1
  Cl  Cl12  1  0.75000004  0.64617901  0.12580603  1
  Cl  Cl13  1  0.25000001  0.35382101  0.87419402  1
