# generated using pymatgen
data_BrClO
_symmetry_space_group_name_H-M   'P 1'
_cell_length_a   6.41593218
_cell_length_b   9.27490711
_cell_length_c   9.27490711
_cell_angle_alpha   114.85015869
_cell_angle_beta   103.33144379
_cell_angle_gamma   103.33144379
_symmetry_Int_Tables_number   1
_chemical_formula_structural   BrClO
_chemical_formula_sum   'Br6 Cl6 O6'
_cell_volume   452.56615847
_cell_formula_units_Z   6
loop_
 _symmetry_equiv_pos_site_id
 _symmetry_equiv_pos_as_xyz
  1  'x, y, z'
loop_
 _atom_site_type_symbol
 _atom_site_label
 _atom_site_symmetry_multiplicity
 _atom_site_fract_x
 _atom_site_fract_y
 _atom_site_fract_z
 _atom_site_occupancy
  Br  Br0  1  0.25973094  0.67754494  0.52088593  1
  Br  Br1  1  0.26115495  0.52088596  0.84334093  1
  Br  Br2  1  0.41781399  0.15665899  0.67754495  1
  Br  Br3  1  0.58218593  0.84334093  0.32245492  1
  Br  Br4  1  0.73884497  0.47911396  0.15665895  1
  Br  Br5  1  0.74026898  0.32245497  0.47911394  1
  Cl  Cl6  1  0.08673693  0.70859594  0.95279891  1
  Cl  Cl7  1  0.62185894  0.75579694  0.70859591  1
  Cl  Cl8  1  0.13393800  0.04720100  0.75579696  1
  Cl  Cl9  1  0.86606192  0.95279892  0.24420291  1
  Cl  Cl10  1  0.37814098  0.24420298  0.29140396  1
  Cl  Cl11  1  0.91326299  0.29140397  0.04720096  1
  O  O12  1  0.13832696  0.45159896  0.62453294  1
  O  O13  1  0.31327192  0.82706593  0.45159892  1
  O  O14  1  0.48620595  0.62453295  0.17293394  1
  O  O15  1  0.51379397  0.37546697  0.82706593  1
  O  O16  1  0.68672800  0.17293399  0.54840095  1
  O  O17  1  0.86167296  0.54840095  0.37546693  1
