# generated using pymatgen
data_K2P3
_symmetry_space_group_name_H-M   'P 1'
_cell_length_a   8.40045834
_cell_length_b   8.57298183
_cell_length_c   10.35578823
_cell_angle_alpha   78.53816986
_cell_angle_beta   66.07174683
_cell_angle_gamma   60.66349792
_symmetry_Int_Tables_number   1
_chemical_formula_structural   K2P3
_chemical_formula_sum   'K8 P12'
_cell_volume   594.27236196
_cell_formula_units_Z   4
loop_
 _symmetry_equiv_pos_site_id
 _symmetry_equiv_pos_as_xyz
  1  'x, y, z'
loop_
 _atom_site_type_symbol
 _atom_site_label
 _atom_site_symmetry_multiplicity
 _atom_site_fract_x
 _atom_site_fract_y
 _atom_site_fract_z
 _atom_site_occupancy
  K  K0  1  0.87541193  0.50000002  0.24917604  1
  K  K1  1  0.62458795  0.50000002  0.75082403  1
  K  K2  1  0.63668396  0.00000000  0.72663201  1
  K  K3  1  0.36331594  1.00000005  0.27336804  1
  K  K4  1  0.38668396  0.50000002  0.22663203  1
  K  K5  1  0.12541199  0.00000000  0.74917599  1
  K  K6  1  0.87458795  0.00000000  0.25082403  1
  K  K7  1  0.11331598  0.50000002  0.77336801  1
  P  P8  1  0.65392296  0.14524701  0.99557902  1
  P  P9  1  0.10525397  0.78949204  0.50000002  1
  P  P10  1  0.35525397  0.28949201  0.00000002  1
  P  P11  1  0.39950195  0.64524703  0.50442103  1
  P  P12  1  0.64474594  0.71050803  0.00000005  1
  P  P13  1  0.79474892  0.85475304  0.00442106  1
  P  P14  1  0.95525092  0.64524703  0.49557905  1
  P  P15  1  0.39474597  0.21050801  0.50000001  1
  P  P16  1  0.20082998  0.14524701  0.00442101  1
  P  P17  1  0.09607698  0.35475302  0.50442101  1
  P  P18  1  0.35049795  0.85475304  0.99557902  1
  P  P19  1  0.54916995  0.35475302  0.49557902  1
