# generated using pymatgen
data_Cu2HSeO5
_symmetry_space_group_name_H-M   'P 1'
_cell_length_a   4.79491091
_cell_length_b   5.83536196
_cell_length_c   7.47170591
_cell_angle_alpha   100.63365936
_cell_angle_beta   94.89087677
_cell_angle_gamma   101.09916687
_symmetry_Int_Tables_number   1
_chemical_formula_structural   Cu2HSeO5
_chemical_formula_sum   'Cu4 H2 Se2 O10'
_cell_volume   200.03794471
_cell_formula_units_Z   2
loop_
 _symmetry_equiv_pos_site_id
 _symmetry_equiv_pos_as_xyz
  1  'x, y, z'
loop_
 _atom_site_type_symbol
 _atom_site_label
 _atom_site_symmetry_multiplicity
 _atom_site_fract_x
 _atom_site_fract_y
 _atom_site_fract_z
 _atom_site_occupancy
  Cu  Cu0  1  0.50000001  0.49999998  0.49999998  1
  Cu  Cu1  1  0.91232301  0.25175199  0.23289298  1
  Cu  Cu2  1  0.08767700  0.74824796  0.76710698  1
  Cu  Cu3  1  0.80034701  0.85166596  0.10657496  1
  H  H4  1  0.19965300  0.14833399  0.89342500  1
  H  H5  1  -0.00000000  0.49999998  -0.00000002  1
  Se  Se6  1  0.47212900  0.80366196  0.33924997  1
  Se  Se7  1  0.52787101  0.19633799  0.66074999  1
  O  O8  1  0.02656500  0.30797599  0.03097899  1
  O  O9  1  0.70341701  0.96174595  0.18967196  1
  O  O10  1  0.29658300  0.03825400  0.81032800  1
  O  O11  1  0.68805601  0.44518498  0.28699897  1
  O  O12  1  0.81130101  0.75769496  0.60570297  1
  O  O13  1  0.18869900  0.24230499  0.39429699  1
  O  O14  1  0.66645601  0.29533499  0.59979898  1
  O  O15  1  0.33354400  0.70466497  0.40020098  1
  O  O16  1  0.31194400  0.55481497  0.71300098  1
  O  O17  1  0.97343501  0.69202397  0.96902097  1
