# generated using pymatgen
data_Li4Co3(OF3)2
_symmetry_space_group_name_H-M   'P 1'
_cell_length_a   5.14920712
_cell_length_b   5.56039667
_cell_length_c   6.53028059
_cell_angle_alpha   89.76626587
_cell_angle_beta   89.30960846
_cell_angle_gamma   89.87359619
_symmetry_Int_Tables_number   1
_chemical_formula_structural   Li4Co3(OF3)2
_chemical_formula_sum   'Li4 Co3 O2 F6'
_cell_volume   186.95704039
_cell_formula_units_Z   1
loop_
 _symmetry_equiv_pos_site_id
 _symmetry_equiv_pos_as_xyz
  1  'x, y, z'
loop_
 _atom_site_type_symbol
 _atom_site_label
 _atom_site_symmetry_multiplicity
 _atom_site_fract_x
 _atom_site_fract_y
 _atom_site_fract_z
 _atom_site_occupancy
  Li  Li0  1  0.50111899  0.16921200  0.99999299  1
  Li  Li1  1  0.00323099  0.33672899  0.25504399  1
  Li  Li2  1  0.99498896  0.82997298  0.50649594  1
  Li  Li3  1  0.99388596  0.83008698  0.99175994  1
  Co  Co4  1  0.50500398  0.16799500  0.50013998  1
  Co  Co5  1  0.99262297  0.32472599  0.75197395  1
  Co  Co6  1  0.49888297  0.67636098  0.25774196  1
  O  O7  1  0.65752798  0.27689299  0.74919597  1
  O  O8  1  0.60806997  0.83859098  0.46905195  1
  F  F9  1  0.60416098  0.37226399  0.26333196  1
  F  F10  1  0.62843597  0.83276498  0.03796195  1
  F  F11  1  0.14534198  0.68587198  0.23937598  1
  F  F12  1  0.10588799  0.16818700  0.98177201  1
  F  F13  1  0.06837798  0.63904198  0.76221999  1
  F  F14  1  0.12218499  0.18747900  0.52670900  1
