# generated using pymatgen
data_Na3NpO6
_symmetry_space_group_name_H-M   'P 1'
_cell_length_a   5.77021790
_cell_length_b   5.99707937
_cell_length_c   10.86617088
_cell_angle_alpha   82.56144714
_cell_angle_beta   74.60256958
_cell_angle_gamma   61.24366760
_symmetry_Int_Tables_number   1
_chemical_formula_structural   Na3NpO6
_chemical_formula_sum   'Na6 Np2 O12'
_cell_volume   317.81247003
_cell_formula_units_Z   2
loop_
 _symmetry_equiv_pos_site_id
 _symmetry_equiv_pos_as_xyz
  1  'x, y, z'
loop_
 _atom_site_type_symbol
 _atom_site_label
 _atom_site_symmetry_multiplicity
 _atom_site_fract_x
 _atom_site_fract_y
 _atom_site_fract_z
 _atom_site_occupancy
  Na  Na0  1  0.34078601  0.56681399  0.49766803  1
  Na  Na1  1  0.59473200  0.06681400  0.99766804  1
  Na  Na2  1  0.77133702  0.85977598  0.31611404  1
  Na  Na3  1  0.61578202  0.85915198  0.68550005  1
  Na  Na4  1  0.05277301  0.35977599  0.81611403  1
  Na  Na5  1  0.83956601  0.35915199  0.18550004  1
  Np  Np6  1  0.01301000  0.21975400  0.50080302  1
  Np  Np7  1  0.26643302  0.71975398  0.00080302  1
  O  O8  1  0.33760601  0.22244700  0.39096702  1
  O  O9  1  0.68486001  0.22447000  0.61056704  1
  O  O10  1  0.04898002  0.72244698  0.89096703  1
  O  O11  1  0.48010302  0.72446998  0.11056703  1
  O  O12  1  0.04806602  0.95840098  0.39586002  1
  O  O13  1  0.23533802  0.96158298  0.60880903  1
  O  O14  1  0.59767301  0.45840099  0.89586005  1
  O  O15  1  0.19427001  0.46158299  0.10880901  1
  O  O16  1  0.78381501  0.47815099  0.39091904  1
  O  O17  1  0.98535701  0.48143899  0.60721605  1
  O  O18  1  0.34711502  0.97815098  0.89091904  1
  O  O19  1  0.92598802  0.98143898  0.10721604  1
