# generated using pymatgen
data_Te4PCNCl13
_symmetry_space_group_name_H-M   'P 1'
_cell_length_a   8.20000839
_cell_length_b   8.42576218
_cell_length_c   9.30383110
_cell_angle_alpha   96.90621948
_cell_angle_beta   108.62478638
_cell_angle_gamma   110.10630798
_symmetry_Int_Tables_number   1
_chemical_formula_structural   Te4PCNCl13
_chemical_formula_sum   'Te4 P1 C1 N1 Cl13'
_cell_volume   552.58405694
_cell_formula_units_Z   1
loop_
 _symmetry_equiv_pos_site_id
 _symmetry_equiv_pos_as_xyz
  1  'x, y, z'
loop_
 _atom_site_type_symbol
 _atom_site_label
 _atom_site_symmetry_multiplicity
 _atom_site_fract_x
 _atom_site_fract_y
 _atom_site_fract_z
 _atom_site_occupancy
  Te  Te0  1  0.00659400  0.05725700  0.22878400  1
  Te  Te1  1  0.99340599  0.94274295  0.77121601  1
  Te  Te2  1  0.88378099  0.66013996  0.38467201  1
  Te  Te3  1  0.11621900  0.33985998  0.61532801  1
  N  N4  1  0.04690000  0.21700599  0.38949000  1
  C  C5  1  0.95309999  0.78299395  0.61051001  1
  P  P6  1  0.95086199  0.84479995  0.31516100  1
  Cl  Cl7  1  0.04913800  0.15519999  0.68483901  1
  Cl  Cl8  1  0.30839000  0.07299100  0.29973201  1
  Cl  Cl9  1  0.69160999  0.92700895  0.70026800  1
  Cl  Cl10  1  0.95183799  0.78315895  0.95846402  1
  Cl  Cl11  1  0.04816200  0.21684099  0.04153600  1
  Cl  Cl12  1  0.68375199  0.95032094  0.10451599  1
  Cl  Cl13  1  0.31624800  0.04967900  0.89548403  1
  Cl  Cl14  1  0.18349300  0.64237796  0.47683099  1
  Cl  Cl15  1  0.81650699  0.35762198  0.52316902  1
  Cl  Cl16  1  0.78229499  0.43993097  0.16306501  1
  Cl  Cl17  1  0.21770500  0.56006897  0.83693501  1
  Cl  Cl18  1  0.57883200  0.61807396  0.34387100  1
  Cl  Cl19  1  0.42116800  0.38192598  0.65612901  1
