# generated using pymatgen
data_Zn6P7Au2
_symmetry_space_group_name_H-M   'P 1'
_cell_length_a   6.53606749
_cell_length_b   6.53606749
_cell_length_c   6.53606796
_cell_angle_alpha   88.85007477
_cell_angle_beta   88.85007477
_cell_angle_gamma   88.85007477
_symmetry_Int_Tables_number   1
_chemical_formula_structural   Zn6P7Au2
_chemical_formula_sum   'Zn6 P7 Au2'
_cell_volume   279.05551016
_cell_formula_units_Z   1
loop_
 _symmetry_equiv_pos_site_id
 _symmetry_equiv_pos_as_xyz
  1  'x, y, z'
loop_
 _atom_site_type_symbol
 _atom_site_label
 _atom_site_symmetry_multiplicity
 _atom_site_fract_x
 _atom_site_fract_y
 _atom_site_fract_z
 _atom_site_occupancy
  Zn  Zn0  1  0.00000000  0.00000000  0.00000000  1
  Zn  Zn1  1  0.77473502  0.43686700  0.58024408  1
  Zn  Zn2  1  0.43686703  0.58024401  0.77473508  1
  Zn  Zn3  1  0.58024403  0.77473501  0.43686709  1
  Zn  Zn4  1  0.41975601  0.22526500  0.56313305  1
  Zn  Zn5  1  0.56313302  0.41975600  0.22526506  1
  P  P6  1  0.22526502  0.56313301  0.41975605  1
  P  P7  1  0.62530502  0.24940000  0.87433007  1
  P  P8  1  0.87433003  0.62530501  0.24940009  1
  P  P9  1  0.75730304  0.75730301  0.75730310  1
  P  P10  1  0.24940003  0.87433001  0.62530508  1
  P  P11  1  0.75060001  0.12567000  0.37469506  1
  Au  Au12  1  0.24269701  0.24269700  0.24269703  1
  P  P13  1  0.12567001  0.37469500  0.75060005  1
  Au  Au14  1  0.37469503  0.75060001  0.12567006  1
