# generated using pymatgen
data_GeF4
_symmetry_space_group_name_H-M   'P 1'
_cell_length_a   5.58209419
_cell_length_b   5.58209419
_cell_length_c   5.64944077
_cell_angle_alpha   106.86743927
_cell_angle_beta   106.86743927
_cell_angle_gamma   114.37340546
_symmetry_Int_Tables_number   1
_chemical_formula_structural   GeF4
_chemical_formula_sum   'Ge2 F8'
_cell_volume   135.42380605
_cell_formula_units_Z   2
loop_
 _symmetry_equiv_pos_site_id
 _symmetry_equiv_pos_as_xyz
  1  'x, y, z'
loop_
 _atom_site_type_symbol
 _atom_site_label
 _atom_site_symmetry_multiplicity
 _atom_site_fract_x
 _atom_site_fract_y
 _atom_site_fract_z
 _atom_site_occupancy
  Ge  Ge0  1  0.76179389  0.76179392  0.99999988  1
  Ge  Ge1  1  0.01179394  0.51179395  0.49999995  1
  F  F2  1  0.24028093  0.52067095  0.31112193  1
  F  F3  1  0.20954889  0.92915891  0.68887789  1
  F  F4  1  0.70926692  0.49054095  0.18843191  1
  F  F5  1  0.30210893  0.52083495  0.81156793  1
  F  F6  1  0.74054092  0.45926695  0.68843191  1
  F  F7  1  0.77083497  0.05210899  0.31156795  1
  F  F8  1  0.17915888  0.95954891  0.18887789  1
  F  F9  1  0.77067086  0.99028090  0.81112185  1
