# generated using pymatgen
data_NaIn3Ga3Cu2Te2Se9
_symmetry_space_group_name_H-M   'P 1'
_cell_length_a   7.20489979
_cell_length_b   7.42540407
_cell_length_c   9.37792873
_cell_angle_alpha   90.00000000
_cell_angle_beta   87.14620972
_cell_angle_gamma   90.00000000
_symmetry_Int_Tables_number   1
_chemical_formula_structural   NaIn3Ga3Cu2Te2Se9
_chemical_formula_sum   'Na1 In3 Ga3 Cu2 Te2 Se9'
_cell_volume   501.09034401
_cell_formula_units_Z   1
loop_
 _symmetry_equiv_pos_site_id
 _symmetry_equiv_pos_as_xyz
  1  'x, y, z'
loop_
 _atom_site_type_symbol
 _atom_site_label
 _atom_site_symmetry_multiplicity
 _atom_site_fract_x
 _atom_site_fract_y
 _atom_site_fract_z
 _atom_site_occupancy
  Na  Na0  1  0.05104900  0.82758599  0.32202201  1
  In  In1  1  0.44895101  0.32758600  0.67797803  1
  In  In2  1  0.94895103  0.17241400  0.67797802  1
  In  In3  1  0.55104902  0.67241399  0.32202201  1
  Te  Te4  1  0.01101000  0.73616299  0.94960204  1
  Ga  Ga5  1  0.48899001  0.23616300  0.05039800  1
  Ga  Ga6  1  0.98899003  0.26383700  0.05039799  1
  Ga  Ga7  1  0.51101002  0.76383699  0.94960204  1
  Cu  Cu8  1  0.34716401  0.90918499  0.62693402  1
  Cu  Cu9  1  0.15283600  0.40918500  0.37306602  1
  Te  Te10  1  0.65283602  0.09081500  0.37306601  1
  Se  Se11  1  0.84716403  0.59081499  0.62693402  1
  Se  Se12  1  0.80416602  0.38838900  0.40991201  1
  Se  Se13  1  0.69583402  0.88838899  0.59008802  1
  Se  Se14  1  0.19583401  0.61161099  0.59008802  1
  Se  Se15  1  0.30416601  0.11161100  0.40991202  1
  Se  Se16  1  0.74657202  0.45832900  0.85503203  1
  Se  Se17  1  0.75342802  0.95832899  0.14496800  1
  Se  Se18  1  0.25342801  0.54167099  0.14496800  1
  Se  Se19  1  0.24657201  0.04167100  0.85503204  1
