# generated using pymatgen
data_Y2As2O7
_symmetry_space_group_name_H-M   'P 1'
_cell_length_a   5.01658821
_cell_length_b   5.81447220
_cell_length_c   5.81447220
_cell_angle_alpha   74.73750305
_cell_angle_beta   82.60368347
_cell_angle_gamma   97.39631653
_symmetry_Int_Tables_number   1
_chemical_formula_structural   Y2As2O7
_chemical_formula_sum   'Y2 As2 O7'
_cell_volume   159.89676704
_cell_formula_units_Z   1
loop_
 _symmetry_equiv_pos_site_id
 _symmetry_equiv_pos_as_xyz
  1  'x, y, z'
loop_
 _atom_site_type_symbol
 _atom_site_label
 _atom_site_symmetry_multiplicity
 _atom_site_fract_x
 _atom_site_fract_y
 _atom_site_fract_z
 _atom_site_occupancy
  Y  Y0  1  -0.00000000  0.30626699  0.30626700  1
  Y  Y1  1  1.00000003  0.69373297  0.69373300  1
  As  As2  1  0.40921001  0.22877299  0.77122698  1
  As  As3  1  0.59079002  0.77122696  0.22877302  1
  O  O4  1  0.21280900  0.39794498  0.91800098  1
  O  O5  1  0.21280901  0.08199900  0.60205498  1
  O  O6  1  0.72367102  0.39780398  0.60219599  1
  O  O7  1  0.50000002  0.00000000  0.00000000  1
  O  O8  1  0.27632901  0.60219597  0.39780401  1
  O  O9  1  0.78719103  0.60205497  0.08199902  1
  O  O10  1  0.78719102  0.91800096  0.39794502  1
