# generated using pymatgen
data_LaBr2
_symmetry_space_group_name_H-M   'P 1'
_cell_length_a   4.07224417
_cell_length_b   7.54767704
_cell_length_c   9.95086479
_cell_angle_alpha   90.00000000
_cell_angle_beta   90.00000000
_cell_angle_gamma   90.00000000
_symmetry_Int_Tables_number   1
_chemical_formula_structural   LaBr2
_chemical_formula_sum   'La4 Br8'
_cell_volume   305.84961907
_cell_formula_units_Z   4
loop_
 _symmetry_equiv_pos_site_id
 _symmetry_equiv_pos_as_xyz
  1  'x, y, z'
loop_
 _atom_site_type_symbol
 _atom_site_label
 _atom_site_symmetry_multiplicity
 _atom_site_fract_x
 _atom_site_fract_y
 _atom_site_fract_z
 _atom_site_occupancy
  La  La0  1  0.24999999  0.73077100  0.84124002  1
  La  La1  1  0.74999997  0.26922900  0.15876000  1
  La  La2  1  0.74999997  0.76922900  0.34124001  1
  La  La3  1  0.24999999  0.23077100  0.65876001  1
  Br  Br4  1  0.24999999  0.58579700  0.14807200  1
  Br  Br5  1  0.74999997  0.41420300  0.85192802  1
  Br  Br6  1  0.74999997  0.91420300  0.64807201  1
  Br  Br7  1  0.24999999  0.08579700  0.35192801  1
  Br  Br8  1  0.24999999  0.59747500  0.53967601  1
  Br  Br9  1  0.74999997  0.40252500  0.46032401  1
  Br  Br10  1  0.74999997  0.90252500  0.03967600  1
  Br  Br11  1  0.24999999  0.09747500  0.96032402  1
