# generated using pymatgen
data_Th3SnTe3RuSe2
_symmetry_space_group_name_H-M   'P 1'
_cell_length_a   6.97194195
_cell_length_b   6.97194195
_cell_length_c   8.42946529
_cell_angle_alpha   114.42778015
_cell_angle_beta   114.42778015
_cell_angle_gamma   90.00000000
_symmetry_Int_Tables_number   1
_chemical_formula_structural   Th3SnTe3RuSe2
_chemical_formula_sum   'Th3 Sn1 Te3 Ru1 Se2'
_cell_volume   332.35876847
_cell_formula_units_Z   1
loop_
 _symmetry_equiv_pos_site_id
 _symmetry_equiv_pos_as_xyz
  1  'x, y, z'
loop_
 _atom_site_type_symbol
 _atom_site_label
 _atom_site_symmetry_multiplicity
 _atom_site_fract_x
 _atom_site_fract_y
 _atom_site_fract_z
 _atom_site_occupancy
  Th  Th0  1  0.00000000  0.00000000  0.00000000  1
  Th  Th1  1  0.75000001  0.25000000  0.50000002  1
  Th  Th2  1  0.41021001  0.28748800  0.14911801  1
  Sn  Sn3  1  0.03748801  0.98890802  0.64911802  1
  Te  Te4  1  0.33979002  0.96251202  0.35088202  1
  Ru  Ru5  1  0.13837001  0.58979001  0.85088202  1
  Te  Te6  1  0.61163002  0.66021001  0.64911802  1
  Te  Te7  1  0.01109201  0.38837001  0.35088201  1
  Se  Se8  1  0.71251201  0.26109200  0.85088202  1
  Se  Se9  1  0.73890802  0.86163001  0.14911802  1
