# generated using pymatgen
data_La2NO5
_symmetry_space_group_name_H-M   'P 1'
_cell_length_a   3.88306570
_cell_length_b   4.70213795
_cell_length_c   7.64323092
_cell_angle_alpha   107.91474152
_cell_angle_beta   99.97834778
_cell_angle_gamma   90.00000000
_symmetry_Int_Tables_number   1
_chemical_formula_structural   La2NO5
_chemical_formula_sum   'La2 N1 O5'
_cell_volume   130.56886686
_cell_formula_units_Z   1
loop_
 _symmetry_equiv_pos_site_id
 _symmetry_equiv_pos_as_xyz
  1  'x, y, z'
loop_
 _atom_site_type_symbol
 _atom_site_label
 _atom_site_symmetry_multiplicity
 _atom_site_fract_x
 _atom_site_fract_y
 _atom_site_fract_z
 _atom_site_occupancy
  La  La0  1  0.82467198  0.83014900  0.66029798  1
  La  La1  1  0.20747899  0.17768600  0.35537199  1
  N  N2  1  0.53432299  0.48355100  0.96710198  1
  O  O3  1  0.77806498  0.27310900  0.54621799  1
  O  O4  1  0.26490799  0.74556000  0.49111998  1
  O  O5  1  0.77502098  0.55349200  0.10698398  1
  O  O6  1  0.41176599  0.21359500  0.89445299  1
  O  O7  1  0.41176599  0.68085800  0.89445298  1
