# generated using pymatgen
data_Ba2InBiSe5
_symmetry_space_group_name_H-M   'P 1'
_cell_length_a   4.37906790
_cell_length_b   9.97104549
_cell_length_c   13.42813396
_cell_angle_alpha   90.00000000
_cell_angle_beta   90.00000000
_cell_angle_gamma   102.68490601
_symmetry_Int_Tables_number   1
_chemical_formula_structural   Ba2InBiSe5
_chemical_formula_sum   'Ba4 In2 Bi2 Se10'
_cell_volume   572.01374187
_cell_formula_units_Z   2
loop_
 _symmetry_equiv_pos_site_id
 _symmetry_equiv_pos_as_xyz
  1  'x, y, z'
loop_
 _atom_site_type_symbol
 _atom_site_label
 _atom_site_symmetry_multiplicity
 _atom_site_fract_x
 _atom_site_fract_y
 _atom_site_fract_z
 _atom_site_occupancy
  Ba  Ba0  1  0.61318501  0.22636999  0.85411900  1
  Ba  Ba1  1  0.38681498  0.77362996  0.35411900  1
  Ba  Ba2  1  0.37184998  0.74369996  0.98024500  1
  Ba  Ba3  1  0.62815000  0.25629999  0.48024500  1
  In  In4  1  0.05920300  0.11840599  0.11172400  1
  In  In5  1  0.94079699  0.88159396  0.61172400  1
  Bi  Bi6  1  0.71732100  0.43464198  0.19101200  1
  Bi  Bi7  1  0.28267898  0.56535797  0.69101200  1
  Se  Se8  1  0.21654099  0.43308198  0.33638800  1
  Se  Se9  1  0.78345900  0.56691797  0.83638800  1
  Se  Se10  1  0.99660698  0.99321395  0.94252200  1
  Se  Se11  1  0.00339300  0.00678600  0.44252200  1
  Se  Se12  1  0.54588001  0.09176000  0.22392200  1
  Se  Se13  1  0.45411997  0.90823996  0.72392200  1
  Se  Se14  1  0.85821999  0.71643997  0.16974700  1
  Se  Se15  1  0.14177999  0.28355999  0.66974700  1
  Se  Se16  1  0.18747299  0.37494598  0.03590200  1
  Se  Se17  1  0.81252699  0.62505397  0.53590200  1
