# generated using pymatgen
data_Bi2(MoSe)5
_symmetry_space_group_name_H-M   'P 1'
_cell_length_a   6.48996019
_cell_length_b   6.48996019
_cell_length_c   6.48996019
_cell_angle_alpha   90.00000000
_cell_angle_beta   90.00000000
_cell_angle_gamma   90.00000000
_symmetry_Int_Tables_number   1
_chemical_formula_structural   Bi2(MoSe)5
_chemical_formula_sum   'Bi2 Mo5 Se5'
_cell_volume   273.35441909
_cell_formula_units_Z   1
loop_
 _symmetry_equiv_pos_site_id
 _symmetry_equiv_pos_as_xyz
  1  'x, y, z'
loop_
 _atom_site_type_symbol
 _atom_site_label
 _atom_site_symmetry_multiplicity
 _atom_site_fract_x
 _atom_site_fract_y
 _atom_site_fract_z
 _atom_site_occupancy
  Bi  Bi0  1  0.87357697  0.37357699  0.12642300  1
  Bi  Bi1  1  0.37357699  0.12642300  0.87357697  1
  Mo  Mo2  1  0.12642300  0.87357697  0.37357699  1
  Mo  Mo3  1  0.62642298  0.62642298  0.62642298  1
  Mo  Mo4  1  0.12708400  0.62708398  0.87291597  1
  Mo  Mo5  1  0.62708398  0.87291597  0.12708400  1
  Mo  Mo6  1  0.87291597  0.12708400  0.62708398  1
  Se  Se7  1  0.37291599  0.37291599  0.37291599  1
  Se  Se8  1  0.49739999  0.99739997  0.50259999  1
  Se  Se9  1  0.99739997  0.50259999  0.49739999  1
  Se  Se10  1  0.50259999  0.49739999  0.99739997  1
  Se  Se11  1  0.00260000  0.00260000  0.00260000  1
