# generated using pymatgen
data_LiCoSiO4
_symmetry_space_group_name_H-M   'P 1'
_cell_length_a   5.05464315
_cell_length_b   5.66188097
_cell_length_c   6.09902477
_cell_angle_alpha   90.00000000
_cell_angle_beta   90.67378235
_cell_angle_gamma   90.00000000
_symmetry_Int_Tables_number   1
_chemical_formula_structural   LiCoSiO4
_chemical_formula_sum   'Li2 Co2 Si2 O8'
_cell_volume   174.53462729
_cell_formula_units_Z   2
loop_
 _symmetry_equiv_pos_site_id
 _symmetry_equiv_pos_as_xyz
  1  'x, y, z'
loop_
 _atom_site_type_symbol
 _atom_site_label
 _atom_site_symmetry_multiplicity
 _atom_site_fract_x
 _atom_site_fract_y
 _atom_site_fract_z
 _atom_site_occupancy
  Li  Li0  1  0.98927097  0.83739300  0.74981802  1
  Li  Li1  1  0.48927099  0.16260700  0.24981801  1
  Co  Co2  1  0.98960797  0.33925700  0.99829201  1
  Co  Co3  1  0.48960799  0.66074300  0.49829201  1
  Si  Si4  1  0.99379197  0.33491500  0.50137702  1
  Si  Si5  1  0.49379199  0.66508500  0.00137701  1
  O  O6  1  0.86063997  0.60112400  0.52214901  1
  O  O7  1  0.87952297  0.20929300  0.27425802  1
  O  O8  1  0.92783897  0.17890900  0.72374001  1
  O  O9  1  0.81776098  0.63625000  0.98099201  1
  O  O10  1  0.36063999  0.39887600  0.02214901  1
  O  O11  1  0.42783899  0.82109100  0.22374001  1
  O  O12  1  0.37952299  0.79070700  0.77425800  1
  O  O13  1  0.31776099  0.36375000  0.48099200  1
