# generated using pymatgen
data_In3S4Br
_symmetry_space_group_name_H-M   'P 1'
_cell_length_a   3.91280007
_cell_length_b   10.51330185
_cell_length_c   11.45243073
_cell_angle_alpha   66.93726349
_cell_angle_beta   80.16401672
_cell_angle_gamma   79.27542114
_symmetry_Int_Tables_number   1
_chemical_formula_structural   In3S4Br
_chemical_formula_sum   'In6 S8 Br2'
_cell_volume   423.38182408
_cell_formula_units_Z   2
loop_
 _symmetry_equiv_pos_site_id
 _symmetry_equiv_pos_as_xyz
  1  'x, y, z'
loop_
 _atom_site_type_symbol
 _atom_site_label
 _atom_site_symmetry_multiplicity
 _atom_site_fract_x
 _atom_site_fract_y
 _atom_site_fract_z
 _atom_site_occupancy
  In  In0  1  0.33617881  0.89404003  0.43360203  1
  In  In1  1  0.66382096  0.10596000  0.56639803  1
  In  In2  1  0.70658885  0.68087702  0.90594505  1
  In  In3  1  0.04823386  0.68799602  0.21553601  1
  In  In4  1  0.95176591  0.31200401  0.78446404  1
  In  In5  1  0.29341093  0.31912301  0.09405501  1
  S  S6  1  0.31926489  0.49156802  0.86990204  1
  S  S7  1  0.89609394  0.18513301  0.02267901  1
  S  S8  1  0.78829697  0.07287400  0.35053202  1
  S  S9  1  0.46556982  0.85458703  0.21427302  1
  S  S10  1  0.21170281  0.92712603  0.64946803  1
  S  S11  1  0.53442996  0.14541301  0.78572704  1
  S  S12  1  0.68073488  0.50843202  0.13009802  1
  S  S13  1  0.10390583  0.81486703  0.97732104  1
  Br  Br14  1  0.10235693  0.32246001  0.47282602  1
  Br  Br15  1  0.89764284  0.67754002  0.52717403  1
