# generated using pymatgen
data_Cs3Te3I2
_symmetry_space_group_name_H-M   'P 1'
_cell_length_a   7.55911493
_cell_length_b   7.78656721
_cell_length_c   13.49537563
_cell_angle_alpha   90.00000000
_cell_angle_beta   90.00000000
_cell_angle_gamma   90.00000000
_symmetry_Int_Tables_number   1
_chemical_formula_structural   Cs3Te3I2
_chemical_formula_sum   'Cs6 Te6 I4'
_cell_volume   794.33182434
_cell_formula_units_Z   2
loop_
 _symmetry_equiv_pos_site_id
 _symmetry_equiv_pos_as_xyz
  1  'x, y, z'
loop_
 _atom_site_type_symbol
 _atom_site_label
 _atom_site_symmetry_multiplicity
 _atom_site_fract_x
 _atom_site_fract_y
 _atom_site_fract_z
 _atom_site_occupancy
  Cs  Cs0  1  0.59283501  0.89456698  0.58342002  1
  Cs  Cs1  1  0.82594301  0.33646499  0.71681902  1
  Cs  Cs2  1  0.40716500  0.39456699  0.91658002  1
  Cs  Cs3  1  0.32594300  0.16353500  0.28318101  1
  Cs  Cs4  1  0.09283500  0.60543298  0.41658001  1
  Cs  Cs5  1  0.90716501  0.10543300  0.08342000  1
  I  I6  1  0.17405700  0.83646498  0.78318102  1
  Te  Te7  1  0.67405701  0.66353498  0.21681901  1
  Te  Te8  1  0.58925201  0.43401899  0.46949801  1
  Te  Te9  1  0.08925200  0.06598100  0.53050201  1
  Te  Te10  1  0.67598901  0.82403698  0.88701202  1
  Te  Te11  1  0.41074800  0.93401897  0.03050200  1
  I  I12  1  0.32401100  0.32403699  0.61298802  1
  Te  Te13  1  0.82401101  0.17596300  0.38701201  1
  I  I14  1  0.91074801  0.56598098  0.96949803  1
  I  I15  1  0.17598900  0.67596298  0.11298800  1
