# generated using pymatgen
data_SrCa3CeTc2O10F
_symmetry_space_group_name_H-M   'P 1'
_cell_length_a   7.38755846
_cell_length_b   7.38755846
_cell_length_c   7.69930553
_cell_angle_alpha   100.08712769
_cell_angle_beta   114.21250153
_cell_angle_gamma   112.95666504
_symmetry_Int_Tables_number   1
_chemical_formula_structural   SrCa3CeTc2O10F
_chemical_formula_sum   'Sr1 Ca3 Ce1 Tc2 O10 F1'
_cell_volume   323.56938808
_cell_formula_units_Z   1
loop_
 _symmetry_equiv_pos_site_id
 _symmetry_equiv_pos_as_xyz
  1  'x, y, z'
loop_
 _atom_site_type_symbol
 _atom_site_label
 _atom_site_symmetry_multiplicity
 _atom_site_fract_x
 _atom_site_fract_y
 _atom_site_fract_z
 _atom_site_occupancy
  Ca  Ca0  1  0.40686100  0.65686101  0.75000003  1
  Sr  Sr1  1  0.59313901  0.34313900  0.25000004  1
  Ca  Ca2  1  0.99484902  0.15784600  0.20709305  1
  Ca  Ca3  1  0.54924701  0.21224400  0.70709302  1
  Tc  Tc4  1  0.45075300  0.78775601  0.29290704  1
  Ce  Ce5  1  0.00515099  0.84215401  0.79290702  1
  Tc  Tc6  1  0.66177802  0.07756700  0.41821003  1
  O  O7  1  0.40934601  0.28743800  0.49567002  1
  O  O8  1  0.94074002  0.58439101  0.63385305  1
  O  O9  1  0.45053801  0.30688700  0.86614702  1
  O  O10  1  0.84064301  0.75643201  0.91821005  1
  O  O11  1  0.70823202  0.08632400  0.99567002  1
  O  O12  1  0.29176799  0.91367601  0.00433005  1
  O  O13  1  0.15935700  0.24356800  0.08179001  1
  O  O14  1  0.54946200  0.69311301  0.13385305  1
  O  O15  1  0.05926000  0.41560900  0.36614701  1
  O  O16  1  0.59065401  0.71256201  0.50433004  1
  F  F17  1  0.33822200  0.92243301  0.58179004  1
