# generated using pymatgen
data_GeP
_symmetry_space_group_name_H-M   'P 1'
_cell_length_a   3.68331599
_cell_length_b   7.97471333
_cell_length_c   9.39562511
_cell_angle_alpha   102.13937378
_cell_angle_beta   90.00000000
_cell_angle_gamma   103.35225677
_symmetry_Int_Tables_number   1
_chemical_formula_structural   GeP
_chemical_formula_sum   'Ge6 P6'
_cell_volume   262.17442987
_cell_formula_units_Z   6
loop_
 _symmetry_equiv_pos_site_id
 _symmetry_equiv_pos_as_xyz
  1  'x, y, z'
loop_
 _atom_site_type_symbol
 _atom_site_label
 _atom_site_symmetry_multiplicity
 _atom_site_fract_x
 _atom_site_fract_y
 _atom_site_fract_z
 _atom_site_occupancy
  Ge  Ge0  1  0.62701401  0.25402800  0.92621101  1
  Ge  Ge1  1  0.37298604  0.74597199  0.07378899  1
  Ge  Ge2  1  0.74661103  0.49322199  0.78719001  1
  Ge  Ge3  1  0.25338903  0.50677799  0.21281000  1
  Ge  Ge4  1  0.07045301  0.14090600  0.59355901  1
  Ge  Ge5  1  0.92954705  0.85909399  0.40644100  1
  P  P6  1  0.03570100  0.07140200  0.83256301  1
  P  P7  1  0.96429905  0.92859799  0.16743699  1
  P  P8  1  0.34507104  0.69014199  0.81609201  1
  P  P9  1  0.65492902  0.30985800  0.18390800  1
  P  P10  1  0.65836002  0.31672000  0.54888801  1
  P  P11  1  0.34164004  0.68327999  0.45111200  1
