# generated using pymatgen
data_CaCdO
_symmetry_space_group_name_H-M   'P 1'
_cell_length_a   3.68882394
_cell_length_b   5.11162519
_cell_length_c   5.40353203
_cell_angle_alpha   90.00000000
_cell_angle_beta   90.00000000
_cell_angle_gamma   90.00000000
_symmetry_Int_Tables_number   1
_chemical_formula_structural   CaCdO
_chemical_formula_sum   'Ca2 Cd2 O2'
_cell_volume   101.88838058
_cell_formula_units_Z   2
loop_
 _symmetry_equiv_pos_site_id
 _symmetry_equiv_pos_as_xyz
  1  'x, y, z'
loop_
 _atom_site_type_symbol
 _atom_site_label
 _atom_site_symmetry_multiplicity
 _atom_site_fract_x
 _atom_site_fract_y
 _atom_site_fract_z
 _atom_site_occupancy
  Ca  Ca0  1  0.50000001  0.82496197  0.20365400  1
  Ca  Ca1  1  0.00000000  0.32496199  0.29634600  1
  Cd  Cd2  1  0.00000000  0.67503797  0.70365400  1
  Cd  Cd3  1  0.50000001  0.17503799  0.79634600  1
  O  O4  1  0.00000000  0.00000000  0.00000000  1
  O  O5  1  0.50000001  0.49999998  0.50000000  1
