# generated using pymatgen
data_SbTe4MoSe4(SO)3
_symmetry_space_group_name_H-M   'P 1'
_cell_length_a   7.40830421
_cell_length_b   8.70003700
_cell_length_c   8.80284214
_cell_angle_alpha   64.19086456
_cell_angle_beta   76.73452759
_cell_angle_gamma   67.88175201
_symmetry_Int_Tables_number   1
_chemical_formula_structural   SbTe4MoSe4(SO)3
_chemical_formula_sum   'Sb1 Te4 Mo1 Se4 S3 O3'
_cell_volume   471.71889388
_cell_formula_units_Z   1
loop_
 _symmetry_equiv_pos_site_id
 _symmetry_equiv_pos_as_xyz
  1  'x, y, z'
loop_
 _atom_site_type_symbol
 _atom_site_label
 _atom_site_symmetry_multiplicity
 _atom_site_fract_x
 _atom_site_fract_y
 _atom_site_fract_z
 _atom_site_occupancy
  Sb  Sb0  1  0.91799793  0.56617304  0.62645603  1
  Te  Te1  1  0.08200197  0.43382703  0.37354400  1
  Mo  Mo2  1  0.28516398  0.21449502  0.72188102  1
  Te  Te3  1  0.71483593  0.78550506  0.27811901  1
  Te  Te4  1  0.13159997  0.37006803  0.59953401  1
  Se  Se5  1  0.86839993  0.62993205  0.40046602  1
  Se  Se6  1  0.56194897  0.18464401  0.62465103  1
  Se  Se7  1  0.73046993  0.75301206  0.06429200  1
  S  S8  1  0.99596795  0.24073702  0.34509503  1
  Se  Se9  1  0.73848197  0.03071800  0.20323903  1
  O  O10  1  0.00403196  0.75926306  0.65490500  1
  Te  Te11  1  0.26151793  0.96928208  0.79676100  1
  S  S12  1  0.26952998  0.24698802  0.93570802  1
  S  S13  1  0.43805094  0.81535606  0.37534900  1
  O  O14  1  0.30691396  0.50932604  0.18820300  1
  O  O15  1  0.69308595  0.49067404  0.81179703  1
