# generated using pymatgen
data_NaSrHWO3
_symmetry_space_group_name_H-M   'P 1'
_cell_length_a   3.90654206
_cell_length_b   3.90654206
_cell_length_c   6.73534298
_cell_angle_alpha   106.85814667
_cell_angle_beta   106.85814667
_cell_angle_gamma   90.00000000
_symmetry_Int_Tables_number   1
_chemical_formula_structural   NaSrHWO3
_chemical_formula_sum   'Na1 Sr1 H1 W1 O3'
_cell_volume   93.74610214
_cell_formula_units_Z   1
loop_
 _symmetry_equiv_pos_site_id
 _symmetry_equiv_pos_as_xyz
  1  'x, y, z'
loop_
 _atom_site_type_symbol
 _atom_site_label
 _atom_site_symmetry_multiplicity
 _atom_site_fract_x
 _atom_site_fract_y
 _atom_site_fract_z
 _atom_site_occupancy
  Na  Na0  1  0.64126198  0.64126199  0.28252400  1
  Sr  Sr1  1  0.35732399  0.35732399  0.71464801  1
  W  W2  1  0.00749300  0.00749300  0.01498600  1
  H  H3  1  0.82616598  0.82616598  0.65233200  1
  O  O4  1  0.17194200  0.17194200  0.34388400  1
  O  O5  1  0.99790698  0.49790699  0.99581401  1
  O  O6  1  0.49790698  0.99790698  0.99581401  1
