# generated using pymatgen
data_Li3CaCu2MoPS7
_symmetry_space_group_name_H-M   'P 1'
_cell_length_a   5.78430510
_cell_length_b   6.23957920
_cell_length_c   10.19738960
_cell_angle_alpha   79.85876465
_cell_angle_beta   73.96717834
_cell_angle_gamma   62.53240967
_symmetry_Int_Tables_number   1
_chemical_formula_structural   Li3CaCu2MoPS7
_chemical_formula_sum   'Li3 Ca1 Cu2 Mo1 P1 S7'
_cell_volume   313.33834163
_cell_formula_units_Z   1
loop_
 _symmetry_equiv_pos_site_id
 _symmetry_equiv_pos_as_xyz
  1  'x, y, z'
loop_
 _atom_site_type_symbol
 _atom_site_label
 _atom_site_symmetry_multiplicity
 _atom_site_fract_x
 _atom_site_fract_y
 _atom_site_fract_z
 _atom_site_occupancy
  Li  Li0  1  0.23032201  0.26712299  0.24002798  1
  Ca  Ca1  1  0.50153702  0.48766999  0.50987696  1
  Li  Li2  1  0.99386099  0.01637600  0.99245794  1
  Li  Li3  1  0.86814103  0.88469097  0.35637995  1
  P  P4  1  0.76721902  0.73451498  0.75903594  1
  Cu  Cu5  1  0.14335900  0.11695400  0.62314997  1
  Cu  Cu6  1  0.60975702  0.62911698  0.12955997  1
  Mo  Mo7  1  0.23805704  0.91927697  0.16766596  1
  S  S8  1  0.76733201  0.39640199  0.68122895  1
  S  S9  1  0.31695400  0.03663000  0.78662496  1
  S  S10  1  0.77634502  0.56200098  0.29697396  1
  S  S11  1  0.38037800  0.19652099  0.45200497  1
  S  S12  1  0.88349902  0.69546498  0.96624793  1
  S  S13  1  0.07150404  0.83921998  0.57836195  1
  S  S14  1  0.57673801  0.34303899  0.08539998  1
