# generated using pymatgen
data_K2NaAg2TeS6
_symmetry_space_group_name_H-M   'P 1'
_cell_length_a   4.81933212
_cell_length_b   7.45581913
_cell_length_c   7.92519903
_cell_angle_alpha   90.00000000
_cell_angle_beta   90.00000000
_cell_angle_gamma   90.00000000
_symmetry_Int_Tables_number   1
_chemical_formula_structural   K2NaAg2TeS6
_chemical_formula_sum   'K2 Na1 Ag2 Te1 S6'
_cell_volume   284.76879556
_cell_formula_units_Z   1
loop_
 _symmetry_equiv_pos_site_id
 _symmetry_equiv_pos_as_xyz
  1  'x, y, z'
loop_
 _atom_site_type_symbol
 _atom_site_label
 _atom_site_symmetry_multiplicity
 _atom_site_fract_x
 _atom_site_fract_y
 _atom_site_fract_z
 _atom_site_occupancy
  Na  Na0  1  0.74999998  0.98385898  0.30825600  1
  K  K1  1  0.24999999  0.01614100  0.69174400  1
  K  K2  1  0.24999999  0.51614099  0.80825600  1
  Te  Te3  1  0.74999998  0.48385899  0.19174400  1
  Ag  Ag4  1  0.74999998  0.82615599  0.90742800  1
  Ag  Ag5  1  0.24999999  0.17384400  0.09257200  1
  S  S6  1  0.24999999  0.67384399  0.40742800  1
  S  S7  1  0.74999998  0.32615599  0.59257200  1
  S  S8  1  0.74999998  0.73926999  0.56750300  1
  S  S9  1  0.24999999  0.26073000  0.43249700  1
  S  S10  1  0.24999999  0.76072999  0.06750300  1
  S  S11  1  0.74999998  0.23927000  0.93249700  1
