# generated using pymatgen
data_K2LiAgTeSe2Br
_symmetry_space_group_name_H-M   'P 1'
_cell_length_a   6.99435043
_cell_length_b   6.99435043
_cell_length_c   6.99435043
_cell_angle_alpha   109.47122192
_cell_angle_beta   109.47122192
_cell_angle_gamma   109.47122192
_symmetry_Int_Tables_number   1
_chemical_formula_structural   K2LiAgTeSe2Br
_chemical_formula_sum   'K2 Li1 Ag1 Te1 Se2 Br1'
_cell_volume   263.40271772
_cell_formula_units_Z   1
loop_
 _symmetry_equiv_pos_site_id
 _symmetry_equiv_pos_as_xyz
  1  'x, y, z'
loop_
 _atom_site_type_symbol
 _atom_site_label
 _atom_site_symmetry_multiplicity
 _atom_site_fract_x
 _atom_site_fract_y
 _atom_site_fract_z
 _atom_site_occupancy
  Li  Li0  1  0.00000000  0.00000000  0.00000000  1
  K  K1  1  0.00000003  0.50000001  0.50000001  1
  K  K2  1  0.50000002  0.50000001  0.00000004  1
  Ag  Ag3  1  0.49999999  0.00000000  0.50000000  1
  Te  Te4  1  0.34665506  1.00000001  1.00000004  1
  Se  Se5  1  0.00000000  0.00000000  0.34665499  1
  Br  Br6  1  0.00000002  0.34665500  0.00000002  1
  Se  Se7  1  0.65334503  0.65334501  0.65334503  1
