# generated using pymatgen
data_RbSrTeF5
_symmetry_space_group_name_H-M   'P 1'
_cell_length_a   3.94971299
_cell_length_b   3.94971299
_cell_length_c   9.06750488
_cell_angle_alpha   90.00000000
_cell_angle_beta   90.00000000
_cell_angle_gamma   90.00000000
_symmetry_Int_Tables_number   1
_chemical_formula_structural   RbSrTeF5
_chemical_formula_sum   'Rb1 Sr1 Te1 F5'
_cell_volume   141.45518633
_cell_formula_units_Z   1
loop_
 _symmetry_equiv_pos_site_id
 _symmetry_equiv_pos_as_xyz
  1  'x, y, z'
loop_
 _atom_site_type_symbol
 _atom_site_label
 _atom_site_symmetry_multiplicity
 _atom_site_fract_x
 _atom_site_fract_y
 _atom_site_fract_z
 _atom_site_occupancy
  Sr  Sr0  1  0.00000000  0.00000000  0.50000001  1
  Rb  Rb1  1  0.50000000  0.50000000  0.50000001  1
  Te  Te2  1  0.00000000  0.50000000  0.86017901  1
  F  F3  1  0.50000000  0.00000000  0.13982100  1
  F  F4  1  0.50000000  0.00000000  0.67282401  1
  F  F5  1  0.00000000  0.50000000  0.32717600  1
  F  F6  1  0.50000000  0.50000000  0.00000000  1
  F  F7  1  0.00000000  0.00000000  0.00000000  1
