# generated using pymatgen
data_Li2NdO6
_symmetry_space_group_name_H-M   'P 1'
_cell_length_a   4.41025400
_cell_length_b   4.41025305
_cell_length_c   6.37054920
_cell_angle_alpha   90.00000000
_cell_angle_beta   90.00000000
_cell_angle_gamma   120.00000763
_symmetry_Int_Tables_number   1
_chemical_formula_structural   Li2NdO6
_chemical_formula_sum   'Li2 Nd1 O6'
_cell_volume   107.30861363
_cell_formula_units_Z   1
loop_
 _symmetry_equiv_pos_site_id
 _symmetry_equiv_pos_as_xyz
  1  'x, y, z'
loop_
 _atom_site_type_symbol
 _atom_site_label
 _atom_site_symmetry_multiplicity
 _atom_site_fract_x
 _atom_site_fract_y
 _atom_site_fract_z
 _atom_site_occupancy
  Li  Li0  1  1.00000001  0.50000001  0.66666665  1
  Nd  Nd1  1  0.50000000  0.00000000  0.33333332  1
  Li  Li2  1  0.50000001  0.50000001  0.99999997  1
  O  O3  1  0.16616302  0.83383702  -0.00000000  1
  O  O4  1  0.83383701  0.66767402  0.33333332  1
  O  O5  1  0.33232600  0.16616300  0.66666665  1
  O  O6  1  0.83383700  0.16616300  -0.00000000  1
  O  O7  1  0.16616301  0.33232601  0.33333332  1
  O  O8  1  0.66767402  0.83383702  0.66666665  1
