# generated using pymatgen
data_KBiSbSI
_symmetry_space_group_name_H-M   'P 1'
_cell_length_a   5.88600111
_cell_length_b   5.88600111
_cell_length_c   5.88600111
_cell_angle_alpha   90.00000000
_cell_angle_beta   90.00000000
_cell_angle_gamma   90.00000000
_symmetry_Int_Tables_number   1
_chemical_formula_structural   KBiSbSI
_chemical_formula_sum   'K1 Bi1 Sb1 S1 I1'
_cell_volume   203.92056183
_cell_formula_units_Z   1
loop_
 _symmetry_equiv_pos_site_id
 _symmetry_equiv_pos_as_xyz
  1  'x, y, z'
loop_
 _atom_site_type_symbol
 _atom_site_label
 _atom_site_symmetry_multiplicity
 _atom_site_fract_x
 _atom_site_fract_y
 _atom_site_fract_z
 _atom_site_occupancy
  K  K0  1  0.00000000  0.00000000  0.00000000  1
  Bi  Bi1  1  0.49999999  0.49999999  0.49999999  1
  I  I2  1  0.49999999  0.00000000  0.49999999  1
  Sb  Sb3  1  0.49999999  0.49999999  -0.00000000  1
  S  S4  1  0.00000000  0.49999999  0.49999999  1
