# generated using pymatgen
data_Li5VFeO11
_symmetry_space_group_name_H-M   'P 1'
_cell_length_a   5.20005512
_cell_length_b   5.23021793
_cell_length_c   7.63901663
_cell_angle_alpha   90.00000000
_cell_angle_beta   89.65503693
_cell_angle_gamma   90.00000000
_symmetry_Int_Tables_number   1
_chemical_formula_structural   Li5VFeO11
_chemical_formula_sum   'Li5 V1 Fe1 O11'
_cell_volume   207.75778992
_cell_formula_units_Z   1
loop_
 _symmetry_equiv_pos_site_id
 _symmetry_equiv_pos_as_xyz
  1  'x, y, z'
loop_
 _atom_site_type_symbol
 _atom_site_label
 _atom_site_symmetry_multiplicity
 _atom_site_fract_x
 _atom_site_fract_y
 _atom_site_fract_z
 _atom_site_occupancy
  Li  Li0  1  0.99825298  0.23831100  0.49740796  1
  Li  Li1  1  0.49192299  0.29343700  0.22536298  1
  Li  Li2  1  0.49825299  0.76168901  0.99740797  1
  Li  Li3  1  0.99192298  0.70656301  0.72536296  1
  Li  Li4  1  0.00117000  0.25001500  0.00058800  1
  Fe  Fe5  1  0.50116999  0.74998501  0.50058798  1
  O  O6  1  0.12762500  0.19171700  0.23206499  1
  V  V7  1  0.14106600  0.94230501  0.92582698  1
  O  O8  1  0.18508500  0.92540701  0.55905498  1
  O  O9  1  0.30580799  0.43485901  0.96009697  1
  O  O10  1  0.32644399  0.46381201  0.56790198  1
  O  O11  1  0.40782899  0.67144201  0.26698798  1
  O  O12  1  0.62762499  0.80828301  0.73206497  1
  O  O13  1  0.64106599  0.05769500  0.42582698  1
  O  O14  1  0.68508498  0.07459300  0.05905498  1
  O  O15  1  0.80580798  0.56514101  0.46009697  1
  O  O16  1  0.82644398  0.53618801  0.06790198  1
  O  O17  1  0.90782898  0.32855800  0.76698796  1
