# generated using pymatgen
data_SiBH3O7
_symmetry_space_group_name_H-M   'P 1'
_cell_length_a   4.75012589
_cell_length_b   4.75012589
_cell_length_c   6.58336496
_cell_angle_alpha   90.00000000
_cell_angle_beta   90.00000000
_cell_angle_gamma   89.90525818
_symmetry_Int_Tables_number   1
_chemical_formula_structural   SiBH3O7
_chemical_formula_sum   'Si1 B1 H3 O7'
_cell_volume   148.54484211
_cell_formula_units_Z   1
loop_
 _symmetry_equiv_pos_site_id
 _symmetry_equiv_pos_as_xyz
  1  'x, y, z'
loop_
 _atom_site_type_symbol
 _atom_site_label
 _atom_site_symmetry_multiplicity
 _atom_site_fract_x
 _atom_site_fract_y
 _atom_site_fract_z
 _atom_site_occupancy
  H  H0  1  0.33333332  0.66666665  0.54170900  1
  Si  Si1  1  0.33333332  0.66666665  0.95829101  1
  H  H2  1  0.66666665  0.33333333  0.04170900  1
  B  B3  1  0.66666665  0.33333333  0.45829100  1
  H  H4  1  0.35242898  0.64757099  0.25000000  1
  O  O5  1  0.64757098  0.35242899  0.75000000  1
  O  O6  1  0.54095098  0.45904899  0.25000000  1
  O  O7  1  0.45904898  0.54095099  0.75000000  1
  O  O8  1  0.24453399  0.75546598  0.41616100  1
  O  O9  1  0.24453399  0.75546598  0.08383900  1
  O  O10  1  0.75546598  0.24453399  0.91616101  1
  O  O11  1  0.75546598  0.24453399  0.58383900  1
