# generated using pymatgen
data_Li3Nb(SiO4)2
_symmetry_space_group_name_H-M   'P 1'
_cell_length_a   5.20264530
_cell_length_b   5.20290041
_cell_length_c   6.30451393
_cell_angle_alpha   89.91178131
_cell_angle_beta   89.90409851
_cell_angle_gamma   66.72254181
_symmetry_Int_Tables_number   1
_chemical_formula_structural   Li3Nb(SiO4)2
_chemical_formula_sum   'Li3 Nb1 Si2 O8'
_cell_volume   156.76455945
_cell_formula_units_Z   1
loop_
 _symmetry_equiv_pos_site_id
 _symmetry_equiv_pos_as_xyz
  1  'x, y, z'
loop_
 _atom_site_type_symbol
 _atom_site_label
 _atom_site_symmetry_multiplicity
 _atom_site_fract_x
 _atom_site_fract_y
 _atom_site_fract_z
 _atom_site_occupancy
  Li  Li0  1  0.66283595  0.66282204  0.24996400  1
  Nb  Nb1  1  0.33716398  0.33717902  0.75003601  1
  Li  Li2  1  0.35287497  0.35290202  0.24973900  1
  Li  Li3  1  0.64712295  0.64709704  0.75026101  1
  Si  Si4  1  0.00000000  0.00000000  0.49999901  1
  Si  Si5  1  0.00000000  0.00000000  0.00000000  1
  O  O6  1  0.76151995  0.76148104  0.97146301  1
  O  O7  1  0.76211495  0.76203404  0.52791101  1
  O  O8  1  0.23788598  0.23796701  0.47208701  1
  O  O9  1  0.23847998  0.23852001  0.02853700  1
  O  O10  1  0.27525896  0.76435804  0.75072204  1
  O  O11  1  0.23553797  0.72483504  0.24925703  1
  O  O12  1  0.76446096  0.27516502  0.75074298  1
  O  O13  1  0.72474196  0.23564101  0.24927798  1
