# generated using pymatgen
data_CsKRbAuCl6
_symmetry_space_group_name_H-M   'P 1'
_cell_length_a   7.35034657
_cell_length_b   7.35034657
_cell_length_c   7.35034657
_cell_angle_alpha   60.00000000
_cell_angle_beta   60.00000000
_cell_angle_gamma   60.00000000
_symmetry_Int_Tables_number   1
_chemical_formula_structural   CsKRbAuCl6
_chemical_formula_sum   'Cs1 K1 Rb1 Au1 Cl6'
_cell_volume   280.80733715
_cell_formula_units_Z   1
loop_
 _symmetry_equiv_pos_site_id
 _symmetry_equiv_pos_as_xyz
  1  'x, y, z'
loop_
 _atom_site_type_symbol
 _atom_site_label
 _atom_site_symmetry_multiplicity
 _atom_site_fract_x
 _atom_site_fract_y
 _atom_site_fract_z
 _atom_site_occupancy
  K  K0  1  0.25000000  0.25000000  0.25000000  1
  Cs  Cs1  1  0.75000001  0.75000001  0.75000001  1
  Rb  Rb2  1  0.00000000  0.00000000  0.00000000  1
  Au  Au3  1  0.50000001  0.50000001  0.50000001  1
  Cl  Cl4  1  0.25621301  0.74378701  0.25621301  1
  Cl  Cl5  1  0.25621301  0.25621301  0.74378701  1
  Cl  Cl6  1  0.74378701  0.25621301  0.74378701  1
  Cl  Cl7  1  0.25621301  0.74378701  0.74378701  1
  Cl  Cl8  1  0.74378701  0.25621301  0.25621301  1
  Cl  Cl9  1  0.74378701  0.74378701  0.25621301  1
