# generated using pymatgen
data_Zn2SeS2
_symmetry_space_group_name_H-M   'P 1'
_cell_length_a   4.08587074
_cell_length_b   4.08587074
_cell_length_c   16.90742683
_cell_angle_alpha   83.05995178
_cell_angle_beta   83.05995178
_cell_angle_gamma   60.00000000
_symmetry_Int_Tables_number   1
_chemical_formula_structural   Zn2SeS2
_chemical_formula_sum   'Zn4 Se2 S4'
_cell_volume   242.05193453
_cell_formula_units_Z   2
loop_
 _symmetry_equiv_pos_site_id
 _symmetry_equiv_pos_as_xyz
  1  'x, y, z'
loop_
 _atom_site_type_symbol
 _atom_site_label
 _atom_site_symmetry_multiplicity
 _atom_site_fract_x
 _atom_site_fract_y
 _atom_site_fract_z
 _atom_site_occupancy
  Zn  Zn0  1  0.00008500  0.00008600  0.99974398  1
  Zn  Zn1  1  0.40140102  0.40140101  0.79579697  1
  Zn  Zn2  1  0.80057504  0.80057503  0.59827496  1
  Zn  Zn3  1  0.20005101  0.20005201  0.39984599  1
  Se  Se4  1  0.59913103  0.59913002  0.20260798  1
  S  S5  1  0.05204400  0.05204300  0.84386898  1
  Se  Se6  1  0.45100702  0.45100602  0.64697997  1
  S  S7  1  0.85037204  0.85037303  0.44888297  1
  S  S8  1  0.24986201  0.24986301  0.25041299  1
  S  S9  1  0.64547203  0.64547202  0.06358398  1
