# generated using pymatgen
data_CsBaNdO6
_symmetry_space_group_name_H-M   'P 1'
_cell_length_a   5.14377308
_cell_length_b   6.52228594
_cell_length_c   6.52228642
_cell_angle_alpha   60.00000381
_cell_angle_beta   90.00000000
_cell_angle_gamma   90.00000000
_symmetry_Int_Tables_number   1
_chemical_formula_structural   CsBaNdO6
_chemical_formula_sum   'Cs1 Ba1 Nd1 O6'
_cell_volume   189.50128104
_cell_formula_units_Z   1
loop_
 _symmetry_equiv_pos_site_id
 _symmetry_equiv_pos_as_xyz
  1  'x, y, z'
loop_
 _atom_site_type_symbol
 _atom_site_label
 _atom_site_symmetry_multiplicity
 _atom_site_fract_x
 _atom_site_fract_y
 _atom_site_fract_z
 _atom_site_occupancy
  Cs  Cs0  1  0.69147499  0.66666667  0.66666669  1
  Ba  Ba1  1  0.30852500  0.33333333  0.33333335  1
  Nd  Nd2  1  0.00000000  0.00000000  0.00000000  1
  O  O3  1  0.21961300  0.84867000  0.30266002  1
  O  O4  1  0.21961300  0.30266000  0.84867002  1
  O  O5  1  0.21961300  0.84867000  0.84867004  1
  O  O6  1  0.78038699  0.15133000  0.69734002  1
  O  O7  1  0.78038699  0.69734000  0.15133002  1
  O  O8  1  0.78038699  0.15133000  0.15133001  1
