# generated using pymatgen
data_NaLiBCO6
_symmetry_space_group_name_H-M   'P 1'
_cell_length_a   3.66378999
_cell_length_b   7.81135273
_cell_length_c   9.45658588
_cell_angle_alpha   90.00000000
_cell_angle_beta   90.00000000
_cell_angle_gamma   94.57113647
_symmetry_Int_Tables_number   1
_chemical_formula_structural   NaLiBCO6
_chemical_formula_sum   'Na2 Li2 B2 C2 O12'
_cell_volume   269.77864311
_cell_formula_units_Z   2
loop_
 _symmetry_equiv_pos_site_id
 _symmetry_equiv_pos_as_xyz
  1  'x, y, z'
loop_
 _atom_site_type_symbol
 _atom_site_label
 _atom_site_symmetry_multiplicity
 _atom_site_fract_x
 _atom_site_fract_y
 _atom_site_fract_z
 _atom_site_occupancy
  Li  Li0  1  0.78579398  0.21363400  0.50348901  1
  Na  Na1  1  0.71420597  0.28636600  0.00348900  1
  Na  Na2  1  0.21420592  0.78636600  0.49651101  1
  Li  Li3  1  0.28579392  0.71363400  0.99651101  1
  B  B4  1  0.21133295  0.42786300  0.73513101  1
  B  B5  1  0.28866699  0.07213700  0.23513100  1
  C  C6  1  0.78866694  0.57213700  0.26486900  1
  C  C7  1  0.71133290  0.92786300  0.76486901  1
  O  O8  1  0.23922795  0.42761100  0.86959601  1
  O  O9  1  0.26077199  0.07238900  0.36959600  1
  O  O10  1  0.76077194  0.57238900  0.13040400  1
  O  O11  1  0.73922790  0.92761100  0.63040401  1
  O  O12  1  0.29863797  0.30193300  0.65711701  1
  O  O13  1  0.20136198  0.19806700  0.15711700  1
  O  O14  1  0.70136193  0.69806700  0.34288300  1
  O  O15  1  0.79863792  0.80193300  0.84288301  1
  O  O16  1  0.08424194  0.55280200  0.66732401  1
  O  O17  1  0.41575790  0.94719800  0.16732400  1
  O  O18  1  0.91575795  0.44719800  0.33267600  1
  O  O19  1  0.58424200  0.05280200  0.83267601  1
