# generated using pymatgen
data_NaLi2SN3O
_symmetry_space_group_name_H-M   'P 1'
_cell_length_a   5.41912365
_cell_length_b   5.41912365
_cell_length_c   5.41912365
_cell_angle_alpha   60.00000000
_cell_angle_beta   60.00000000
_cell_angle_gamma   60.00000000
_symmetry_Int_Tables_number   1
_chemical_formula_structural   NaLi2SN3O
_chemical_formula_sum   'Na1 Li2 S1 N3 O1'
_cell_volume   112.53100144
_cell_formula_units_Z   1
loop_
 _symmetry_equiv_pos_site_id
 _symmetry_equiv_pos_as_xyz
  1  'x, y, z'
loop_
 _atom_site_type_symbol
 _atom_site_label
 _atom_site_symmetry_multiplicity
 _atom_site_fract_x
 _atom_site_fract_y
 _atom_site_fract_z
 _atom_site_occupancy
  Li  Li0  1  0.49999999  0.49999999  0.49999999  1
  Li  Li1  1  0.00000000  0.00000000  0.00000000  1
  Na  Na2  1  0.74905398  0.74905398  0.25094599  1
  S  S3  1  0.25094599  0.25094599  0.74905398  1
  N  N4  1  0.74905398  0.25094599  0.25094599  1
  N  N5  1  0.25094599  0.74905398  0.25094599  1
  N  N6  1  0.74905398  0.25094599  0.74905398  1
  O  O7  1  0.25094599  0.74905398  0.74905398  1
