# generated using pymatgen
data_Li6VO11
_symmetry_space_group_name_H-M   'P 1'
_cell_length_a   5.01533842
_cell_length_b   5.02192402
_cell_length_c   9.14980030
_cell_angle_alpha   92.40569305
_cell_angle_beta   91.20200348
_cell_angle_gamma   111.68548584
_symmetry_Int_Tables_number   1
_chemical_formula_structural   Li6VO11
_chemical_formula_sum   'Li6 V1 O11'
_cell_volume   213.78875329
_cell_formula_units_Z   1
loop_
 _symmetry_equiv_pos_site_id
 _symmetry_equiv_pos_as_xyz
  1  'x, y, z'
loop_
 _atom_site_type_symbol
 _atom_site_label
 _atom_site_symmetry_multiplicity
 _atom_site_fract_x
 _atom_site_fract_y
 _atom_site_fract_z
 _atom_site_occupancy
  Li  Li0  1  0.57020005  0.93526802  0.76020804  1
  Li  Li1  1  0.07401801  0.43239401  0.23823001  1
  Li  Li2  1  0.92520805  0.55332601  0.73973805  1
  Li  Li3  1  0.44689602  0.07149500  0.26210702  1
  Li  Li4  1  0.50113703  0.49983201  0.50016903  1
  Li  Li5  1  0.00331102  0.99274402  0.00055401  1
  O  O6  1  0.70741804  0.69069702  0.88042805  1
  V  V7  1  0.20290901  0.21354600  0.38948302  1
  O  O8  1  0.78554205  0.79962702  0.61089804  1
  O  O9  1  0.31718502  0.28511901  0.11988301  1
  O  O10  1  0.89635104  0.22497500  0.85744505  1
  O  O11  1  0.41162203  0.75140402  0.35729703  1
  O  O12  1  0.25321603  0.91114802  0.86272104  1
  O  O13  1  0.74003504  0.39219401  0.35851403  1
  O  O14  1  0.60386603  0.26308101  0.64105503  1
  O  O15  1  0.09451502  0.74031802  0.14052001  1
  O  O16  1  0.24574302  0.59148401  0.64234203  1
  O  O17  1  0.77832403  0.09385100  0.13840803  1
