# generated using pymatgen
data_NaSr4La2BiO12
_symmetry_space_group_name_H-M   'P 1'
_cell_length_a   5.97353172
_cell_length_b   6.01238441
_cell_length_c   8.46232510
_cell_angle_alpha   89.97273254
_cell_angle_beta   90.07562256
_cell_angle_gamma   89.95777130
_symmetry_Int_Tables_number   1
_chemical_formula_structural   NaSr4La2BiO12
_chemical_formula_sum   'Na1 Sr4 La2 Bi1 O12'
_cell_volume   303.92545440
_cell_formula_units_Z   1
loop_
 _symmetry_equiv_pos_site_id
 _symmetry_equiv_pos_as_xyz
  1  'x, y, z'
loop_
 _atom_site_type_symbol
 _atom_site_label
 _atom_site_symmetry_multiplicity
 _atom_site_fract_x
 _atom_site_fract_y
 _atom_site_fract_z
 _atom_site_occupancy
  Sr  Sr0  1  0.99345599  0.52219699  0.75024702  1
  Sr  Sr1  1  0.50899699  0.03403100  0.74969099  1
  Sr  Sr2  1  0.00680001  0.46436899  0.24978601  1
  Sr  Sr3  1  0.49551400  0.96932398  0.25067504  1
  La  La4  1  0.50049300  0.50030299  0.00277603  1
  Na  Na5  1  0.99971099  0.99833398  0.49778305  1
  La  La6  1  0.50024200  0.50055399  0.49687202  1
  Bi  Bi7  1  0.99965999  0.99866998  0.00274207  1
  O  O8  1  0.21689600  0.71094699  0.45350901  1
  O  O9  1  0.71336000  0.79257998  0.96000701  1
  O  O10  1  0.77541499  0.27989199  0.53122802  1
  O  O11  1  0.27948800  0.21399900  0.04426501  1
  O  O12  1  0.28789200  0.21857300  0.45542200  1
  O  O13  1  0.78287299  0.27664299  0.96724100  1
  O  O14  1  0.70317100  0.78861798  0.53978603  1
  O  O15  1  0.20817700  0.71545899  0.04701803  1
  O  O16  1  0.44207400  0.47551299  0.74639600  1
  O  O17  1  0.91892498  0.02157400  0.24749102  1
  O  O18  1  0.58476000  0.52623199  0.25275703  1
  O  O19  1  0.08210001  0.99218798  0.75431001  1
