# generated using pymatgen
data_Na3SrNd2O8
_symmetry_space_group_name_H-M   'P 1'
_cell_length_a   3.59190989
_cell_length_b   6.05333185
_cell_length_c   11.05594158
_cell_angle_alpha   90.00000000
_cell_angle_beta   90.00000000
_cell_angle_gamma   107.25882721
_symmetry_Int_Tables_number   1
_chemical_formula_structural   Na3SrNd2O8
_chemical_formula_sum   'Na3 Sr1 Nd2 O8'
_cell_volume   229.56586457
_cell_formula_units_Z   1
loop_
 _symmetry_equiv_pos_site_id
 _symmetry_equiv_pos_as_xyz
  1  'x, y, z'
loop_
 _atom_site_type_symbol
 _atom_site_label
 _atom_site_symmetry_multiplicity
 _atom_site_fract_x
 _atom_site_fract_y
 _atom_site_fract_z
 _atom_site_occupancy
  Na  Na0  1  0.10805201  0.21610400  0.75000003  1
  Sr  Sr1  1  0.89194807  0.78389600  0.25000001  1
  Na  Na2  1  0.36375105  0.72750200  0.56796802  1
  Na  Na3  1  0.36375105  0.72750200  0.93203204  1
  Nd  Nd4  1  0.63624903  0.27249800  0.43203202  1
  Nd  Nd5  1  0.63624903  0.27249800  0.06796800  1
  O  O6  1  0.00000000  0.00000000  0.00000000  1
  O  O7  1  0.00000000  0.00000000  0.50000002  1
  O  O8  1  0.43952806  0.87905600  0.75000003  1
  O  O9  1  0.27046404  0.54092800  0.39316501  1
  O  O10  1  0.27046404  0.54092800  0.10683500  1
  O  O11  1  0.56047202  0.12094400  0.25000001  1
  O  O12  1  0.72953605  0.45907200  0.60683502  1
  O  O13  1  0.72953605  0.45907200  0.89316503  1
