# generated using pymatgen
data_YAg4Se4S
_symmetry_space_group_name_H-M   'P 1'
_cell_length_a   7.32362986
_cell_length_b   7.32363081
_cell_length_c   8.34981441
_cell_angle_alpha   63.98855972
_cell_angle_beta   63.98856354
_cell_angle_gamma   59.99999619
_symmetry_Int_Tables_number   1
_chemical_formula_structural   YAg4Se4S
_chemical_formula_sum   'Y1 Ag4 Se4 S1'
_cell_volume   334.44106852
_cell_formula_units_Z   1
loop_
 _symmetry_equiv_pos_site_id
 _symmetry_equiv_pos_as_xyz
  1  'x, y, z'
loop_
 _atom_site_type_symbol
 _atom_site_label
 _atom_site_symmetry_multiplicity
 _atom_site_fract_x
 _atom_site_fract_y
 _atom_site_fract_z
 _atom_site_occupancy
  Ag  Ag0  1  0.85401701  0.17061700  0.46509899  1
  Y  Y1  1  0.62949900  0.29616567  0.11150300  1
  Ag  Ag2  1  0.50395000  0.84360002  0.46509897  1
  Ag  Ag3  1  0.17693400  0.52068301  0.46509897  1
  Se  Se4  1  0.98811201  0.28032900  0.11294601  1
  Se  Se5  1  0.78762700  0.45429367  0.63711897  1
  Ag  Ag6  1  0.61366200  0.95194602  0.11294599  1
  Se  Se7  1  0.46036700  0.12703467  0.61889798  1
  S  S8  1  0.28528000  0.65477701  0.11294599  1
  Se  Se9  1  0.11721799  0.78388568  0.64834495  1
