# generated using pymatgen
data_SiH2SN3O2
_symmetry_space_group_name_H-M   'P 1'
_cell_length_a   4.45574570
_cell_length_b   4.45574570
_cell_length_c   6.97543478
_cell_angle_alpha   71.37406158
_cell_angle_beta   71.37406158
_cell_angle_gamma   60.00000763
_symmetry_Int_Tables_number   1
_chemical_formula_structural   SiH2SN3O2
_chemical_formula_sum   'Si1 H2 S1 N3 O2'
_cell_volume   111.47991327
_cell_formula_units_Z   1
loop_
 _symmetry_equiv_pos_site_id
 _symmetry_equiv_pos_as_xyz
  1  'x, y, z'
loop_
 _atom_site_type_symbol
 _atom_site_label
 _atom_site_symmetry_multiplicity
 _atom_site_fract_x
 _atom_site_fract_y
 _atom_site_fract_z
 _atom_site_occupancy
  H  H0  1  0.00000000  0.00000000  0.00000000  1
  Si  Si1  1  0.19631900  0.19631899  0.41104301  1
  S  S2  1  0.80368098  0.80368096  0.58895702  1
  H  H3  1  0.49999999  0.49999998  0.50000001  1
  N  N4  1  0.49999998  0.19055899  0.50000001  1
  N  N5  1  0.80944098  0.49999998  0.50000001  1
  N  N6  1  0.19055900  0.80944096  0.50000001  1
  O  O7  1  0.27567199  0.27567199  0.17298400  1
  O  O8  1  0.72432798  0.72432797  0.82701602  1
