# generated using pymatgen
data_RbCuBiTePb3IO12
_symmetry_space_group_name_H-M   'P 1'
_cell_length_a   6.15761805
_cell_length_b   6.32342482
_cell_length_c   8.69206619
_cell_angle_alpha   90.00000000
_cell_angle_beta   90.00000000
_cell_angle_gamma   90.00000000
_symmetry_Int_Tables_number   1
_chemical_formula_structural   RbCuBiTePb3IO12
_chemical_formula_sum   'Rb1 Cu1 Bi1 Te1 Pb3 I1 O12'
_cell_volume   338.44502188
_cell_formula_units_Z   1
loop_
 _symmetry_equiv_pos_site_id
 _symmetry_equiv_pos_as_xyz
  1  'x, y, z'
loop_
 _atom_site_type_symbol
 _atom_site_label
 _atom_site_symmetry_multiplicity
 _atom_site_fract_x
 _atom_site_fract_y
 _atom_site_fract_z
 _atom_site_occupancy
  Bi  Bi0  1  0.00000000  0.00000000  0.49999999  1
  Rb  Rb1  1  0.50000000  0.50000001  0.49999999  1
  Cu  Cu2  1  0.50000000  0.50000001  0.00000000  1
  Pb  Pb3  1  0.00000000  0.00000000  0.00000000  1
  Pb  Pb4  1  0.50386100  0.92184303  0.74999998  1
  Pb  Pb5  1  0.00386100  0.57815702  0.24999999  1
  I  I6  1  0.99613899  0.42184301  0.74999998  1
  Te  Te7  1  0.49613900  0.07815700  0.24999999  1
  O  O8  1  0.61492500  0.21285201  0.40814299  1
  O  O9  1  0.11492500  0.28714801  0.59185699  1
  O  O10  1  0.88507499  0.71285202  0.09185700  1
  O  O11  1  0.38507500  0.78714802  0.90814298  1
  O  O12  1  0.38507500  0.78714802  0.59185699  1
  O  O13  1  0.88507499  0.71285202  0.40814299  1
  O  O14  1  0.11492500  0.28714801  0.90814298  1
  O  O15  1  0.61492500  0.21285201  0.09185700  1
  O  O16  1  0.23502200  0.15592100  0.24999999  1
  O  O17  1  0.73502199  0.34407901  0.74999998  1
  O  O18  1  0.26497800  0.65592102  0.24999999  1
  O  O19  1  0.76497799  0.84407902  0.74999998  1
