# generated using pymatgen
data_ZnGeTe3Mo2Se5S8
_symmetry_space_group_name_H-M   'P 1'
_cell_length_a   3.92791605
_cell_length_b   3.92791677
_cell_length_c   32.33541107
_cell_angle_alpha   90.00000000
_cell_angle_beta   90.00000000
_cell_angle_gamma   119.99999237
_symmetry_Int_Tables_number   1
_chemical_formula_structural   ZnGeTe3Mo2Se5S8
_chemical_formula_sum   'Zn1 Ge1 Te3 Mo2 Se5 S8'
_cell_volume   432.04951796
_cell_formula_units_Z   1
loop_
 _symmetry_equiv_pos_site_id
 _symmetry_equiv_pos_as_xyz
  1  'x, y, z'
loop_
 _atom_site_type_symbol
 _atom_site_label
 _atom_site_symmetry_multiplicity
 _atom_site_fract_x
 _atom_site_fract_y
 _atom_site_fract_z
 _atom_site_occupancy
  Ge  Ge0  1  0.66666665  0.33333334  0.49847400  1
  Mo  Mo1  1  0.66666665  0.33333334  0.30031500  1
  Zn  Zn2  1  0.66666665  0.33333334  0.10195900  1
  S  S3  1  0.33333332  0.66666667  0.00492800  1
  Mo  Mo4  1  0.33333332  0.66666667  0.79956200  1
  Te  Te5  1  0.33333332  0.66666667  0.59505000  1
  Te  Te6  1  0.33333332  0.66666667  0.39993100  1
  Se  Se7  1  0.33333332  0.66666667  0.20065600  1
  Se  Se8  1  0.66666665  0.33333334  0.90363500  1
  S  S9  1  0.66666665  0.33333334  0.70005100  1
  Se  Se10  1  0.66666665  0.33333334  0.98168700  1
  Se  Se11  1  0.66666665  0.33333334  0.77771800  1
  S  S12  1  0.66666665  0.33333334  0.57176200  1
  S  S13  1  0.66666665  0.33333334  0.37475800  1
  S  S14  1  0.66666665  0.33333334  0.17578400  1
  S  S15  1  0.33333332  0.66666667  0.87140700  1
  S  S16  1  0.33333332  0.66666667  0.66742000  1
  S  S17  1  0.33333332  0.66666667  0.47391900  1
  Se  Se18  1  0.33333332  0.66666667  0.27502700  1
  Te  Te19  1  0.33333332  0.66666667  0.07795600  1
