# generated using pymatgen
data_LiSbTePbF14
_symmetry_space_group_name_H-M   'P 1'
_cell_length_a   6.82384491
_cell_length_b   6.82384491
_cell_length_c   9.83623409
_cell_angle_alpha   75.91690826
_cell_angle_beta   75.91690826
_cell_angle_gamma   69.75855255
_symmetry_Int_Tables_number   1
_chemical_formula_structural   LiSbTePbF14
_chemical_formula_sum   'Li1 Sb1 Te1 Pb1 F14'
_cell_volume   410.39766766
_cell_formula_units_Z   1
loop_
 _symmetry_equiv_pos_site_id
 _symmetry_equiv_pos_as_xyz
  1  'x, y, z'
loop_
 _atom_site_type_symbol
 _atom_site_label
 _atom_site_symmetry_multiplicity
 _atom_site_fract_x
 _atom_site_fract_y
 _atom_site_fract_z
 _atom_site_occupancy
  Pb  Pb0  1  0.43172900  0.43172898  0.72206700  1
  Li  Li1  1  0.56827100  0.56827098  0.27793304  1
  F  F2  1  0.22299101  0.58745498  0.85691600  1
  Sb  Sb3  1  0.73728900  0.73728897  0.28528705  1
  F  F4  1  0.58745499  0.22299099  0.85691600  1
  Te  Te5  1  0.77700899  0.41254498  0.14308404  1
  F  F6  1  0.26271100  0.26271099  0.71471299  1
  F  F7  1  0.41254501  0.77700897  0.14308404  1
  F  F8  1  0.74030499  0.25969499  0.50000002  1
  F  F9  1  0.32177900  0.32177899  0.26867702  1
  F  F10  1  0.67822100  0.67822098  0.73132303  1
  F  F11  1  0.25969501  0.74030497  0.50000002  1
  F  F12  1  0.90567098  0.31092999  0.06612405  1
  F  F13  1  0.84145600  0.84145597  0.28268706  1
  F  F14  1  0.09432902  0.68906997  0.93387599  1
  F  F15  1  0.68906998  0.09432900  0.93387599  1
  F  F16  1  0.31093001  0.90567097  0.06612405  1
  F  F17  1  0.15854400  0.15854399  0.71731298  1
