# generated using pymatgen
data_NaTeSeS
_symmetry_space_group_name_H-M   'P 1'
_cell_length_a   4.23611784
_cell_length_b   4.23611784
_cell_length_c   7.05529451
_cell_angle_alpha   72.52986908
_cell_angle_beta   72.52986908
_cell_angle_gamma   60.00000000
_symmetry_Int_Tables_number   1
_chemical_formula_structural   NaTeSeS
_chemical_formula_sum   'Na1 Te1 Se1 S1'
_cell_volume   102.84471734
_cell_formula_units_Z   1
loop_
 _symmetry_equiv_pos_site_id
 _symmetry_equiv_pos_as_xyz
  1  'x, y, z'
loop_
 _atom_site_type_symbol
 _atom_site_label
 _atom_site_symmetry_multiplicity
 _atom_site_fract_x
 _atom_site_fract_y
 _atom_site_fract_z
 _atom_site_occupancy
  Na  Na0  1  0.50000004  0.50000002  0.49999999  1
  Te  Te1  1  0.00000000  0.00000000  0.00000000  1
  S  S2  1  0.25512102  0.25512101  0.23463699  1
  Se  Se3  1  0.74487906  0.74487903  0.76536298  1
