# generated using pymatgen
data_NaSr2LiCaCO12
_symmetry_space_group_name_H-M   'P 1'
_cell_length_a   3.81675601
_cell_length_b   7.00782824
_cell_length_c   7.00782824
_cell_angle_alpha   90.00000000
_cell_angle_beta   90.00000000
_cell_angle_gamma   90.00000000
_symmetry_Int_Tables_number   1
_chemical_formula_structural   NaSr2LiCaCO12
_chemical_formula_sum   'Na1 Sr2 Li1 Ca1 C1 O12'
_cell_volume   187.43957690
_cell_formula_units_Z   1
loop_
 _symmetry_equiv_pos_site_id
 _symmetry_equiv_pos_as_xyz
  1  'x, y, z'
loop_
 _atom_site_type_symbol
 _atom_site_label
 _atom_site_symmetry_multiplicity
 _atom_site_fract_x
 _atom_site_fract_y
 _atom_site_fract_z
 _atom_site_occupancy
  Li  Li0  1  0.00000000  0.00000000  0.00000000  1
  Na  Na1  1  0.50000000  0.49999998  0.49999998  1
  Sr  Sr2  1  0.10442600  0.86869597  0.38523899  1
  Ca  Ca3  1  0.10442600  0.13130400  0.61476098  1
  O  O4  1  0.60442600  0.88523897  0.63130398  1
  Sr  Sr5  1  0.60442600  0.11476100  0.36869599  1
  O  O6  1  0.39557400  0.63130398  0.11476100  1
  O  O7  1  0.39557400  0.36869599  0.88523897  1
  O  O8  1  0.89557400  0.61476098  0.86869597  1
  O  O9  1  0.89557400  0.38523899  0.13130400  1
  O  O10  1  0.89555300  0.33522599  0.79684297  1
  O  O11  1  0.89555300  0.66477398  0.20315699  1
  O  O12  1  0.39555300  0.29684299  0.16477399  1
  C  C13  1  0.39555300  0.70315698  0.83522597  1
  O  O14  1  0.60444700  0.16477399  0.70315698  1
  O  O15  1  0.60444700  0.83522597  0.29684299  1
  O  O16  1  0.10444700  0.20315699  0.33522599  1
  O  O17  1  0.10444700  0.79684297  0.66477398  1
