# generated using pymatgen
data_NaSrNbO4
_symmetry_space_group_name_H-M   'P 1'
_cell_length_a   4.01390791
_cell_length_b   4.01390791
_cell_length_c   7.52546644
_cell_angle_alpha   105.46730042
_cell_angle_beta   105.46730042
_cell_angle_gamma   90.00000000
_symmetry_Int_Tables_number   1
_chemical_formula_structural   NaSrNbO4
_chemical_formula_sum   'Na1 Sr1 Nb1 O4'
_cell_volume   112.29224529
_cell_formula_units_Z   1
loop_
 _symmetry_equiv_pos_site_id
 _symmetry_equiv_pos_as_xyz
  1  'x, y, z'
loop_
 _atom_site_type_symbol
 _atom_site_label
 _atom_site_symmetry_multiplicity
 _atom_site_fract_x
 _atom_site_fract_y
 _atom_site_fract_z
 _atom_site_occupancy
  Na  Na0  1  0.65051204  0.65051202  0.30102403  1
  Sr  Sr1  1  0.34448302  0.34448301  0.68896600  1
  Nb  Nb2  1  0.98740406  0.98740404  0.97480803  1
  O  O3  1  0.50393902  0.00393900  0.00787801  1
  O  O4  1  0.00393901  0.50393902  0.00787802  1
  O  O5  1  0.85518906  0.85518903  0.71037803  1
  O  O6  1  0.15453401  0.15453401  0.30906800  1
