# generated using pymatgen
data_Li4Si2HO9
_symmetry_space_group_name_H-M   'P 1'
_cell_length_a   5.09557581
_cell_length_b   5.09557581
_cell_length_c   7.07540894
_cell_angle_alpha   109.90465546
_cell_angle_beta   109.90465546
_cell_angle_gamma   90.77660370
_symmetry_Int_Tables_number   1
_chemical_formula_structural   Li4Si2HO9
_chemical_formula_sum   'Li4 Si2 H1 O9'
_cell_volume   160.66721699
_cell_formula_units_Z   1
loop_
 _symmetry_equiv_pos_site_id
 _symmetry_equiv_pos_as_xyz
  1  'x, y, z'
loop_
 _atom_site_type_symbol
 _atom_site_label
 _atom_site_symmetry_multiplicity
 _atom_site_fract_x
 _atom_site_fract_y
 _atom_site_fract_z
 _atom_site_occupancy
  Li  Li0  1  0.50000002  0.50000000  0.50000003  1
  Li  Li1  1  0.50000002  0.50000000  0.00000001  1
  Li  Li2  1  0.71940000  0.28060000  0.25000002  1
  Li  Li3  1  0.28060003  0.71940000  0.75000004  1
  Si  Si4  1  0.13087704  0.86912299  0.25000003  1
  Si  Si5  1  0.86912299  0.13087700  0.75000003  1
  O  O6  1  0.82072403  0.80465699  0.15045603  1
  H  H7  1  0.19534301  0.17927600  0.34954401  1
  O  O8  1  0.17927601  0.19534300  0.84954403  1
  O  O9  1  0.80465703  0.82072399  0.65045604  1
  O  O10  1  0.23945003  0.74150199  0.41664303  1
  O  O11  1  0.25849803  0.76054999  0.08335702  1
  O  O12  1  0.76055000  0.25849800  0.58335703  1
  O  O13  1  0.74150200  0.23945000  0.91664303  1
  O  O14  1  0.58478301  0.41521700  0.25000002  1
  O  O15  1  0.41521702  0.58478300  0.75000003  1
