# generated using pymatgen
data_LiMn3F16
_symmetry_space_group_name_H-M   'P 1'
_cell_length_a   4.01837206
_cell_length_b   4.12070227
_cell_length_c   16.77234459
_cell_angle_alpha   89.53680420
_cell_angle_beta   89.77951050
_cell_angle_gamma   89.72501373
_symmetry_Int_Tables_number   1
_chemical_formula_structural   LiMn3F16
_chemical_formula_sum   'Li1 Mn3 F16'
_cell_volume   277.71082778
_cell_formula_units_Z   1
loop_
 _symmetry_equiv_pos_site_id
 _symmetry_equiv_pos_as_xyz
  1  'x, y, z'
loop_
 _atom_site_type_symbol
 _atom_site_label
 _atom_site_symmetry_multiplicity
 _atom_site_fract_x
 _atom_site_fract_y
 _atom_site_fract_z
 _atom_site_occupancy
  Li  Li0  1  0.51673901  0.55472303  0.12934200  1
  Mn  Mn1  1  0.50460901  0.48386702  0.88162301  1
  Mn  Mn2  1  0.48556201  0.55403703  0.37736200  1
  Mn  Mn3  1  0.49550001  0.50458202  0.62667501  1
  F  F4  1  0.95360301  0.94454404  0.72964701  1
  F  F5  1  0.00351800  0.03898100  0.53227701  1
  F  F6  1  0.98643499  0.10608000  0.24769100  1
  F  F7  1  0.04083100  0.07679400  0.01660200  1
  F  F8  1  0.00432501  0.51458602  0.89217701  1
  F  F9  1  0.99963900  0.52188602  0.62710800  1
  F  F10  1  0.99282000  0.50149602  0.36420800  1
  F  F11  1  0.99924800  0.48651302  0.12929900  1
  F  F12  1  0.49375201  0.49251502  0.01220300  1
  F  F13  1  0.51731501  0.53214302  0.76869801  1
  F  F14  1  0.49392301  0.50441602  0.48869600  1
  F  F15  1  0.49916001  0.48217602  0.24646700  1
  F  F16  1  0.50205899  0.01851400  0.88940401  1
  F  F17  1  0.51571899  0.00930200  0.62693601  1
  F  F18  1  0.49336999  0.01065100  0.36833100  1
  F  F19  1  0.50187602  0.99359505  0.12810300  1
