# generated using pymatgen
data_Li2SiO6
_symmetry_space_group_name_H-M   'P 1'
_cell_length_a   5.36942482
_cell_length_b   5.87099123
_cell_length_c   7.12001991
_cell_angle_alpha   90.00000000
_cell_angle_beta   85.68766022
_cell_angle_gamma   90.00000000
_symmetry_Int_Tables_number   1
_chemical_formula_structural   Li2SiO6
_chemical_formula_sum   'Li4 Si2 O12'
_cell_volume   223.81498386
_cell_formula_units_Z   2
loop_
 _symmetry_equiv_pos_site_id
 _symmetry_equiv_pos_as_xyz
  1  'x, y, z'
loop_
 _atom_site_type_symbol
 _atom_site_label
 _atom_site_symmetry_multiplicity
 _atom_site_fract_x
 _atom_site_fract_y
 _atom_site_fract_z
 _atom_site_occupancy
  Li  Li0  1  0.00042900  0.26730199  0.99749502  1
  Li  Li1  1  0.99957104  0.76730197  0.00250498  1
  Li  Li2  1  0.49442302  0.01653100  0.99850401  1
  Li  Li3  1  0.50557702  0.51653098  0.00149599  1
  Si  Si4  1  0.23718301  0.49807898  0.58146001  1
  Si  Si5  1  0.76281703  0.99807896  0.41854000  1
  O  O6  1  0.11203300  0.01508600  0.87007501  1
  O  O7  1  0.88796703  0.51508598  0.12992499  1
  O  O8  1  0.31014401  0.27131699  0.10258300  1
  O  O9  1  0.68985602  0.77131697  0.89741700  1
  O  O10  1  0.08642300  0.38034199  0.50148101  1
  O  O11  1  0.91357703  0.88034197  0.49851899  1
  O  O12  1  0.21524201  0.50473598  0.76450901  1
  O  O13  1  0.78475803  0.00473600  0.23549099  1
  O  O14  1  0.68880502  0.26049499  0.89724700  1
  O  O15  1  0.31119501  0.76049497  0.10275300  1
  O  O16  1  0.59348702  0.10911300  0.50301300  1
  O  O17  1  0.40651301  0.60911298  0.49698700  1
