# generated using pymatgen
data_Li2AlVSi3HO12
_symmetry_space_group_name_H-M   'P 1'
_cell_length_a   4.96287012
_cell_length_b   5.26895905
_cell_length_c   8.26997375
_cell_angle_alpha   90.00000000
_cell_angle_beta   90.00000000
_cell_angle_gamma   90.00000000
_symmetry_Int_Tables_number   1
_chemical_formula_structural   Li2AlVSi3HO12
_chemical_formula_sum   'Li2 Al1 V1 Si3 H1 O12'
_cell_volume   216.25286208
_cell_formula_units_Z   1
loop_
 _symmetry_equiv_pos_site_id
 _symmetry_equiv_pos_as_xyz
  1  'x, y, z'
loop_
 _atom_site_type_symbol
 _atom_site_label
 _atom_site_symmetry_multiplicity
 _atom_site_fract_x
 _atom_site_fract_y
 _atom_site_fract_z
 _atom_site_occupancy
  Li  Li0  1  0.94759398  0.19029300  0.86937003  1
  V  V1  1  0.55240599  0.80970699  0.36937001  1
  Al  Al2  1  0.44759399  0.30970700  0.13063000  1
  Li  Li3  1  0.05240600  0.69029299  0.63063002  1
  Si  Si4  1  0.63185698  0.90927999  0.70949402  1
  Si  Si5  1  0.86814298  0.09072000  0.20949401  1
  H  H6  1  0.13185700  0.59071999  0.29050601  1
  Si  Si7  1  0.36814299  0.40928000  0.79050602  1
  O  O8  1  0.80823098  0.40310900  0.41411201  1
  O  O9  1  0.69176898  0.59689099  0.91411203  1
  O  O10  1  0.30823099  0.09689100  0.58588802  1
  O  O11  1  0.19176900  0.90310899  0.08588800  1
  O  O12  1  0.85920198  0.58276799  0.42870301  1
  O  O13  1  0.64079798  0.41723200  0.92870303  1
  O  O14  1  0.35920199  0.91723199  0.57129702  1
  O  O15  1  0.14079800  0.08276800  0.07129700  1
  O  O16  1  0.79916498  0.87884099  0.77363402  1
  O  O17  1  0.70083498  0.12115900  0.27363401  1
  O  O18  1  0.29916499  0.62115899  0.22636601  1
  O  O19  1  0.20083500  0.37884100  0.72636602  1
