# generated using pymatgen
data_SiB3PH5O4
_symmetry_space_group_name_H-M   'P 1'
_cell_length_a   5.06290197
_cell_length_b   5.14666653
_cell_length_c   5.59663916
_cell_angle_alpha   64.62146759
_cell_angle_beta   64.60594177
_cell_angle_gamma   61.43879700
_symmetry_Int_Tables_number   1
_chemical_formula_structural   SiB3PH5O4
_chemical_formula_sum   'Si1 B3 P1 H5 O4'
_cell_volume   111.02131568
_cell_formula_units_Z   1
loop_
 _symmetry_equiv_pos_site_id
 _symmetry_equiv_pos_as_xyz
  1  'x, y, z'
loop_
 _atom_site_type_symbol
 _atom_site_label
 _atom_site_symmetry_multiplicity
 _atom_site_fract_x
 _atom_site_fract_y
 _atom_site_fract_z
 _atom_site_occupancy
  B  B0  1  0.32521398  0.33310502  0.00670502  1
  Si  Si1  1  0.67478596  0.66689503  0.99329500  1
  B  B2  1  0.49747195  0.84620404  0.40525902  1
  B  B3  1  0.50252798  0.15379601  0.59474100  1
  H  H4  1  0.15273197  0.62530303  0.36684900  1
  H  H5  1  0.84726797  0.37469702  0.63315102  1
  H  H6  1  0.89303398  0.13613501  0.22861903  1
  P  P7  1  0.10696596  0.86386504  0.77138099  1
  O  O8  1  0.56586395  0.93617705  0.20747903  1
  H  H9  1  0.43413599  0.06382300  0.79252099  1
  H  H10  1  0.31233997  0.55433103  0.20929401  1
  O  O11  1  0.68765997  0.44566902  0.79070601  1
  O  O12  1  0.91984197  0.31375302  0.22323204  1
  O  O13  1  0.08015797  0.68624703  0.77676798  1
