# generated using pymatgen
data_NaLi(AgS)2
_symmetry_space_group_name_H-M   'P 1'
_cell_length_a   3.89602804
_cell_length_b   5.26000881
_cell_length_c   6.25867796
_cell_angle_alpha   90.00000000
_cell_angle_beta   90.00000000
_cell_angle_gamma   90.00000000
_symmetry_Int_Tables_number   1
_chemical_formula_structural   NaLi(AgS)2
_chemical_formula_sum   'Na1 Li1 Ag2 S2'
_cell_volume   128.25997510
_cell_formula_units_Z   1
loop_
 _symmetry_equiv_pos_site_id
 _symmetry_equiv_pos_as_xyz
  1  'x, y, z'
loop_
 _atom_site_type_symbol
 _atom_site_label
 _atom_site_symmetry_multiplicity
 _atom_site_fract_x
 _atom_site_fract_y
 _atom_site_fract_z
 _atom_site_occupancy
  Li  Li0  1  0.00000000  0.00000000  0.00000000  1
  Ag  Ag1  1  0.49999999  0.50000002  0.50000000  1
  Na  Na2  1  0.00000000  0.22763601  0.36137400  1
  Ag  Ag3  1  0.00000000  0.77236403  0.63862600  1
  S  S4  1  0.49999999  0.27236401  0.86137401  1
  S  S5  1  0.49999999  0.72763603  0.13862600  1
