# generated using pymatgen
data_CsRbTe2SBr3Cl2
_symmetry_space_group_name_H-M   'P 1'
_cell_length_a   7.13048840
_cell_length_b   7.13048840
_cell_length_c   7.56556177
_cell_angle_alpha   61.88476563
_cell_angle_beta   61.88476563
_cell_angle_gamma   59.99999619
_symmetry_Int_Tables_number   1
_chemical_formula_structural   CsRbTe2SBr3Cl2
_chemical_formula_sum   'Cs1 Rb1 Te2 S1 Br3 Cl2'
_cell_volume   279.49020055
_cell_formula_units_Z   1
loop_
 _symmetry_equiv_pos_site_id
 _symmetry_equiv_pos_as_xyz
  1  'x, y, z'
loop_
 _atom_site_type_symbol
 _atom_site_label
 _atom_site_symmetry_multiplicity
 _atom_site_fract_x
 _atom_site_fract_y
 _atom_site_fract_z
 _atom_site_occupancy
  Te  Te0  1  0.19967099  0.19967100  0.40098700  1
  Cs  Cs1  1  0.49999999  0.50000000  0.49999999  1
  Rb  Rb2  1  0.80032898  0.80032900  0.59901298  1
  Te  Te3  1  0.00000000  0.00000000  0.00000000  1
  Br  Br4  1  0.77706399  0.10687200  0.74214700  1
  Br  Br5  1  0.10687199  0.37391700  0.74214700  1
  Br  Br6  1  0.37391698  0.77706400  0.74214699  1
  Cl  Cl7  1  0.62608299  0.22293600  0.25785299  1
  S  S8  1  0.89312798  0.62608300  0.25785298  1
  Cl  Cl9  1  0.22293598  0.89312800  0.25785299  1
