# generated using pymatgen
data_K3SrTeSeSBr3Cl2
_symmetry_space_group_name_H-M   'P 1'
_cell_length_a   7.56762409
_cell_length_b   7.56762409
_cell_length_c   8.49486732
_cell_angle_alpha   63.54957199
_cell_angle_beta   63.54957199
_cell_angle_gamma   60.00000000
_symmetry_Int_Tables_number   1
_chemical_formula_structural   K3SrTeSeSBr3Cl2
_chemical_formula_sum   'K3 Sr1 Te1 Se1 S1 Br3 Cl2'
_cell_volume   361.31588722
_cell_formula_units_Z   1
loop_
 _symmetry_equiv_pos_site_id
 _symmetry_equiv_pos_as_xyz
  1  'x, y, z'
loop_
 _atom_site_type_symbol
 _atom_site_label
 _atom_site_symmetry_multiplicity
 _atom_site_fract_x
 _atom_site_fract_y
 _atom_site_fract_z
 _atom_site_occupancy
  Sr  Sr0  1  0.19958800  0.19958800  0.40123601  1
  K  K1  1  0.80041201  0.80041199  0.59876404  1
  K  K2  1  0.50000000  0.00000000  0.00000001  1
  K  K3  1  0.00000001  0.50000000  0.00000001  1
  Te  Te4  1  0.00000000  0.00000000  0.00000000  1
  Cl  Cl5  1  0.50000001  0.50000000  0.00000003  1
  Cl  Cl6  1  0.22711300  0.22711300  0.83206401  1
  Br  Br7  1  0.77288701  0.77288699  0.16793604  1
  Se  Se8  1  0.71371000  0.22711300  0.83206403  1
  S  S9  1  0.22711301  0.71371000  0.83206402  1
  Br  Br10  1  0.77288700  0.28629000  0.16793603  1
  Br  Br11  1  0.28629001  0.77288699  0.16793603  1
