# generated using pymatgen
data_Na2Sr3AgPbO12
_symmetry_space_group_name_H-M   'P 1'
_cell_length_a   3.95527673
_cell_length_b   3.95527673
_cell_length_c   16.59226227
_cell_angle_alpha   96.84572601
_cell_angle_beta   96.84572601
_cell_angle_gamma   89.99713135
_symmetry_Int_Tables_number   1
_chemical_formula_structural   Na2Sr3AgPbO12
_chemical_formula_sum   'Na2 Sr3 Ag1 Pb1 O12'
_cell_volume   255.85855648
_cell_formula_units_Z   1
loop_
 _symmetry_equiv_pos_site_id
 _symmetry_equiv_pos_as_xyz
  1  'x, y, z'
loop_
 _atom_site_type_symbol
 _atom_site_label
 _atom_site_symmetry_multiplicity
 _atom_site_fract_x
 _atom_site_fract_y
 _atom_site_fract_z
 _atom_site_occupancy
  Na  Na0  1  0.93107700  0.93107801  0.86215505  1
  Sr  Sr1  1  0.06360900  0.06361000  0.12721901  1
  Na  Na2  1  0.62750500  0.62750500  0.25501002  1
  Sr  Sr3  1  0.37079800  0.37079900  0.74159704  1
  Sr  Sr4  1  0.49815500  0.49815500  0.99631005  1
  Pb  Pb5  1  0.78783900  0.78784000  0.57567904  1
  Ag  Ag6  1  0.21381500  0.21381500  0.42763002  1
  O  O7  1  0.37738700  0.87738701  0.75477404  1
  O  O8  1  0.12016800  0.62016800  0.24033602  1
  O  O9  1  0.62016800  0.12016800  0.24033602  1
  O  O10  1  0.87738700  0.37738700  0.75477404  1
  O  O11  1  0.68549600  0.68549700  0.37099302  1
  O  O12  1  0.31299600  0.31299500  0.62599103  1
  O  O13  1  0.56258200  0.56258100  0.12516301  1
  O  O14  1  0.44013200  0.44013200  0.88026404  1
  O  O15  1  0.25063900  0.75063900  0.50127803  1
  O  O16  1  0.75063900  0.25063900  0.50127803  1
  O  O17  1  0.50480400  0.00480300  0.00960700  1
  O  O18  1  0.00480400  0.50480300  0.00960700  1
