# generated using pymatgen
data_Na2AgS3Cl
_symmetry_space_group_name_H-M   'P 1'
_cell_length_a   6.01484203
_cell_length_b   6.01484203
_cell_length_c   10.48102856
_cell_angle_alpha   90.00000000
_cell_angle_beta   90.00000000
_cell_angle_gamma   119.33473969
_symmetry_Int_Tables_number   1
_chemical_formula_structural   Na2AgS3Cl
_chemical_formula_sum   'Na4 Ag2 S6 Cl2'
_cell_volume   330.56393227
_cell_formula_units_Z   2
loop_
 _symmetry_equiv_pos_site_id
 _symmetry_equiv_pos_as_xyz
  1  'x, y, z'
loop_
 _atom_site_type_symbol
 _atom_site_label
 _atom_site_symmetry_multiplicity
 _atom_site_fract_x
 _atom_site_fract_y
 _atom_site_fract_z
 _atom_site_occupancy
  Na  Na0  1  0.49999999  0.50000001  0.25000001  1
  Na  Na1  1  0.49999999  0.50000001  0.75000003  1
  Na  Na2  1  0.23835297  0.76022101  0.50000002  1
  Na  Na3  1  0.76164701  0.23977900  0.50000002  1
  Ag  Ag4  1  0.23977897  0.76164701  -0.00000000  1
  Ag  Ag5  1  0.76022101  0.23835300  1.00000004  1
  S  S6  1  0.18484499  0.35016400  0.50000002  1
  S  S7  1  0.81515500  0.64983601  0.50000002  1
  S  S8  1  0.64983598  0.81515501  1.00000004  1
  S  S9  1  0.35016400  0.18484500  -0.00000000  1
  S  S10  1  -0.00000002  0.50000001  0.16535001  1
  S  S11  1  0.50000002  0.00000000  0.33465001  1
  Cl  Cl12  1  -0.00000002  0.50000001  0.83465004  1
  Cl  Cl13  1  0.50000002  0.00000000  0.66535003  1
