# generated using pymatgen
data_Rb3TeSeI14Br
_symmetry_space_group_name_H-M   'P 1'
_cell_length_a   7.46961403
_cell_length_b   7.89781618
_cell_length_c   13.70493889
_cell_angle_alpha   90.00000000
_cell_angle_beta   79.28107452
_cell_angle_gamma   90.00000000
_symmetry_Int_Tables_number   1
_chemical_formula_structural   Rb3TeSeI14Br
_chemical_formula_sum   'Rb3 Te1 Se1 I14 Br1'
_cell_volume   794.39695666
_cell_formula_units_Z   1
loop_
 _symmetry_equiv_pos_site_id
 _symmetry_equiv_pos_as_xyz
  1  'x, y, z'
loop_
 _atom_site_type_symbol
 _atom_site_label
 _atom_site_symmetry_multiplicity
 _atom_site_fract_x
 _atom_site_fract_y
 _atom_site_fract_z
 _atom_site_occupancy
  Rb  Rb0  1  0.93444899  0.36254599  0.15448701  1
  Rb  Rb1  1  0.06555100  0.36254599  0.34551300  1
  Rb  Rb2  1  0.06555100  0.63745399  0.84551300  1
  Te  Te3  1  0.93444899  0.63745399  0.65448701  1
  I  I4  1  0.17079800  0.10650700  0.19418100  1
  I  I5  1  0.82920199  0.10650700  0.30581901  1
  I  I6  1  0.82920199  0.89349298  0.80581901  1
  I  I7  1  0.17079800  0.89349298  0.69418100  1
  I  I8  1  0.15039700  0.32602199  0.95426400  1
  I  I9  1  0.84960299  0.32602199  0.54573601  1
  I  I10  1  0.84960299  0.67397798  0.04573601  1
  I  I11  1  0.15039700  0.67397798  0.45426400  1
  Se  Se12  1  0.65047599  0.20839100  0.07930501  1
  I  I13  1  0.34952400  0.20839100  0.42069500  1
  I  I14  1  0.34952400  0.79160898  0.92069500  1
  I  I15  1  0.65047599  0.79160898  0.57930501  1
  I  I16  1  0.75125999  0.56111699  0.31126601  1
  I  I17  1  0.24874000  0.56111699  0.18873400  1
  Br  Br18  1  0.24874000  0.43888299  0.68873400  1
  I  I19  1  0.75125999  0.43888299  0.81126601  1
