# generated using pymatgen
data_LiFeO3
_symmetry_space_group_name_H-M   'P 1'
_cell_length_a   5.26689005
_cell_length_b   5.99931717
_cell_length_c   7.58228922
_cell_angle_alpha   90.00000000
_cell_angle_beta   90.00000000
_cell_angle_gamma   90.00000000
_symmetry_Int_Tables_number   1
_chemical_formula_structural   LiFeO3
_chemical_formula_sum   'Li4 Fe4 O12'
_cell_volume   239.58323291
_cell_formula_units_Z   4
loop_
 _symmetry_equiv_pos_site_id
 _symmetry_equiv_pos_as_xyz
  1  'x, y, z'
loop_
 _atom_site_type_symbol
 _atom_site_label
 _atom_site_symmetry_multiplicity
 _atom_site_fract_x
 _atom_site_fract_y
 _atom_site_fract_z
 _atom_site_occupancy
  Li  Li0  1  0.00000000  0.00000000  0.00000000  1
  Li  Li1  1  0.50000000  0.49999999  -0.00000000  1
  Li  Li2  1  0.00000000  0.00000000  0.49999999  1
  Li  Li3  1  0.50000000  0.49999999  0.49999999  1
  Fe  Fe4  1  0.51482400  0.98553897  0.24999999  1
  Fe  Fe5  1  0.48517600  0.01446100  0.74999998  1
  Fe  Fe6  1  0.01482400  0.51446099  0.74999998  1
  Fe  Fe7  1  0.98517599  0.48553899  0.24999999  1
  O  O8  1  0.15731300  0.06087600  0.24999999  1
  O  O9  1  0.84268699  0.93912397  0.74999998  1
  O  O10  1  0.65731299  0.43912399  0.74999998  1
  O  O11  1  0.34268700  0.56087598  0.24999999  1
  O  O12  1  0.64500099  0.18291999  0.06422300  1
  O  O13  1  0.35499900  0.81707998  0.93577697  1
  O  O14  1  0.14500100  0.31707999  0.93577697  1
  O  O15  1  0.35499900  0.81707998  0.56422298  1
  O  O16  1  0.85499899  0.68291998  0.06422300  1
  O  O17  1  0.64500099  0.18291999  0.43577699  1
  O  O18  1  0.85499899  0.68291998  0.43577699  1
  O  O19  1  0.14500100  0.31707999  0.56422298  1
