# generated using pymatgen
data_K3SrTeSBrCl5
_symmetry_space_group_name_H-M   'P 1'
_cell_length_a   7.00673008
_cell_length_b   7.01540852
_cell_length_c   7.33795977
_cell_angle_alpha   80.70523834
_cell_angle_beta   71.12968445
_cell_angle_gamma   60.04091263
_symmetry_Int_Tables_number   1
_chemical_formula_structural   K3SrTeSBrCl5
_chemical_formula_sum   'K3 Sr1 Te1 S1 Br1 Cl5'
_cell_volume   295.70624708
_cell_formula_units_Z   1
loop_
 _symmetry_equiv_pos_site_id
 _symmetry_equiv_pos_as_xyz
  1  'x, y, z'
loop_
 _atom_site_type_symbol
 _atom_site_label
 _atom_site_symmetry_multiplicity
 _atom_site_fract_x
 _atom_site_fract_y
 _atom_site_fract_z
 _atom_site_occupancy
  Sr  Sr0  1  0.00000000  0.00000000  0.00000000  1
  K  K1  1  0.49999999  0.00000000  0.50000002  1
  K  K2  1  0.84236699  0.31526599  0.50000001  1
  K  K3  1  0.15763301  0.68473398  0.49999999  1
  Br  Br4  1  0.33122700  0.33754599  -0.00000001  1
  Te  Te5  1  0.66877300  0.66245398  -0.00000002  1
  Cl  Cl6  1  0.07576600  0.36140299  0.77580101  1
  Cl  Cl7  1  0.28595300  0.00000000  0.22279301  1
  Cl  Cl8  1  0.92423400  0.63859698  0.22419899  1
  Cl  Cl9  1  0.56283100  0.36140299  0.22419900  1
  S  S10  1  0.43716900  0.63859698  0.77580100  1
  Cl  Cl11  1  0.71404700  0.99999997  0.77720699  1
