# generated using pymatgen
data_Li3V2TeO10
_symmetry_space_group_name_H-M   'P 1'
_cell_length_a   4.92603779
_cell_length_b   5.21889782
_cell_length_c   8.46529675
_cell_angle_alpha   90.00000000
_cell_angle_beta   90.00000000
_cell_angle_gamma   90.00000000
_symmetry_Int_Tables_number   1
_chemical_formula_structural   Li3V2TeO10
_chemical_formula_sum   'Li3 V2 Te1 O10'
_cell_volume   217.62997872
_cell_formula_units_Z   1
loop_
 _symmetry_equiv_pos_site_id
 _symmetry_equiv_pos_as_xyz
  1  'x, y, z'
loop_
 _atom_site_type_symbol
 _atom_site_label
 _atom_site_symmetry_multiplicity
 _atom_site_fract_x
 _atom_site_fract_y
 _atom_site_fract_z
 _atom_site_occupancy
  Li  Li0  1  0.00000000  0.75000003  0.09253000  1
  Li  Li1  1  0.50000002  0.75000003  0.40747001  1
  Li  Li2  1  0.00000000  0.25000001  0.90747003  1
  Te  Te3  1  0.50000002  0.25000001  0.59253002  1
  O  O4  1  0.25000001  0.88857803  0.25000001  1
  V  V5  1  0.28732801  0.93525203  0.57381902  1
  O  O6  1  0.21267201  0.93525203  0.92618103  1
  V  V7  1  0.71267203  0.06474800  0.42618101  1
  O  O8  1  0.78732803  0.06474800  0.07381900  1
  O  O9  1  0.75000003  0.11142200  0.75000002  1
  O  O10  1  0.25000001  0.38857801  0.75000002  1
  O  O11  1  0.21267201  0.43525202  0.07381900  1
  O  O12  1  0.28732801  0.43525202  0.42618101  1
  O  O13  1  0.78732803  0.56474802  0.92618103  1
  O  O14  1  0.71267203  0.56474802  0.57381902  1
  O  O15  1  0.75000003  0.61142202  0.25000001  1
