# generated using pymatgen
data_Li2O2
_symmetry_space_group_name_H-M   'P 1'
_cell_length_a   4.92996407
_cell_length_b   5.59861851
_cell_length_c   6.92842197
_cell_angle_alpha   102.29128265
_cell_angle_beta   110.84114838
_cell_angle_gamma   90.00000000
_symmetry_Int_Tables_number   1
_chemical_formula_structural   Li2O2
_chemical_formula_sum   'Li7 O7'
_cell_volume   174.02081356
_cell_formula_units_Z   3
loop_
 _symmetry_equiv_pos_site_id
 _symmetry_equiv_pos_as_xyz
  1  'x, y, z'
loop_
 _atom_site_type_symbol
 _atom_site_label
 _atom_site_symmetry_multiplicity
 _atom_site_fract_x
 _atom_site_fract_y
 _atom_site_fract_z
 _atom_site_occupancy
  Li  Li0  1  0.10531899  0.23077700  0.71795999  1
  Li  Li1  1  0.38735899  0.26922299  0.28203998  1
  Li  Li2  1  0.89468096  0.76922298  0.28203997  1
  Li  Li3  1  0.61264097  0.73077699  0.71795997  1
  Li  Li4  1  0.13622799  0.12756700  0.40943299  1
  O  O5  1  0.72679497  0.37243299  0.59056697  1
  O  O6  1  0.86377196  0.87243298  0.59056696  1
  Li  Li7  1  0.27320498  0.62756699  0.40943298  1
  Li  Li8  1  0.89122796  0.74999999  -0.00000003  1
  O  O9  1  0.10877199  0.25000000  -0.00000001  1
  O  O10  1  0.56153197  0.98331998  0.22363897  1
  O  O11  1  0.33789298  0.51667999  0.77636098  1
  O  O12  1  0.43846799  0.01668000  0.77636098  1
  O  O13  1  0.66210697  0.48331999  0.22363897  1
