# generated using pymatgen
data_NaLiWF5
_symmetry_space_group_name_H-M   'P 1'
_cell_length_a   3.75175810
_cell_length_b   6.03698778
_cell_length_c   6.03698778
_cell_angle_alpha   90.00000000
_cell_angle_beta   90.00000000
_cell_angle_gamma   90.00000000
_symmetry_Int_Tables_number   1
_chemical_formula_structural   NaLiWF5
_chemical_formula_sum   'Na1 Li1 W1 F5'
_cell_volume   136.73365482
_cell_formula_units_Z   1
loop_
 _symmetry_equiv_pos_site_id
 _symmetry_equiv_pos_as_xyz
  1  'x, y, z'
loop_
 _atom_site_type_symbol
 _atom_site_label
 _atom_site_symmetry_multiplicity
 _atom_site_fract_x
 _atom_site_fract_y
 _atom_site_fract_z
 _atom_site_occupancy
  Na  Na0  1  0.49999999  0.00000000  0.50000002  1
  Li  Li1  1  0.49999999  0.50000002  -0.00000000  1
  W  W2  1  0.00000000  0.00000000  0.00000000  1
  F  F3  1  0.00000000  0.78790503  0.78790503  1
  F  F4  1  0.00000000  0.78790503  0.21209501  1
  F  F5  1  0.99999997  0.21209501  0.78790503  1
  F  F6  1  0.49999999  0.00000000  -0.00000000  1
  F  F7  1  0.00000000  0.21209501  0.21209501  1
