# generated using pymatgen
data_BaLiCuH8S2O5
_symmetry_space_group_name_H-M   'P 1'
_cell_length_a   5.74176407
_cell_length_b   6.17329979
_cell_length_c   5.80105829
_cell_angle_alpha   90.00000000
_cell_angle_beta   89.40057373
_cell_angle_gamma   90.00000000
_symmetry_Int_Tables_number   1
_chemical_formula_structural   BaLiCuH8S2O5
_chemical_formula_sum   'Ba1 Li1 Cu1 H8 S2 O5'
_cell_volume   205.61091831
_cell_formula_units_Z   1
loop_
 _symmetry_equiv_pos_site_id
 _symmetry_equiv_pos_as_xyz
  1  'x, y, z'
loop_
 _atom_site_type_symbol
 _atom_site_label
 _atom_site_symmetry_multiplicity
 _atom_site_fract_x
 _atom_site_fract_y
 _atom_site_fract_z
 _atom_site_occupancy
  Li  Li0  1  0.47292699  0.75000003  0.99245500  1
  Ba  Ba1  1  0.49999999  0.00000000  0.49999998  1
  Cu  Cu2  1  0.49999999  0.50000002  0.49999998  1
  H  H3  1  0.52707299  0.25000001  0.00754497  1
  H  H4  1  0.19791600  0.04037800  0.19007399  1
  H  H5  1  0.82616299  0.75000003  0.46595096  1
  H  H6  1  0.17383700  0.25000001  0.53404901  1
  H  H7  1  0.19791600  0.45962202  0.19007399  1
  H  H8  1  0.80208399  0.95962203  0.80992598  1
  H  H9  1  0.80208399  0.54037802  0.80992598  1
  H  H10  1  0.89117199  0.25000001  0.27945896  1
  S  S11  1  0.10882800  0.75000003  0.72054101  1
  O  O12  1  0.63295399  0.50677102  0.81537699  1
  O  O13  1  0.33052600  0.25000001  0.60331900  1
  S  S14  1  0.66947399  0.75000003  0.39668097  1
  O  O15  1  0.36704600  0.49322902  0.18462298  1
  O  O16  1  0.36704600  0.00677100  0.18462298  1
  O  O17  1  0.63295399  0.99322903  0.81537699  1
