# generated using pymatgen
data_NaLi7MnCuO8
_symmetry_space_group_name_H-M   'P 1'
_cell_length_a   6.34569454
_cell_length_b   6.82329178
_cell_length_c   6.82329130
_cell_angle_alpha   116.51766205
_cell_angle_beta   91.45885468
_cell_angle_gamma   88.54114532
_symmetry_Int_Tables_number   1
_chemical_formula_structural   NaLi7MnCuO8
_chemical_formula_sum   'Na1 Li7 Mn1 Cu1 O8'
_cell_volume   264.23888849
_cell_formula_units_Z   1
loop_
 _symmetry_equiv_pos_site_id
 _symmetry_equiv_pos_as_xyz
  1  'x, y, z'
loop_
 _atom_site_type_symbol
 _atom_site_label
 _atom_site_symmetry_multiplicity
 _atom_site_fract_x
 _atom_site_fract_y
 _atom_site_fract_z
 _atom_site_occupancy
  Na  Na0  1  0.64164196  0.76995101  0.48612704  1
  Li  Li1  1  0.85835797  0.48612600  0.76995003  1
  Li  Li2  1  0.35835799  0.23004900  0.51387302  1
  Li  Li3  1  0.14164198  0.51387400  0.23005003  1
  Li  Li4  1  0.02997796  0.93165401  0.23653405  1
  Li  Li5  1  0.47002199  0.23653400  0.93165403  1
  Li  Li6  1  0.97002199  0.06834600  0.76346601  1
  Li  Li7  1  0.52997796  0.76346601  0.06834603  1
  Mn  Mn8  1  0.74999998  0.26088000  0.26088001  1
  Cu  Cu9  1  0.24999997  0.73912001  0.73912005  1
  O  O10  1  0.33192996  0.84596101  0.31278204  1
  O  O11  1  0.16806999  0.31278200  0.84596103  1
  O  O12  1  0.66806999  0.15403900  0.68721802  1
  O  O13  1  0.83192996  0.68721801  0.15403902  1
  O  O14  1  0.97581496  0.74788701  0.64906604  1
  O  O15  1  0.52418497  0.64906601  0.74788704  1
  O  O16  1  0.02418499  0.25211300  0.35093402  1
  O  O17  1  0.47581498  0.35093400  0.25211302  1
