# generated using pymatgen
data_Li7PO6
_symmetry_space_group_name_H-M   'P 1'
_cell_length_a   3.48652792
_cell_length_b   6.69720602
_cell_length_c   10.31556797
_cell_angle_alpha   101.60324860
_cell_angle_beta   99.37519073
_cell_angle_gamma   104.32802582
_symmetry_Int_Tables_number   1
_chemical_formula_structural   Li7PO6
_chemical_formula_sum   'Li7 P1 O6'
_cell_volume   222.79354896
_cell_formula_units_Z   1
loop_
 _symmetry_equiv_pos_site_id
 _symmetry_equiv_pos_as_xyz
  1  'x, y, z'
loop_
 _atom_site_type_symbol
 _atom_site_label
 _atom_site_symmetry_multiplicity
 _atom_site_fract_x
 _atom_site_fract_y
 _atom_site_fract_z
 _atom_site_occupancy
  Li  Li0  1  0.96752407  0.28305500  0.72895899  1
  Li  Li1  1  0.03247611  0.71694500  0.27104101  1
  Li  Li2  1  0.21927913  0.84491600  0.61227900  1
  Li  Li3  1  0.19922105  0.30495400  0.06827801  1
  Li  Li4  1  0.80077912  0.69504600  0.93172200  1
  Li  Li5  1  0.78072104  0.15508400  0.38772100  1
  Li  Li6  1  0.15336001  0.02479200  0.25511200  1
  O  O7  1  0.18544609  0.59941800  0.77990199  1
  O  O8  1  0.81455408  0.40058200  0.22009801  1
  O  O9  1  0.84664017  0.97520800  0.74488801  1
  P  P10  1  0.62976414  0.82207500  0.40544901  1
  O  O11  1  0.64550707  0.35559200  0.90769599  1
  O  O12  1  0.37023604  0.17792500  0.59455099  1
  O  O13  1  0.35449311  0.64440800  0.09230401  1
