# generated using pymatgen
data_LiN
_symmetry_space_group_name_H-M   'P 1'
_cell_length_a   5.54329205
_cell_length_b   5.60945177
_cell_length_c   7.95563698
_cell_angle_alpha   90.00000000
_cell_angle_beta   89.81871033
_cell_angle_gamma   90.00000000
_symmetry_Int_Tables_number   1
_chemical_formula_structural   LiN
_chemical_formula_sum   'Li10 N10'
_cell_volume   247.37793613
_cell_formula_units_Z   10
loop_
 _symmetry_equiv_pos_site_id
 _symmetry_equiv_pos_as_xyz
  1  'x, y, z'
loop_
 _atom_site_type_symbol
 _atom_site_label
 _atom_site_symmetry_multiplicity
 _atom_site_fract_x
 _atom_site_fract_y
 _atom_site_fract_z
 _atom_site_occupancy
  Li  Li0  1  0.25461100  0.50022502  0.49990498  1
  Li  Li1  1  0.74538899  0.00022500  0.50009496  1
  Li  Li2  1  0.24140600  0.55950502  0.99893797  1
  Li  Li3  1  0.75859399  0.05950500  0.00106197  1
  Li  Li4  1  0.25040800  0.02207400  0.25583799  1
  Li  Li5  1  0.74959199  0.52207402  0.74416196  1
  Li  Li6  1  0.25526400  0.01507800  0.73677998  1
  Li  Li7  1  0.74473599  0.51507802  0.26321997  1
  N  N8  1  0.43634200  0.72442303  0.71894397  1
  Li  Li9  1  0.56365800  0.22442301  0.28105597  1
  N  N10  1  0.33775700  0.99125704  0.99295197  1
  Li  Li11  1  0.66224299  0.49125702  0.00704798  1
  N  N12  1  0.17011800  0.03807400  0.51051798  1
  N  N13  1  0.82988199  0.53807402  0.48948196  1
  N  N14  1  0.02297000  0.30545301  0.19226600  1
  N  N15  1  0.97702999  0.80545303  0.80773395  1
  N  N16  1  0.04211500  0.28196901  0.80787798  1
  N  N17  1  0.95788499  0.78196903  0.19212196  1
  N  N18  1  0.53429400  0.21034001  0.72233797  1
  N  N19  1  0.46570600  0.71034003  0.27766198  1
