# generated using pymatgen
data_NaLiCuS4
_symmetry_space_group_name_H-M   'P 1'
_cell_length_a   4.29500484
_cell_length_b   4.29500484
_cell_length_c   8.23649406
_cell_angle_alpha   74.88661194
_cell_angle_beta   74.88661194
_cell_angle_gamma   60.00001526
_symmetry_Int_Tables_number   1
_chemical_formula_structural   NaLiCuS4
_chemical_formula_sum   'Na1 Li1 Cu1 S4'
_cell_volume   125.47819585
_cell_formula_units_Z   1
loop_
 _symmetry_equiv_pos_site_id
 _symmetry_equiv_pos_as_xyz
  1  'x, y, z'
loop_
 _atom_site_type_symbol
 _atom_site_label
 _atom_site_symmetry_multiplicity
 _atom_site_fract_x
 _atom_site_fract_y
 _atom_site_fract_z
 _atom_site_occupancy
  Li  Li0  1  0.00000000  0.00000000  0.00000000  1
  Na  Na1  1  0.42941199  0.42941201  0.71176403  1
  S  S2  1  0.13772600  0.13772600  0.58682202  1
  Cu  Cu3  1  0.57058799  0.57058802  0.28823603  1
  S  S4  1  0.86227398  0.86227402  0.41317804  1
  S  S5  1  0.75386198  0.75386202  0.73841404  1
  S  S6  1  0.24613799  0.24613801  0.26158601  1
