# generated using pymatgen
data_Li2AsS(NO)2
_symmetry_space_group_name_H-M   'P 1'
_cell_length_a   4.46881723
_cell_length_b   4.46881723
_cell_length_c   4.71612835
_cell_angle_alpha   61.72002792
_cell_angle_beta   61.72002792
_cell_angle_gamma   60.00000763
_symmetry_Int_Tables_number   1
_chemical_formula_structural   Li2AsS(NO)2
_chemical_formula_sum   'Li2 As1 S1 N2 O2'
_cell_volume   68.27637636
_cell_formula_units_Z   1
loop_
 _symmetry_equiv_pos_site_id
 _symmetry_equiv_pos_as_xyz
  1  'x, y, z'
loop_
 _atom_site_type_symbol
 _atom_site_label
 _atom_site_symmetry_multiplicity
 _atom_site_fract_x
 _atom_site_fract_y
 _atom_site_fract_z
 _atom_site_occupancy
  Li  Li0  1  0.50000002  0.50000003  0.49999998  1
  Li  Li1  1  0.00000000  0.00000000  0.00000000  1
  S  S2  1  0.37859201  0.75000004  0.74999998  1
  As  As3  1  0.75000004  0.12140801  0.74999997  1
  O  O4  1  0.87859204  0.62140803  0.24999999  1
  N  N5  1  0.25000000  0.87859205  0.24999999  1
  O  O6  1  0.62140803  0.25000001  0.24999999  1
  N  N7  1  0.12140800  0.37859202  0.74999998  1
