# generated using pymatgen
data_K4LiAgS6
_symmetry_space_group_name_H-M   'P 1'
_cell_length_a   4.59633493
_cell_length_b   7.82278776
_cell_length_c   8.53059101
_cell_angle_alpha   90.00000000
_cell_angle_beta   90.00000000
_cell_angle_gamma   90.00000000
_symmetry_Int_Tables_number   1
_chemical_formula_structural   K4LiAgS6
_chemical_formula_sum   'K4 Li1 Ag1 S6'
_cell_volume   306.72723278
_cell_formula_units_Z   1
loop_
 _symmetry_equiv_pos_site_id
 _symmetry_equiv_pos_as_xyz
  1  'x, y, z'
loop_
 _atom_site_type_symbol
 _atom_site_label
 _atom_site_symmetry_multiplicity
 _atom_site_fract_x
 _atom_site_fract_y
 _atom_site_fract_z
 _atom_site_occupancy
  Li  Li0  1  0.25000000  0.01497400  0.18346200  1
  K  K1  1  0.25000000  0.51497402  0.31653800  1
  K  K2  1  0.75000001  0.48502601  0.68346200  1
  K  K3  1  0.75000001  0.98502603  0.81653800  1
  K  K4  1  0.75000001  0.35687501  0.06374600  1
  Ag  Ag5  1  0.25000000  0.64312502  0.93625400  1
  S  S6  1  0.75000001  0.85687503  0.43625400  1
  S  S7  1  0.25000000  0.14312500  0.56374600  1
  S  S8  1  0.75000001  0.21874501  0.39049000  1
  S  S9  1  0.25000000  0.28125501  0.89049000  1
  S  S10  1  0.25000000  0.78125502  0.60951000  1
  S  S11  1  0.75000001  0.71874502  0.10951000  1
