# generated using pymatgen
data_Li4AlBH3C2N9
_symmetry_space_group_name_H-M   'P 1'
_cell_length_a   4.89193678
_cell_length_b   5.31901121
_cell_length_c   8.06875515
_cell_angle_alpha   89.87514496
_cell_angle_beta   90.00000000
_cell_angle_gamma   90.00000000
_symmetry_Int_Tables_number   1
_chemical_formula_structural   Li4AlBH3C2N9
_chemical_formula_sum   'Li4 Al1 B1 H3 C2 N9'
_cell_volume   209.95066142
_cell_formula_units_Z   1
loop_
 _symmetry_equiv_pos_site_id
 _symmetry_equiv_pos_as_xyz
  1  'x, y, z'
loop_
 _atom_site_type_symbol
 _atom_site_label
 _atom_site_symmetry_multiplicity
 _atom_site_fract_x
 _atom_site_fract_y
 _atom_site_fract_z
 _atom_site_occupancy
  Li  Li0  1  0.25000001  0.24334099  0.90002000  1
  Li  Li1  1  0.75000003  0.25025899  0.43261000  1
  Al  Al2  1  0.25000001  0.74974097  0.56739001  1
  Li  Li3  1  0.75000003  0.75665897  0.09998001  1
  H  H4  1  0.25000001  0.19311099  0.25199400  1
  B  B5  1  0.75000003  0.50849298  0.75489201  1
  Li  Li6  1  0.25000001  0.49150698  0.24510801  1
  C  C7  1  0.75000003  0.80688897  0.74800601  1
  H  H8  1  0.48588002  0.11241800  0.17303200  1
  C  C9  1  0.01412000  0.11241800  0.17303200  1
  N  N10  1  0.25000001  0.12401200  0.42186600  1
  N  N11  1  0.75000003  0.42249298  0.91687701  1
  N  N12  1  0.51588702  0.41800398  0.67202301  1
  N  N13  1  0.98411304  0.41800398  0.67202301  1
  N  N14  1  0.01588700  0.58199598  0.32797701  1
  N  N15  1  0.48411302  0.58199598  0.32797701  1
  N  N16  1  0.25000001  0.57750698  0.08312301  1
  H  H17  1  0.75000003  0.87598797  0.57813401  1
  N  N18  1  0.98588004  0.88758196  0.82696801  1
  N  N19  1  0.51412002  0.88758196  0.82696801  1
