# generated using pymatgen
data_NaLi3N3O
_symmetry_space_group_name_H-M   'P 1'
_cell_length_a   4.06591988
_cell_length_b   5.53295803
_cell_length_c   5.61627007
_cell_angle_alpha   103.82484436
_cell_angle_beta   90.00000000
_cell_angle_gamma   90.00000000
_symmetry_Int_Tables_number   1
_chemical_formula_structural   NaLi3N3O
_chemical_formula_sum   'Na1 Li3 N3 O1'
_cell_volume   122.68660855
_cell_formula_units_Z   1
loop_
 _symmetry_equiv_pos_site_id
 _symmetry_equiv_pos_as_xyz
  1  'x, y, z'
loop_
 _atom_site_type_symbol
 _atom_site_label
 _atom_site_symmetry_multiplicity
 _atom_site_fract_x
 _atom_site_fract_y
 _atom_site_fract_z
 _atom_site_occupancy
  Na  Na0  1  0.50000002  0.00000000  0.50000000  1
  Li  Li1  1  -0.00000000  0.50000000  0.50000002  1
  Li  Li2  1  0.50000002  0.50000000  1.00000002  1
  Li  Li3  1  0.00000000  0.00000000  0.00000000  1
  N  N4  1  0.21016001  0.77665000  0.20009003  1
  N  N5  1  0.71016002  0.72335000  0.79991002  1
  O  O6  1  0.78984002  0.22335000  0.79991001  1
  N  N7  1  0.28984001  0.27665000  0.20009001  1
