# generated using pymatgen
data_NaLi2BN6
_symmetry_space_group_name_H-M   'P 1'
_cell_length_a   4.06963015
_cell_length_b   5.77080107
_cell_length_c   7.51157999
_cell_angle_alpha   102.47657776
_cell_angle_beta   90.00000000
_cell_angle_gamma   110.64675140
_symmetry_Int_Tables_number   1
_chemical_formula_structural   NaLi2BN6
_chemical_formula_sum   'Na1 Li2 B1 N6'
_cell_volume   160.61960625
_cell_formula_units_Z   1
loop_
 _symmetry_equiv_pos_site_id
 _symmetry_equiv_pos_as_xyz
  1  'x, y, z'
loop_
 _atom_site_type_symbol
 _atom_site_label
 _atom_site_symmetry_multiplicity
 _atom_site_fract_x
 _atom_site_fract_y
 _atom_site_fract_z
 _atom_site_occupancy
  Na  Na0  1  0.83592201  0.67184401  0.19679398  1
  Li  Li1  1  0.16407801  0.32815601  0.80320600  1
  B  B2  1  0.54125899  0.08251800  0.15445400  1
  Li  Li3  1  0.45874103  0.91748202  0.84554598  1
  N  N4  1  0.36617203  0.73234402  0.02570898  1
  N  N5  1  0.63382799  0.26765601  0.97429100  1
  N  N6  1  0.60591799  0.21183600  0.38095100  1
  N  N7  1  0.35148503  0.70297002  0.45961998  1
  N  N8  1  0.39408203  0.78816402  0.61904898  1
  N  N9  1  0.64851499  0.29703001  0.54037999  1
