# generated using pymatgen
data_Li9CoO10
_symmetry_space_group_name_H-M   'P 1'
_cell_length_a   5.41583776
_cell_length_b   5.44055271
_cell_length_c   7.97704697
_cell_angle_alpha   82.34098816
_cell_angle_beta   70.15579224
_cell_angle_gamma   66.88294983
_symmetry_Int_Tables_number   1
_chemical_formula_structural   Li9CoO10
_chemical_formula_sum   'Li9 Co1 O10'
_cell_volume   203.33541759
_cell_formula_units_Z   1
loop_
 _symmetry_equiv_pos_site_id
 _symmetry_equiv_pos_as_xyz
  1  'x, y, z'
loop_
 _atom_site_type_symbol
 _atom_site_label
 _atom_site_symmetry_multiplicity
 _atom_site_fract_x
 _atom_site_fract_y
 _atom_site_fract_z
 _atom_site_occupancy
  Li  Li0  1  0.89807702  0.00000000  0.20384604  1
  Li  Li1  1  0.49794701  0.00000000  0.00410602  1
  Li  Li2  1  0.20267502  0.50000001  0.59465000  1
  Li  Li3  1  0.80142604  0.50000001  0.39714803  1
  Li  Li4  1  0.30370601  0.00000000  0.39258802  1
  Li  Li5  1  0.99905304  0.50000001  0.00189402  1
  Li  Li6  1  0.09775400  0.00000000  0.80449202  1
  Li  Li7  1  0.70108101  0.00000000  0.59783805  1
  Li  Li8  1  0.39649803  0.50000001  0.20700400  1
  Co  Co9  1  0.60587903  0.50000001  0.78824203  1
  O  O10  1  0.65061904  0.74995901  0.20024900  1
  O  O11  1  0.85033105  0.73746001  0.81824303  1
  O  O12  1  0.08356803  0.78481401  0.40030098  1
  O  O13  1  0.51613102  0.21518600  0.40030102  1
  O  O14  1  0.45298804  0.76317301  0.58327101  1
  O  O15  1  0.21804403  0.71757101  0.00200098  1
  O  O16  1  0.14913201  0.25004100  0.20024900  1
  O  O17  1  0.77995503  0.28242900  0.00200102  1
  O  O18  1  0.96374103  0.23682700  0.58327105  1
  O  O19  1  0.33142602  0.26254000  0.81824303  1
