# generated using pymatgen
data_BaNaSiO5
_symmetry_space_group_name_H-M   'P 1'
_cell_length_a   5.84119987
_cell_length_b   5.85770845
_cell_length_c   5.84119987
_cell_angle_alpha   119.90681458
_cell_angle_beta   90.00000000
_cell_angle_gamma   119.90681458
_symmetry_Int_Tables_number   1
_chemical_formula_structural   BaNaSiO5
_chemical_formula_sum   'Ba1 Na1 Si1 O5'
_cell_volume   141.72149217
_cell_formula_units_Z   1
loop_
 _symmetry_equiv_pos_site_id
 _symmetry_equiv_pos_as_xyz
  1  'x, y, z'
loop_
 _atom_site_type_symbol
 _atom_site_label
 _atom_site_symmetry_multiplicity
 _atom_site_fract_x
 _atom_site_fract_y
 _atom_site_fract_z
 _atom_site_occupancy
  Na  Na0  1  0.74999999  0.49999999  0.24999998  1
  Ba  Ba1  1  0.50000001  0.00000000  0.50000001  1
  Si  Si2  1  0.24999998  0.49999999  0.74999999  1
  O  O3  1  0.00000000  0.00000000  0.00000000  1
  O  O4  1  0.16793399  0.24999999  0.37500000  1
  O  O5  1  0.08206599  0.24999999  0.87500001  1
  O  O6  1  0.62499998  0.74999998  0.91793398  1
  O  O7  1  0.12499997  0.74999998  0.83206598  1
