# generated using pymatgen
data_NaLi2Al(HO2)4
_symmetry_space_group_name_H-M   'P 1'
_cell_length_a   3.52717900
_cell_length_b   4.96319199
_cell_length_c   11.08569145
_cell_angle_alpha   90.00000000
_cell_angle_beta   90.00000000
_cell_angle_gamma   90.00000000
_symmetry_Int_Tables_number   1
_chemical_formula_structural   NaLi2Al(HO2)4
_chemical_formula_sum   'Na1 Li2 Al1 H4 O8'
_cell_volume   194.06685242
_cell_formula_units_Z   1
loop_
 _symmetry_equiv_pos_site_id
 _symmetry_equiv_pos_as_xyz
  1  'x, y, z'
loop_
 _atom_site_type_symbol
 _atom_site_label
 _atom_site_symmetry_multiplicity
 _atom_site_fract_x
 _atom_site_fract_y
 _atom_site_fract_z
 _atom_site_occupancy
  Li  Li0  1  0.25000000  0.06810300  0.85487097  1
  Na  Na1  1  0.25000000  0.43189700  0.35487099  1
  Li  Li2  1  0.75000000  0.56810300  0.64512897  1
  Al  Al3  1  0.75000000  0.93189700  0.14512899  1
  H  H4  1  0.25000000  0.11007000  0.58762698  1
  H  H5  1  0.25000000  0.38993000  0.08762700  1
  H  H6  1  0.75000000  0.61007000  0.91237296  1
  O  O7  1  0.75000000  0.88993000  0.41237298  1
  O  O8  1  0.25000000  0.19924400  0.05937800  1
  H  H9  1  0.75000000  0.18845800  0.30663199  1
  O  O10  1  0.75000000  0.31154200  0.80663197  1
  O  O11  1  0.25000000  0.30075600  0.55937798  1
  O  O12  1  0.75000000  0.69924400  0.44062198  1
  O  O13  1  0.25000000  0.68845800  0.19336799  1
  O  O14  1  0.25000000  0.81154200  0.69336797  1
  O  O15  1  0.75000000  0.80075600  0.94062196  1
