# generated using pymatgen
data_Li2O2
_symmetry_space_group_name_H-M   'P 1'
_cell_length_a   3.99749589
_cell_length_b   6.97607613
_cell_length_c   7.12914848
_cell_angle_alpha   106.55901337
_cell_angle_beta   90.00000000
_cell_angle_gamma   106.64940643
_symmetry_Int_Tables_number   1
_chemical_formula_structural   Li2O2
_chemical_formula_sum   'Li6 O6'
_cell_volume   181.85167975
_cell_formula_units_Z   3
loop_
 _symmetry_equiv_pos_site_id
 _symmetry_equiv_pos_as_xyz
  1  'x, y, z'
loop_
 _atom_site_type_symbol
 _atom_site_label
 _atom_site_symmetry_multiplicity
 _atom_site_fract_x
 _atom_site_fract_y
 _atom_site_fract_z
 _atom_site_occupancy
  Li  Li0  1  0.19568499  0.39136999  0.79545798  1
  Li  Li1  1  0.80431499  0.60862998  0.20454199  1
  Li  Li2  1  0.10094599  0.20189199  0.21397800  1
  Li  Li3  1  0.89905398  0.79810798  0.78602198  1
  O  O4  1  0.04895600  0.09791200  0.86764198  1
  O  O5  1  0.13281199  0.26562399  0.48210599  1
  O  O6  1  0.75428199  0.50856399  0.85856598  1
  Li  Li7  1  0.63001800  0.26003599  0.19945800  1
  O  O8  1  0.36998197  0.73996398  0.80054198  1
  O  O9  1  0.24571798  0.49143599  0.14143400  1
  O  O10  1  0.86718799  0.73437598  0.51789399  1
  Li  Li11  1  0.95104398  0.90208797  0.13235800  1
