# generated using pymatgen
data_NaAgS3
_symmetry_space_group_name_H-M   'P 1'
_cell_length_a   4.02117395
_cell_length_b   5.66782999
_cell_length_c   10.60807037
_cell_angle_alpha   105.49456787
_cell_angle_beta   100.92557526
_cell_angle_gamma   90.00000000
_symmetry_Int_Tables_number   1
_chemical_formula_structural   NaAgS3
_chemical_formula_sum   'Na2 Ag2 S6'
_cell_volume   228.43420263
_cell_formula_units_Z   2
loop_
 _symmetry_equiv_pos_site_id
 _symmetry_equiv_pos_as_xyz
  1  'x, y, z'
loop_
 _atom_site_type_symbol
 _atom_site_label
 _atom_site_symmetry_multiplicity
 _atom_site_fract_x
 _atom_site_fract_y
 _atom_site_fract_z
 _atom_site_occupancy
  Na  Na0  1  0.40025900  0.40025899  0.80051799  1
  Na  Na1  1  0.79993001  0.79992999  0.59985998  1
  Ag  Ag2  1  0.20007000  0.20007000  0.40013999  1
  Ag  Ag3  1  0.59974101  0.59974099  0.19948198  1
  S  S4  1  0.00000000  0.00000000  0.00000000  1
  S  S5  1  0.20002200  0.70002199  0.40004398  1
  S  S6  1  0.60064601  0.10064600  0.20129200  1
  S  S7  1  -0.00000000  0.49999999  -0.00000002  1
  S  S8  1  0.39935400  0.89935399  0.79870797  1
  S  S9  1  0.79997801  0.29997800  0.59995600  1
