# generated using pymatgen
data_RbSrCdAgBi3S13
_symmetry_space_group_name_H-M   'P 1'
_cell_length_a   4.01734304
_cell_length_b   9.58492088
_cell_length_c   15.50029278
_cell_angle_alpha   90.00000000
_cell_angle_beta   90.00000000
_cell_angle_gamma   90.00000000
_symmetry_Int_Tables_number   1
_chemical_formula_structural   RbSrCdAgBi3S13
_chemical_formula_sum   'Rb1 Sr1 Cd1 Ag1 Bi3 S13'
_cell_volume   596.85295991
_cell_formula_units_Z   1
loop_
 _symmetry_equiv_pos_site_id
 _symmetry_equiv_pos_as_xyz
  1  'x, y, z'
loop_
 _atom_site_type_symbol
 _atom_site_label
 _atom_site_symmetry_multiplicity
 _atom_site_fract_x
 _atom_site_fract_y
 _atom_site_fract_z
 _atom_site_occupancy
  Rb  Rb0  1  0.25000000  0.16268800  0.55472901  1
  Sr  Sr1  1  0.74999999  0.83731201  0.44527101  1
  Cd  Cd2  1  0.25000000  0.66268801  0.94527101  1
  Ag  Ag3  1  0.74999999  0.33731200  0.05472900  1
  Bi  Bi4  1  0.25000000  0.45927401  0.32377800  1
  Bi  Bi5  1  0.74999999  0.54072601  0.67622201  1
  Bi  Bi6  1  0.25000000  0.95927401  0.17622200  1
  S  S7  1  0.74999999  0.04072600  0.82377801  1
  S  S8  1  0.74999999  0.48008001  0.89981701  1
  S  S9  1  0.25000000  0.51992001  0.10018300  1
  S  S10  1  0.74999999  0.98008001  0.60018301  1
  S  S11  1  0.25000000  0.01992000  0.39981701  1
  S  S12  1  0.74999999  0.82541601  0.00359700  1
  S  S13  1  0.25000000  0.17458400  0.99640301  1
  S  S14  1  0.74999999  0.32541600  0.49640301  1
  S  S15  1  0.25000000  0.67458401  0.50359701  1
  S  S16  1  0.74999999  0.22262200  0.20715300  1
  S  S17  1  0.25000000  0.77737801  0.79284701  1
  S  S18  1  0.74999999  0.72262201  0.29284700  1
  S  S19  1  0.25000000  0.27737800  0.70715301  1
