# generated using pymatgen
data_Na2LiAg2PSe7S2
_symmetry_space_group_name_H-M   'P 1'
_cell_length_a   7.82370949
_cell_length_b   7.82370949
_cell_length_c   7.82370949
_cell_angle_alpha   60.00000000
_cell_angle_beta   60.00000000
_cell_angle_gamma   60.00000000
_symmetry_Int_Tables_number   1
_chemical_formula_structural   Na2LiAg2PSe7S2
_chemical_formula_sum   'Na2 Li1 Ag2 P1 Se7 S2'
_cell_volume   338.62822128
_cell_formula_units_Z   1
loop_
 _symmetry_equiv_pos_site_id
 _symmetry_equiv_pos_as_xyz
  1  'x, y, z'
loop_
 _atom_site_type_symbol
 _atom_site_label
 _atom_site_symmetry_multiplicity
 _atom_site_fract_x
 _atom_site_fract_y
 _atom_site_fract_z
 _atom_site_occupancy
  Li  Li0  1  0.50000000  0.00000000  -0.00000000  1
  Na  Na1  1  0.50000000  0.00000000  0.50000000  1
  Na  Na2  1  0.99999999  0.50000000  -0.00000000  1
  Ag  Ag3  1  0.99999999  0.50000000  0.50000000  1
  Ag  Ag4  1  0.50000000  0.50000000  -0.00000000  1
  Se  Se5  1  0.00000000  0.00000000  0.50000000  1
  Se  Se6  1  0.00000000  0.00000000  0.00000000  1
  Se  Se7  1  0.75000000  0.75000000  0.75000000  1
  Se  Se8  1  0.25000000  0.25000000  0.25000000  1
  P  P9  1  0.24287300  0.75712700  0.75712700  1
  Se  Se10  1  0.75712700  0.24287300  0.75712700  1
  Se  Se11  1  0.24287300  0.75712700  0.24287300  1
  Se  Se12  1  0.75712700  0.75712700  0.24287300  1
  S  S13  1  0.24287300  0.24287300  0.75712700  1
  S  S14  1  0.75712700  0.24287300  0.24287300  1
