# generated using pymatgen
data_SnTeS4
_symmetry_space_group_name_H-M   'P 1'
_cell_length_a   5.70343018
_cell_length_b   6.23917389
_cell_length_c   6.60998583
_cell_angle_alpha   118.16098785
_cell_angle_beta   115.55804443
_cell_angle_gamma   90.00000000
_symmetry_Int_Tables_number   1
_chemical_formula_structural   SnTeS4
_chemical_formula_sum   'Sn1 Te1 S4'
_cell_volume   180.84522485
_cell_formula_units_Z   1
loop_
 _symmetry_equiv_pos_site_id
 _symmetry_equiv_pos_as_xyz
  1  'x, y, z'
loop_
 _atom_site_type_symbol
 _atom_site_label
 _atom_site_symmetry_multiplicity
 _atom_site_fract_x
 _atom_site_fract_y
 _atom_site_fract_z
 _atom_site_occupancy
  Te  Te0  1  0.49999998  0.00000000  -0.00000001  1
  Sn  Sn1  1  0.00000000  0.00000000  0.00000000  1
  S  S2  1  0.88978891  0.92732398  0.22580990  1
  S  S3  1  0.33602097  0.29848599  0.22580997  1
  S  S4  1  0.66397897  0.07267600  0.77418998  1
  S  S5  1  0.11021095  0.70151398  0.77418994  1
