# generated using pymatgen
data_Ba2SrCaGeWO9
_symmetry_space_group_name_H-M   'P 1'
_cell_length_a   5.97395420
_cell_length_b   5.97395325
_cell_length_c   7.33228016
_cell_angle_alpha   90.00000000
_cell_angle_beta   90.00000000
_cell_angle_gamma   120.00000763
_symmetry_Int_Tables_number   1
_chemical_formula_structural   Ba2SrCaGeWO9
_chemical_formula_sum   'Ba2 Sr1 Ca1 Ge1 W1 O9'
_cell_volume   226.61745454
_cell_formula_units_Z   1
loop_
 _symmetry_equiv_pos_site_id
 _symmetry_equiv_pos_as_xyz
  1  'x, y, z'
loop_
 _atom_site_type_symbol
 _atom_site_label
 _atom_site_symmetry_multiplicity
 _atom_site_fract_x
 _atom_site_fract_y
 _atom_site_fract_z
 _atom_site_occupancy
  Sr  Sr0  1  0.00000000  0.00000000  0.49999999  1
  Ba  Ba1  1  0.33333337  0.66666668  0.18854800  1
  Ba  Ba2  1  0.66666667  0.33333334  0.81145198  1
  Ca  Ca3  1  0.33333337  0.66666668  0.66683999  1
  W  W4  1  0.66666667  0.33333334  0.33315999  1
  Ge  Ge5  1  0.00000000  0.00000000  0.00000000  1
  O  O6  1  0.31198100  0.15599000  0.15269900  1
  O  O7  1  0.68801903  0.84401002  0.84730098  1
  O  O8  1  1.00000000  0.50000001  0.49999999  1
  O  O9  1  0.50000002  0.50000001  0.49999999  1
  O  O10  1  0.84400898  0.15599000  0.15269900  1
  O  O11  1  0.15599105  0.84401002  0.84730098  1
  O  O12  1  0.49999998  0.00000000  0.49999999  1
  O  O13  1  0.84400902  0.68801802  0.15269900  1
  O  O14  1  0.15599101  0.31198201  0.84730098  1
