# generated using pymatgen
data_Li6H7CN6
_symmetry_space_group_name_H-M   'P 1'
_cell_length_a   4.39730978
_cell_length_b   5.48792219
_cell_length_c   7.42380619
_cell_angle_alpha   90.00000000
_cell_angle_beta   90.00000000
_cell_angle_gamma   90.00000000
_symmetry_Int_Tables_number   1
_chemical_formula_structural   Li6H7CN6
_chemical_formula_sum   'Li6 H7 C1 N6'
_cell_volume   179.15198828
_cell_formula_units_Z   1
loop_
 _symmetry_equiv_pos_site_id
 _symmetry_equiv_pos_as_xyz
  1  'x, y, z'
loop_
 _atom_site_type_symbol
 _atom_site_label
 _atom_site_symmetry_multiplicity
 _atom_site_fract_x
 _atom_site_fract_y
 _atom_site_fract_z
 _atom_site_occupancy
  Li  Li0  1  0.75000004  0.45449198  0.63778498  1
  Li  Li1  1  0.25000001  0.54550798  0.36221499  1
  Li  Li2  1  0.75000004  0.95449197  0.86221498  1
  Li  Li3  1  0.25000001  0.04550800  0.13778500  1
  H  H4  1  0.75000004  0.77768497  0.15363400  1
  Li  Li5  1  0.25000001  0.22231499  0.84636598  1
  Li  Li6  1  0.75000004  0.27768499  0.34636599  1
  H  H7  1  0.25000001  0.72231497  0.65363398  1
  H  H8  1  0.75000004  0.94682097  0.35294199  1
  H  H9  1  0.25000001  0.05317900  0.64705798  1
  H  H10  1  0.75000004  0.44682098  0.14705800  1
  H  H11  1  0.25000001  0.55317898  0.85294198  1
  N  N12  1  0.94195205  0.36770099  0.93683598  1
  H  H13  1  0.44195202  0.63229898  0.06316400  1
  N  N14  1  0.55804803  0.86770097  0.56316399  1
  N  N15  1  0.05804800  0.13229900  0.43683599  1
  N  N16  1  0.05804800  0.63229898  0.06316400  1
  C  C17  1  0.55804803  0.36770099  0.93683598  1
  N  N18  1  0.44195202  0.13229900  0.43683599  1
  N  N19  1  0.94195205  0.86770097  0.56316399  1
