# generated using pymatgen
data_Sr2CaTeO12
_symmetry_space_group_name_H-M   'P 1'
_cell_length_a   5.65569019
_cell_length_b   7.28330612
_cell_length_c   7.28370905
_cell_angle_alpha   109.69917297
_cell_angle_beta   90.00000000
_cell_angle_gamma   112.84651947
_symmetry_Int_Tables_number   1
_chemical_formula_structural   Sr2CaTeO12
_chemical_formula_sum   'Sr2 Ca1 Te1 O12'
_cell_volume   257.33307797
_cell_formula_units_Z   1
loop_
 _symmetry_equiv_pos_site_id
 _symmetry_equiv_pos_as_xyz
  1  'x, y, z'
loop_
 _atom_site_type_symbol
 _atom_site_label
 _atom_site_symmetry_multiplicity
 _atom_site_fract_x
 _atom_site_fract_y
 _atom_site_fract_z
 _atom_site_occupancy
  Sr  Sr0  1  0.16569401  0.33138802  0.64797103  1
  Te  Te1  1  0.83430600  0.66861204  0.35202905  1
  Ca  Ca2  1  0.51291798  0.02583600  0.25030700  1
  Sr  Sr3  1  0.48708203  0.97416406  0.74969307  1
  O  O4  1  0.15767601  0.31535202  0.11247602  1
  O  O5  1  0.84232400  0.68464804  0.88752405  1
  O  O6  1  0.26312899  0.00000000  0.00000000  1
  O  O7  1  0.73687097  0.00000000  1.00000001  1
  O  O8  1  0.69557199  0.39114402  0.28586003  1
  O  O9  1  0.30442802  0.60885604  0.71414005  1
  O  O10  1  0.61622301  0.73115904  0.24062505  1
  O  O11  1  0.88506398  0.26884102  0.75937503  1
  O  O12  1  0.89982401  0.79964805  0.60675806  1
  O  O13  1  0.10017601  0.20035201  0.39324202  1
  O  O14  1  0.11493603  0.73115904  0.24062505  1
  O  O15  1  0.38377700  0.26884102  0.75937503  1
