# generated using pymatgen
data_KLiAg2(SeS2)2
_symmetry_space_group_name_H-M   'P 1'
_cell_length_a   6.22114182
_cell_length_b   6.75724792
_cell_length_c   7.45616388
_cell_angle_alpha   116.94478607
_cell_angle_beta   114.65674591
_cell_angle_gamma   90.00000000
_symmetry_Int_Tables_number   1
_chemical_formula_structural   KLiAg2(SeS2)2
_chemical_formula_sum   'K1 Li1 Ag2 Se2 S4'
_cell_volume   246.92914555
_cell_formula_units_Z   1
loop_
 _symmetry_equiv_pos_site_id
 _symmetry_equiv_pos_as_xyz
  1  'x, y, z'
loop_
 _atom_site_type_symbol
 _atom_site_label
 _atom_site_symmetry_multiplicity
 _atom_site_fract_x
 _atom_site_fract_y
 _atom_site_fract_z
 _atom_site_occupancy
  Li  Li0  1  0.86033899  0.51523700  0.72067796  1
  K  K1  1  0.13966098  0.48476300  0.27932199  1
  Ag  Ag2  1  0.63965998  0.79455800  0.27932096  1
  Ag  Ag3  1  0.36034000  0.20544200  0.72067899  1
  Se  Se4  1  0.25000000  0.00000000  -0.00000001  1
  Se  Se5  1  0.75000001  0.00000000  -0.00000003  1
  S  S6  1  0.38676198  0.67183000  0.77352398  1
  S  S7  1  0.61323799  0.32817000  0.22647597  1
  S  S8  1  0.11323797  0.89830600  0.22647598  1
  S  S9  1  0.88676200  0.10169400  0.77352397  1
