# generated using pymatgen
data_Na2Li4FeCuO12
_symmetry_space_group_name_H-M   'P 1'
_cell_length_a   5.51149702
_cell_length_b   5.80231190
_cell_length_c   7.83138657
_cell_angle_alpha   90.00000000
_cell_angle_beta   89.52374268
_cell_angle_gamma   90.00000000
_symmetry_Int_Tables_number   1
_chemical_formula_structural   Na2Li4FeCuO12
_chemical_formula_sum   'Na2 Li4 Fe1 Cu1 O12'
_cell_volume   250.43458530
_cell_formula_units_Z   1
loop_
 _symmetry_equiv_pos_site_id
 _symmetry_equiv_pos_as_xyz
  1  'x, y, z'
loop_
 _atom_site_type_symbol
 _atom_site_label
 _atom_site_symmetry_multiplicity
 _atom_site_fract_x
 _atom_site_fract_y
 _atom_site_fract_z
 _atom_site_occupancy
  Na  Na0  1  0.50000000  0.50000001  0.00000001  1
  Li  Li1  1  0.00000000  0.00000000  0.50000000  1
  Na  Na2  1  0.48490000  0.06671500  0.24874001  1
  Li  Li3  1  0.51510000  0.93328502  0.75126001  1
  Fe  Fe4  1  0.01510000  0.56671501  0.25126000  1
  Li  Li5  1  0.98490000  0.43328501  0.74874002  1
  Cu  Cu6  1  0.50000000  0.50000001  0.50000001  1
  Li  Li7  1  0.00000000  0.00000000  0.00000000  1
  O  O8  1  0.59337300  0.47369501  0.25622201  1
  O  O9  1  0.40662700  0.52630501  0.74377801  1
  O  O10  1  0.90662700  0.97369502  0.24377802  1
  O  O11  1  0.09337300  0.02630500  0.75622200  1
  O  O12  1  0.20822000  0.31116201  0.45322300  1
  O  O13  1  0.79178000  0.68883801  0.54677702  1
  O  O14  1  0.29178000  0.81116201  0.04677701  1
  O  O15  1  0.70822000  0.18883800  0.95322301  1
  O  O16  1  0.31471000  0.78707801  0.44954301  1
  O  O17  1  0.68529000  0.21292200  0.55045701  1
  O  O18  1  0.18529000  0.28707801  0.05045700  1
  O  O19  1  0.81471000  0.71292201  0.94954302  1
