# generated using pymatgen
data_K5SrLiAgSbTeS2
_symmetry_space_group_name_H-M   'P 1'
_cell_length_a   4.94864702
_cell_length_b   8.23367786
_cell_length_c   8.69123840
_cell_angle_alpha   90.00000000
_cell_angle_beta   90.00000000
_cell_angle_gamma   90.00000000
_symmetry_Int_Tables_number   1
_chemical_formula_structural   K5SrLiAgSbTeS2
_chemical_formula_sum   'K5 Sr1 Li1 Ag1 Sb1 Te1 S2'
_cell_volume   354.12942315
_cell_formula_units_Z   1
loop_
 _symmetry_equiv_pos_site_id
 _symmetry_equiv_pos_as_xyz
  1  'x, y, z'
loop_
 _atom_site_type_symbol
 _atom_site_label
 _atom_site_symmetry_multiplicity
 _atom_site_fract_x
 _atom_site_fract_y
 _atom_site_fract_z
 _atom_site_occupancy
  Li  Li0  1  0.75000000  0.49688301  0.70859097  1
  Sr  Sr1  1  0.25000000  0.50311701  0.29140899  1
  K  K2  1  0.75000000  0.99688302  0.79140896  1
  K  K3  1  0.25000000  0.00311700  0.20859099  1
  K  K4  1  0.75000000  0.33708501  0.07490700  1
  Ag  Ag5  1  0.25000000  0.66291501  0.92509296  1
  K  K6  1  0.75000000  0.83708501  0.42509298  1
  K  K7  1  0.25000000  0.16291500  0.57490697  1
  Sb  Sb8  1  0.75000000  0.72377301  0.09381300  1
  Te  Te9  1  0.25000000  0.27622700  0.90618696  1
  S  S10  1  0.75000000  0.22377300  0.40618698  1
  S  S11  1  0.25000000  0.77622701  0.59381297  1
