# generated using pymatgen
data_Li4ClO7
_symmetry_space_group_name_H-M   'P 1'
_cell_length_a   5.22586250
_cell_length_b   5.22586250
_cell_length_c   5.22752714
_cell_angle_alpha   100.21986389
_cell_angle_beta   100.21986389
_cell_angle_gamma   119.52648926
_symmetry_Int_Tables_number   1
_chemical_formula_structural   Li4ClO7
_chemical_formula_sum   'Li4 Cl1 O7'
_cell_volume   116.25537496
_cell_formula_units_Z   1
loop_
 _symmetry_equiv_pos_site_id
 _symmetry_equiv_pos_as_xyz
  1  'x, y, z'
loop_
 _atom_site_type_symbol
 _atom_site_label
 _atom_site_symmetry_multiplicity
 _atom_site_fract_x
 _atom_site_fract_y
 _atom_site_fract_z
 _atom_site_occupancy
  Li  Li0  1  0.17125199  0.82874799  0.49999996  1
  Li  Li1  1  0.83020699  0.16979300  0.49999997  1
  Li  Li2  1  0.49839699  0.50160299  0.49999996  1
  Li  Li3  1  0.33393899  0.66606099  -0.00000006  1
  O  O4  1  0.66566199  0.33433800  0.99999999  1
  Cl  Cl5  1  0.99977399  0.00022600  -0.00000006  1
  O  O6  1  0.91644299  0.61148999  0.76618595  1
  O  O7  1  0.61968999  0.93094399  0.76424294  1
  O  O8  1  0.06905600  0.38030999  0.23575698  1
  O  O9  1  0.38851000  0.08355700  0.23381398  1
  O  O10  1  0.77470299  0.76763399  0.22412492  1
  O  O11  1  0.23236600  0.22529700  0.77587501  1
