# generated using pymatgen
data_NaSr2Li(AgS)4
_symmetry_space_group_name_H-M   'P 1'
_cell_length_a   4.66334581
_cell_length_b   7.66179085
_cell_length_c   8.25736713
_cell_angle_alpha   90.00000000
_cell_angle_beta   90.00000000
_cell_angle_gamma   90.00000000
_symmetry_Int_Tables_number   1
_chemical_formula_structural   NaSr2Li(AgS)4
_chemical_formula_sum   'Na1 Sr2 Li1 Ag4 S4'
_cell_volume   295.03226188
_cell_formula_units_Z   1
loop_
 _symmetry_equiv_pos_site_id
 _symmetry_equiv_pos_as_xyz
  1  'x, y, z'
loop_
 _atom_site_type_symbol
 _atom_site_label
 _atom_site_symmetry_multiplicity
 _atom_site_fract_x
 _atom_site_fract_y
 _atom_site_fract_z
 _atom_site_occupancy
  Li  Li0  1  0.25000001  0.15665900  0.92562498  1
  Na  Na1  1  0.25000001  0.65665901  0.57437499  1
  Sr  Sr2  1  0.75000003  0.84334102  0.07437500  1
  Sr  Sr3  1  0.75000003  0.34334101  0.42562499  1
  Ag  Ag4  1  0.25000001  0.00705200  0.29343700  1
  Ag  Ag5  1  0.25000001  0.50705201  0.20656300  1
  Ag  Ag6  1  0.75000003  0.99294802  0.70656299  1
  Ag  Ag7  1  0.75000003  0.49294801  0.79343699  1
  S  S8  1  0.25000001  0.26977801  0.59661699  1
  S  S9  1  0.25000001  0.76977802  0.90338299  1
  S  S10  1  0.75000003  0.73022201  0.40338299  1
  S  S11  1  0.75000003  0.23022200  0.09661700  1
