# generated using pymatgen
data_NaLi3Cu2SeS7
_symmetry_space_group_name_H-M   'P 1'
_cell_length_a   7.65972424
_cell_length_b   7.65972424
_cell_length_c   7.65972424
_cell_angle_alpha   60.00000000
_cell_angle_beta   60.00000000
_cell_angle_gamma   60.00000000
_symmetry_Int_Tables_number   1
_chemical_formula_structural   NaLi3Cu2SeS7
_chemical_formula_sum   'Na1 Li3 Cu2 Se1 S7'
_cell_volume   317.77842312
_cell_formula_units_Z   1
loop_
 _symmetry_equiv_pos_site_id
 _symmetry_equiv_pos_as_xyz
  1  'x, y, z'
loop_
 _atom_site_type_symbol
 _atom_site_label
 _atom_site_symmetry_multiplicity
 _atom_site_fract_x
 _atom_site_fract_y
 _atom_site_fract_z
 _atom_site_occupancy
  Li  Li0  1  0.87500001  0.37500000  0.87500001  1
  Na  Na1  1  0.87500001  0.87500001  0.87500001  1
  Li  Li2  1  0.87500001  0.87500001  0.37500000  1
  Li  Li3  1  0.37500000  0.87500001  0.87500001  1
  Cu  Cu4  1  0.50000000  0.50000000  0.50000000  1
  Cu  Cu5  1  0.25000000  0.25000000  0.25000000  1
  S  S6  1  0.09268100  0.63577301  0.63577301  1
  S  S7  1  0.11422600  0.11422700  0.65732001  1
  S  S8  1  0.11422600  0.65732001  0.11422700  1
  Se  Se9  1  0.11422600  0.11422700  0.11422700  1
  S  S10  1  0.63577401  0.09268000  0.63577301  1
  S  S11  1  0.63577401  0.63577301  0.63577301  1
  S  S12  1  0.65731901  0.11422700  0.11422700  1
  S  S13  1  0.63577401  0.63577301  0.09268000  1
