# generated using pymatgen
data_KCuAgTeS
_symmetry_space_group_name_H-M   'P 1'
_cell_length_a   5.59204674
_cell_length_b   5.60540915
_cell_length_c   5.60540915
_cell_angle_alpha   89.23976898
_cell_angle_beta   89.03163147
_cell_angle_gamma   89.03163147
_symmetry_Int_Tables_number   1
_chemical_formula_structural   KCuAgTeS
_chemical_formula_sum   'K1 Cu1 Ag1 Te1 S1'
_cell_volume   175.64053129
_cell_formula_units_Z   1
loop_
 _symmetry_equiv_pos_site_id
 _symmetry_equiv_pos_as_xyz
  1  'x, y, z'
loop_
 _atom_site_type_symbol
 _atom_site_label
 _atom_site_symmetry_multiplicity
 _atom_site_fract_x
 _atom_site_fract_y
 _atom_site_fract_z
 _atom_site_occupancy
  K  K0  1  0.99940491  0.99815298  0.99815291  1
  Cu  Cu1  1  0.46657696  0.47837799  0.47837796  1
  Ag  Ag2  1  0.48635696  0.49814499  0.01455996  1
  Te  Te3  1  0.99921294  0.50571399  0.50571393  1
  S  S4  1  0.48635698  0.01456000  0.49814496  1
