# generated using pymatgen
data_NaLu(AgS4)2
_symmetry_space_group_name_H-M   'P 1'
_cell_length_a   3.91910005
_cell_length_b   6.82824469
_cell_length_c   10.15246105
_cell_angle_alpha   90.00000000
_cell_angle_beta   90.00000000
_cell_angle_gamma   106.67707062
_symmetry_Int_Tables_number   1
_chemical_formula_structural   NaLu(AgS4)2
_chemical_formula_sum   'Na1 Lu1 Ag2 S8'
_cell_volume   260.25788444
_cell_formula_units_Z   1
loop_
 _symmetry_equiv_pos_site_id
 _symmetry_equiv_pos_as_xyz
  1  'x, y, z'
loop_
 _atom_site_type_symbol
 _atom_site_label
 _atom_site_symmetry_multiplicity
 _atom_site_fract_x
 _atom_site_fract_y
 _atom_site_fract_z
 _atom_site_occupancy
  Na  Na0  1  0.00327900  0.00655800  0.50175300  1
  Lu  Lu1  1  0.99672109  0.99344199  0.00175300  1
  Ag  Ag2  1  0.53306700  0.06613400  0.75047800  1
  Ag  Ag3  1  0.46693309  0.93386599  0.25047800  1
  S  S4  1  0.25180305  0.50360599  0.77375900  1
  S  S5  1  0.74819704  0.49639399  0.27375900  1
  S  S6  1  0.63775702  0.27551400  0.56492400  1
  S  S7  1  0.36440807  0.72881599  0.43652700  1
  S  S8  1  0.63559202  0.27118400  0.93652700  1
  S  S9  1  0.36224307  0.72448599  0.06492400  1
  S  S10  1  0.92709708  0.85419399  0.74995900  1
  S  S11  1  0.07290301  0.14580600  0.24995900  1
