# generated using pymatgen
data_LiNF2
_symmetry_space_group_name_H-M   'P 1'
_cell_length_a   3.90687704
_cell_length_b   3.90687704
_cell_length_c   5.61196089
_cell_angle_alpha   90.00000000
_cell_angle_beta   90.00000000
_cell_angle_gamma   90.00000000
_symmetry_Int_Tables_number   1
_chemical_formula_structural   LiNF2
_chemical_formula_sum   'Li1 N1 F2'
_cell_volume   85.65922125
_cell_formula_units_Z   1
loop_
 _symmetry_equiv_pos_site_id
 _symmetry_equiv_pos_as_xyz
  1  'x, y, z'
loop_
 _atom_site_type_symbol
 _atom_site_label
 _atom_site_symmetry_multiplicity
 _atom_site_fract_x
 _atom_site_fract_y
 _atom_site_fract_z
 _atom_site_occupancy
  F  F0  1  0.49999999  0.49999999  0.50000001  1
  Li  Li1  1  0.00000000  0.00000000  0.21156500  1
  F  F2  1  0.00000000  0.00000000  0.78843502  1
  N  N3  1  0.00000000  0.00000000  0.00000000  1
