# generated using pymatgen
data_LiTiGePO8
_symmetry_space_group_name_H-M   'P 1'
_cell_length_a   5.31932688
_cell_length_b   5.31932688
_cell_length_c   7.11341619
_cell_angle_alpha   90.00000000
_cell_angle_beta   90.00000000
_cell_angle_gamma   114.55252838
_symmetry_Int_Tables_number   1
_chemical_formula_structural   LiTiGePO8
_chemical_formula_sum   'Li1 Ti1 Ge1 P1 O8'
_cell_volume   183.07658980
_cell_formula_units_Z   1
loop_
 _symmetry_equiv_pos_site_id
 _symmetry_equiv_pos_as_xyz
  1  'x, y, z'
loop_
 _atom_site_type_symbol
 _atom_site_label
 _atom_site_symmetry_multiplicity
 _atom_site_fract_x
 _atom_site_fract_y
 _atom_site_fract_z
 _atom_site_occupancy
  Ti  Ti0  1  0.35709301  0.64290700  0.74999998  1
  Li  Li1  1  0.64290700  0.35709300  0.24999999  1
  Ge  Ge2  1  0.00000000  0.00000000  0.49999999  1
  P  P3  1  0.00000000  0.00000000  0.00000000  1
  O  O4  1  0.77807001  0.70910600  0.24999999  1
  O  O5  1  0.22193000  0.29089400  0.74999998  1
  O  O6  1  0.70910601  0.77807000  0.74999998  1
  O  O7  1  0.29089400  0.22193000  0.24999999  1
  O  O8  1  0.74793200  0.25206800  0.06141200  1
  O  O9  1  0.25206801  0.74793200  0.56141198  1
  O  O10  1  0.25206801  0.74793200  0.93858797  1
  O  O11  1  0.74793200  0.25206800  0.43858799  1
