# generated using pymatgen
data_K2Cu(NF2)2
_symmetry_space_group_name_H-M   'P 1'
_cell_length_a   5.26915741
_cell_length_b   5.26915741
_cell_length_c   5.26915741
_cell_angle_alpha   60.00000000
_cell_angle_beta   60.00000000
_cell_angle_gamma   60.00000000
_symmetry_Int_Tables_number   1
_chemical_formula_structural   K2Cu(NF2)2
_chemical_formula_sum   'K2 Cu1 N2 F4'
_cell_volume   103.44476576
_cell_formula_units_Z   1
loop_
 _symmetry_equiv_pos_site_id
 _symmetry_equiv_pos_as_xyz
  1  'x, y, z'
loop_
 _atom_site_type_symbol
 _atom_site_label
 _atom_site_symmetry_multiplicity
 _atom_site_fract_x
 _atom_site_fract_y
 _atom_site_fract_z
 _atom_site_occupancy
  K  K0  1  0.25000000  0.25000000  0.25000000  1
  K  K1  1  0.75000001  0.75000001  0.75000001  1
  Cu  Cu2  1  0.00000000  0.00000000  0.00000000  1
  F  F3  1  0.78266601  0.78266601  0.21733400  1
  F  F4  1  0.21733400  0.78266601  0.78266601  1
  N  N5  1  0.21733400  0.78266601  0.21733400  1
  N  N6  1  0.21733400  0.21733400  0.78266601  1
  F  F7  1  0.78266601  0.21733400  0.21733400  1
  F  F8  1  0.78266601  0.21733400  0.78266601  1
