# generated using pymatgen
data_Li3PO5
_symmetry_space_group_name_H-M   'P 1'
_cell_length_a   5.91684008
_cell_length_b   6.88545609
_cell_length_c   6.88762188
_cell_angle_alpha   84.83439636
_cell_angle_beta   74.95063782
_cell_angle_gamma   74.96498871
_symmetry_Int_Tables_number   1
_chemical_formula_structural   Li3PO5
_chemical_formula_sum   'Li6 P2 O10'
_cell_volume   261.62505692
_cell_formula_units_Z   2
loop_
 _symmetry_equiv_pos_site_id
 _symmetry_equiv_pos_as_xyz
  1  'x, y, z'
loop_
 _atom_site_type_symbol
 _atom_site_label
 _atom_site_symmetry_multiplicity
 _atom_site_fract_x
 _atom_site_fract_y
 _atom_site_fract_z
 _atom_site_occupancy
  Li  Li0  1  0.75761901  0.61343698  0.79129099  1
  Li  Li1  1  0.25763899  0.79131698  0.61343099  1
  Li  Li2  1  0.74240202  0.20865499  0.38658499  1
  Li  Li3  1  0.24240000  0.38659199  0.20869299  1
  Li  Li4  1  0.75007503  0.08725000  0.91265099  1
  Li  Li5  1  0.24994399  0.91268997  0.08735599  1
  O  O6  1  0.64392100  0.80498898  0.96016498  1
  O  O7  1  0.77696002  0.38539099  0.90470299  1
  P  P8  1  0.14388498  0.96021697  0.80488598  1
  O  O9  1  0.55318101  0.64777798  0.63140799  1
  P  P10  1  0.72288102  0.09528700  0.61452099  1
  O  O11  1  0.05311399  0.63137198  0.64779799  1
  O  O12  1  0.94683803  0.36866399  0.35221499  1
  O  O13  1  0.27708699  0.90467597  0.38546899  1
  O  O14  1  0.44679801  0.35223299  0.36863199  1
  O  O15  1  0.85616503  0.03977000  0.19509900  1
  O  O16  1  0.22301399  0.61460998  0.09528099  1
  O  O17  1  0.35607801  0.19507099  0.03981600  1
