# generated using pymatgen
data_K2Sr2LiBiS3O5
_symmetry_space_group_name_H-M   'P 1'
_cell_length_a   7.35136795
_cell_length_b   7.50562096
_cell_length_c   7.47636604
_cell_angle_alpha   119.87114716
_cell_angle_beta   90.00000000
_cell_angle_gamma   119.32245636
_symmetry_Int_Tables_number   1
_chemical_formula_structural   K2Sr2LiBiS3O5
_chemical_formula_sum   'K2 Sr2 Li1 Bi1 S3 O5'
_cell_volume   295.20873840
_cell_formula_units_Z   1
loop_
 _symmetry_equiv_pos_site_id
 _symmetry_equiv_pos_as_xyz
  1  'x, y, z'
loop_
 _atom_site_type_symbol
 _atom_site_label
 _atom_site_symmetry_multiplicity
 _atom_site_fract_x
 _atom_site_fract_y
 _atom_site_fract_z
 _atom_site_occupancy
  Li  Li0  1  0.00000003  0.50000003  0.50000001  1
  Sr  Sr1  1  0.50000004  0.50000003  0.50000001  1
  K  K2  1  0.50000000  0.00000000  0.50000000  1
  Sr  Sr3  1  0.50000000  0.00000000  -0.00000000  1
  K  K4  1  0.87584106  0.75168204  0.12584102  1
  Bi  Bi5  1  0.12415902  0.24831801  0.87415900  1
  S  S6  1  0.24509603  0.49019203  0.73647301  1
  O  O7  1  0.24509603  0.49019203  0.25371901  1
  O  O8  1  0.74023507  0.98600205  0.74300102  1
  S  S9  1  0.24576707  0.98600205  0.74300102  1
  S  S10  1  0.75490404  0.50980803  0.26352701  1
  O  O11  1  0.75490404  0.50980803  0.74628101  1
  O  O12  1  0.25976500  0.01399800  0.25699900  1
  O  O13  1  0.75423301  0.01399800  0.25699900  1
