# generated using pymatgen
data_V3Ni2TeO14
_symmetry_space_group_name_H-M   'P 1'
_cell_length_a   5.64009094
_cell_length_b   6.75485182
_cell_length_c   8.02104473
_cell_angle_alpha   96.01776886
_cell_angle_beta   90.03781891
_cell_angle_gamma   101.40602112
_symmetry_Int_Tables_number   1
_chemical_formula_structural   V3Ni2TeO14
_chemical_formula_sum   'V3 Ni2 Te1 O14'
_cell_volume   297.82796546
_cell_formula_units_Z   1
loop_
 _symmetry_equiv_pos_site_id
 _symmetry_equiv_pos_as_xyz
  1  'x, y, z'
loop_
 _atom_site_type_symbol
 _atom_site_label
 _atom_site_symmetry_multiplicity
 _atom_site_fract_x
 _atom_site_fract_y
 _atom_site_fract_z
 _atom_site_occupancy
  Ni  Ni0  1  0.69128399  0.76125698  0.33666004  1
  V  V1  1  0.30871600  0.23874299  0.66333999  1
  V  V2  1  0.17029799  0.68803799  0.59554001  1
  Ni  Ni3  1  0.82970200  0.31196199  0.40446003  1
  V  V4  1  0.70251799  0.78715398  0.89046802  1
  Te  Te5  1  0.29748200  0.21284600  0.10953201  1
  O  O6  1  0.77791601  0.04875000  0.89952499  1
  O  O7  1  0.22208399  0.95124998  0.10047504  1
  O  O8  1  0.42726899  0.70601399  0.76820901  1
  O  O9  1  0.57273100  0.29398599  0.23179102  1
  O  O10  1  0.93233700  0.68303499  0.78026603  1
  O  O11  1  0.06766299  0.31696499  0.21973401  1
  O  O12  1  0.20304698  0.98807998  0.61234702  1
  O  O13  1  0.79695301  0.01192000  0.38765301  1
  O  O14  1  0.10596699  0.37730599  0.57601799  1
  O  O15  1  0.89403300  0.62269399  0.42398204  1
  O  O16  1  0.33491800  0.29413599  0.89100399  1
  O  O17  1  0.66508199  0.70586399  0.10899605  1
  O  O18  1  0.58619400  0.30719599  0.58234801  1
  O  O19  1  0.41380599  0.69280399  0.41765203  1
