# generated using pymatgen
data_Ag3Te(Se2Cl)2
_symmetry_space_group_name_H-M   'P 1'
_cell_length_a   6.91280222
_cell_length_b   6.91280270
_cell_length_c   7.68409109
_cell_angle_alpha   90.00000000
_cell_angle_beta   90.00000000
_cell_angle_gamma   120.00000000
_symmetry_Int_Tables_number   1
_chemical_formula_structural   Ag3Te(Se2Cl)2
_chemical_formula_sum   'Ag3 Te1 Se4 Cl2'
_cell_volume   318.00315542
_cell_formula_units_Z   1
loop_
 _symmetry_equiv_pos_site_id
 _symmetry_equiv_pos_as_xyz
  1  'x, y, z'
loop_
 _atom_site_type_symbol
 _atom_site_label
 _atom_site_symmetry_multiplicity
 _atom_site_fract_x
 _atom_site_fract_y
 _atom_site_fract_z
 _atom_site_occupancy
  Ag  Ag0  1  0.33333337  0.66666669  0.49999999  1
  Ag  Ag1  1  0.66666667  0.33333335  0.49999999  1
  Ag  Ag2  1  0.00000000  0.00000000  0.64956899  1
  Se  Se3  1  0.00000000  0.00000000  0.35043100  1
  Te  Te4  1  0.00000005  0.64451103  0.26785700  1
  Se  Se5  1  0.64451098  0.00000000  0.26785700  1
  Cl  Cl6  1  0.35548901  0.35548901  0.26785700  1
  Se  Se7  1  0.35548899  0.00000000  0.73214299  1
  Cl  Cl8  1  0.99999999  0.35548901  0.73214299  1
  Se  Se9  1  0.64451103  0.64451103  0.73214299  1
