# generated using pymatgen
data_NaLi2NdS2NO
_symmetry_space_group_name_H-M   'P 1'
_cell_length_a   5.57221699
_cell_length_b   5.57221699
_cell_length_c   5.57221699
_cell_angle_alpha   90.00000000
_cell_angle_beta   90.00000000
_cell_angle_gamma   90.00000000
_symmetry_Int_Tables_number   1
_chemical_formula_structural   NaLi2NdS2NO
_chemical_formula_sum   'Na1 Li2 Nd1 S2 N1 O1'
_cell_volume   173.01512060
_cell_formula_units_Z   1
loop_
 _symmetry_equiv_pos_site_id
 _symmetry_equiv_pos_as_xyz
  1  'x, y, z'
loop_
 _atom_site_type_symbol
 _atom_site_label
 _atom_site_symmetry_multiplicity
 _atom_site_fract_x
 _atom_site_fract_y
 _atom_site_fract_z
 _atom_site_occupancy
  Na  Na0  1  0.00000000  0.50000000  0.50000000  1
  Li  Li1  1  0.50000000  0.00000000  0.50000000  1
  Li  Li2  1  0.50000000  0.50000000  -0.00000000  1
  Nd  Nd3  1  0.00000000  0.00000000  0.00000000  1
  O  O4  1  0.26271400  0.26271400  0.26271400  1
  S  S5  1  0.73728600  0.73728600  0.26271400  1
  N  N6  1  0.26271400  0.73728600  0.73728600  1
  S  S7  1  0.73728600  0.26271400  0.73728600  1
