# generated using pymatgen
data_BiPb2IBr3ClO12
_symmetry_space_group_name_H-M   'P 1'
_cell_length_a   6.03183079
_cell_length_b   8.07892132
_cell_length_c   8.07892132
_cell_angle_alpha   99.96308899
_cell_angle_beta   90.00000000
_cell_angle_gamma   90.00000000
_symmetry_Int_Tables_number   1
_chemical_formula_structural   BiPb2IBr3ClO12
_chemical_formula_sum   'Bi1 Pb2 I1 Br3 Cl1 O12'
_cell_volume   387.75428478
_cell_formula_units_Z   1
loop_
 _symmetry_equiv_pos_site_id
 _symmetry_equiv_pos_as_xyz
  1  'x, y, z'
loop_
 _atom_site_type_symbol
 _atom_site_label
 _atom_site_symmetry_multiplicity
 _atom_site_fract_x
 _atom_site_fract_y
 _atom_site_fract_z
 _atom_site_occupancy
  Bi  Bi0  1  0.75000003  0.10092100  0.89907904  1
  Pb  Pb1  1  0.75000003  0.17778801  0.35692102  1
  Pb  Pb2  1  0.75000003  0.64307903  0.82221204  1
  Br  Br3  1  0.25000001  0.89907904  0.10092101  1
  Br  Br4  1  0.25000001  0.35692102  0.17778801  1
  Br  Br5  1  0.25000001  0.82221204  0.64307904  1
  I  I6  1  0.75000003  0.65140403  0.34859602  1
  Cl  Cl7  1  0.25000001  0.34859602  0.65140403  1
  O  O8  1  0.75000003  0.46212102  0.30000602  1
  O  O9  1  -0.00000000  0.14339601  0.14339601  1
  O  O10  1  0.95311803  0.71845403  0.28154602  1
  O  O11  1  0.54688202  0.71845403  0.28154602  1
  O  O12  1  0.25000001  0.30000601  0.46212102  1
  O  O13  1  0.50000002  0.85660404  0.85660405  1
  O  O14  1  0.45311802  0.28154601  0.71845404  1
  O  O15  1  0.75000003  0.69999403  0.53787903  1
  O  O16  1  0.25000001  0.53787903  0.69999404  1
  O  O17  1  0.04688200  0.28154601  0.71845404  1
  O  O18  1  1.00000004  0.85660404  0.85660405  1
  O  O19  1  0.50000002  0.14339601  0.14339601  1
