# generated using pymatgen
data_K4Cu2AgAs2S11
_symmetry_space_group_name_H-M   'P 1'
_cell_length_a   8.09988213
_cell_length_b   8.22027206
_cell_length_c   9.28161335
_cell_angle_alpha   64.92353821
_cell_angle_beta   75.55520630
_cell_angle_gamma   65.53520203
_symmetry_Int_Tables_number   1
_chemical_formula_structural   K4Cu2AgAs2S11
_chemical_formula_sum   'K4 Cu2 Ag1 As2 S11'
_cell_volume   507.43998960
_cell_formula_units_Z   1
loop_
 _symmetry_equiv_pos_site_id
 _symmetry_equiv_pos_as_xyz
  1  'x, y, z'
loop_
 _atom_site_type_symbol
 _atom_site_label
 _atom_site_symmetry_multiplicity
 _atom_site_fract_x
 _atom_site_fract_y
 _atom_site_fract_z
 _atom_site_occupancy
  K  K0  1  0.69587201  0.85382999  0.86423196  1
  K  K1  1  0.30412800  0.14617000  0.13576799  1
  K  K2  1  0.89025299  0.24401200  0.91274397  1
  K  K3  1  0.10974702  0.75598799  0.08725598  1
  Cu  Cu4  1  0.88931701  0.95455099  0.37288496  1
  Cu  Cu5  1  0.55071500  0.38336299  0.19151899  1
  As  As6  1  0.44928501  0.61663699  0.80848096  1
  As  As7  1  0.11068300  0.04544900  0.62711499  1
  Ag  Ag8  1  0.75136300  0.54053999  0.40725198  1
  S  S9  1  0.24863701  0.45945999  0.59274797  1
  S  S10  1  0.81660100  0.43470299  0.09170899  1
  S  S11  1  0.86912500  0.69158099  0.58947797  1
  S  S12  1  0.78780101  0.91971999  0.18323297  1
  S  S13  1  0.63189499  0.17787400  0.45097899  1
  S  S14  1  0.37814701  0.65111499  0.24738398  1
  S  S15  1  0.62185300  0.34888500  0.75261597  1
  S  S16  1  0.36810501  0.82212599  0.54902096  1
  S  S17  1  0.21219900  0.08028000  0.81676698  1
  S  S18  1  0.13087501  0.30841900  0.41052198  1
  S  S19  1  0.18339901  0.56529699  0.90829096  1
