# generated using pymatgen
data_Li5Fe2O13
_symmetry_space_group_name_H-M   'P 1'
_cell_length_a   5.06557512
_cell_length_b   5.21258163
_cell_length_c   8.81761074
_cell_angle_alpha   90.00000000
_cell_angle_beta   90.00000000
_cell_angle_gamma   93.72506714
_symmetry_Int_Tables_number   1
_chemical_formula_structural   Li5Fe2O13
_chemical_formula_sum   'Li5 Fe2 O13'
_cell_volume   232.33468153
_cell_formula_units_Z   1
loop_
 _symmetry_equiv_pos_site_id
 _symmetry_equiv_pos_as_xyz
  1  'x, y, z'
loop_
 _atom_site_type_symbol
 _atom_site_label
 _atom_site_symmetry_multiplicity
 _atom_site_fract_x
 _atom_site_fract_y
 _atom_site_fract_z
 _atom_site_occupancy
  Li  Li0  1  0.00000000  0.00000000  0.69593302  1
  Li  Li1  1  0.49999999  0.00000000  0.86812303  1
  Li  Li2  1  -0.00000003  0.50000000  0.30352001  1
  Li  Li3  1  0.49999996  0.50000000  0.17103201  1
  Li  Li4  1  0.00000000  0.00000000  0.10481500  1
  Fe  Fe5  1  0.49999999  0.00000000  0.40145901  1
  Fe  Fe6  1  -0.00000003  0.50000000  0.92081903  1
  O  O7  1  0.49999996  0.50000000  0.60374202  1
  O  O8  1  0.73437493  0.86325301  0.25087501  1
  O  O9  1  0.71629393  0.85263501  0.56088402  1
  O  O10  1  0.79103293  0.80003301  0.94133703  1
  O  O11  1  0.29748995  0.66737301  0.42142401  1
  O  O12  1  0.19643495  0.68507501  0.08831000  1
  O  O13  1  0.21687695  0.68847301  0.77298702  1
  O  O14  1  0.78312296  0.31152700  0.77298702  1
  O  O15  1  0.80356496  0.31492500  0.08831000  1
  O  O16  1  0.70250996  0.33262700  0.42142401  1
  O  O17  1  0.20896698  0.19996700  0.94133703  1
  O  O18  1  0.28370598  0.14736500  0.56088402  1
  O  O19  1  0.26562498  0.13674700  0.25087501  1
