# generated using pymatgen
data_Li2PO6
_symmetry_space_group_name_H-M   'P 1'
_cell_length_a   4.95602179
_cell_length_b   4.95602226
_cell_length_c   5.11422777
_cell_angle_alpha   90.00000000
_cell_angle_beta   90.00000000
_cell_angle_gamma   120.00000000
_symmetry_Int_Tables_number   1
_chemical_formula_structural   Li2PO6
_chemical_formula_sum   'Li2 P1 O6'
_cell_volume   108.78703828
_cell_formula_units_Z   1
loop_
 _symmetry_equiv_pos_site_id
 _symmetry_equiv_pos_as_xyz
  1  'x, y, z'
loop_
 _atom_site_type_symbol
 _atom_site_label
 _atom_site_symmetry_multiplicity
 _atom_site_fract_x
 _atom_site_fract_y
 _atom_site_fract_z
 _atom_site_occupancy
  Li  Li0  1  0.00000000  0.00000000  0.00000000  1
  Li  Li1  1  0.33333335  0.66666664  0.50000002  1
  P  P2  1  0.66666670  0.33333332  0.50000002  1
  O  O3  1  0.62014103  0.00000000  0.29557601  1
  O  O4  1  0.37985902  0.37985898  0.29557601  1
  O  O5  1  0.00000000  0.62014097  0.29557601  1
  O  O6  1  0.62014103  0.62014097  0.70442403  1
  O  O7  1  0.00000000  0.37985898  0.70442403  1
  O  O8  1  0.37985902  0.99999996  0.70442403  1
