# generated using pymatgen
data_KSr3ZnInCuTe(Se3S2)2
_symmetry_space_group_name_H-M   'P 1'
_cell_length_a   4.30995178
_cell_length_b   4.32810450
_cell_length_c   22.87699890
_cell_angle_alpha   90.00000000
_cell_angle_beta   90.00000000
_cell_angle_gamma   119.86135864
_symmetry_Int_Tables_number   1
_chemical_formula_structural   KSr3ZnInCuTe(Se3S2)2
_chemical_formula_sum   'K1 Sr3 Zn1 In1 Cu1 Te1 Se6 S4'
_cell_volume   370.08788308
_cell_formula_units_Z   1
loop_
 _symmetry_equiv_pos_site_id
 _symmetry_equiv_pos_as_xyz
  1  'x, y, z'
loop_
 _atom_site_type_symbol
 _atom_site_label
 _atom_site_symmetry_multiplicity
 _atom_site_fract_x
 _atom_site_fract_y
 _atom_site_fract_z
 _atom_site_occupancy
  Sr  Sr0  1  0.67536605  0.35073201  0.36486199  1
  Sr  Sr1  1  0.32677004  0.65354001  0.64605697  1
  Sr  Sr2  1  0.67323005  0.34646001  0.14605699  1
  K  K3  1  0.32463404  0.64926801  0.86486197  1
  Zn  Zn4  1  0.00366600  0.00733200  0.49076398  1
  In  In5  1  0.99633408  0.99266802  0.99076396  1
  Se  Se6  1  0.65834504  0.31669001  0.74521497  1
  Cu  Cu7  1  0.34165504  0.68331001  0.24521499  1
  Se  Se8  1  0.66684305  0.33368601  0.47153898  1
  Se  Se9  1  0.32920504  0.65841001  0.54385798  1
  Se  Se10  1  0.67079505  0.34159001  0.04385800  1
  S  S11  1  0.33315704  0.66631401  0.97153896  1
  Te  Te12  1  0.00317200  0.00634400  0.37455499  1
  Se  Se13  1  0.99409308  0.98818602  0.61925498  1
  S  S14  1  0.00590700  0.01181400  0.11925500  1
  S  S15  1  0.99682808  0.99365602  0.87455497  1
  Se  Se16  1  0.33254104  0.66508201  0.41389398  1
  S  S17  1  0.66745905  0.33491801  0.91389396  1
