# generated using pymatgen
data_Li2MgCu3SbSe2S5
_symmetry_space_group_name_H-M   'P 1'
_cell_length_a   7.90948582
_cell_length_b   7.90948582
_cell_length_c   7.90948582
_cell_angle_alpha   60.00000000
_cell_angle_beta   60.00000000
_cell_angle_gamma   60.00000000
_symmetry_Int_Tables_number   1
_chemical_formula_structural   Li2MgCu3SbSe2S5
_chemical_formula_sum   'Li2 Mg1 Cu3 Sb1 Se2 S5'
_cell_volume   349.88857134
_cell_formula_units_Z   1
loop_
 _symmetry_equiv_pos_site_id
 _symmetry_equiv_pos_as_xyz
  1  'x, y, z'
loop_
 _atom_site_type_symbol
 _atom_site_label
 _atom_site_symmetry_multiplicity
 _atom_site_fract_x
 _atom_site_fract_y
 _atom_site_fract_z
 _atom_site_occupancy
  Li  Li0  1  0.87499999  0.87499999  0.37500000  1
  Li  Li1  1  0.37500000  0.87499999  0.87499999  1
  Mg  Mg2  1  0.87499999  0.87499999  0.87499999  1
  Cu  Cu3  1  0.87499999  0.37500000  0.87499999  1
  Cu  Cu4  1  0.25000000  0.25000000  0.25000000  1
  Cu  Cu5  1  0.50000000  0.50000000  0.50000000  1
  Sb  Sb6  1  0.10018400  0.63327199  0.63327199  1
  Se  Se7  1  0.11672700  0.11672800  0.64981699  1
  S  S8  1  0.11672700  0.64981699  0.11672800  1
  Se  Se9  1  0.11672700  0.11672800  0.11672800  1
  S  S10  1  0.63327299  0.10018300  0.63327199  1
  S  S11  1  0.63327299  0.63327199  0.63327199  1
  S  S12  1  0.64981599  0.11672800  0.11672800  1
  S  S13  1  0.63327299  0.63327199  0.10018300  1
