# generated using pymatgen
data_Li2VO6
_symmetry_space_group_name_H-M   'P 1'
_cell_length_a   4.79084873
_cell_length_b   5.77390242
_cell_length_c   7.99207878
_cell_angle_alpha   87.20938110
_cell_angle_beta   87.79229736
_cell_angle_gamma   89.59525299
_symmetry_Int_Tables_number   1
_chemical_formula_structural   Li2VO6
_chemical_formula_sum   'Li4 V2 O12'
_cell_volume   220.64697803
_cell_formula_units_Z   2
loop_
 _symmetry_equiv_pos_site_id
 _symmetry_equiv_pos_as_xyz
  1  'x, y, z'
loop_
 _atom_site_type_symbol
 _atom_site_label
 _atom_site_symmetry_multiplicity
 _atom_site_fract_x
 _atom_site_fract_y
 _atom_site_fract_z
 _atom_site_occupancy
  Li  Li0  1  0.46911699  0.49855599  0.01516501  1
  Li  Li1  1  0.53087698  0.83477399  0.65138704  1
  Li  Li2  1  0.95434998  0.33580900  0.65816701  1
  Li  Li3  1  0.04532299  0.99738899  0.00857805  1
  V  V4  1  0.99995597  0.66657599  0.33333335  1
  V  V5  1  0.49978099  0.16668200  0.33333334  1
  O  O6  1  0.80232998  0.64012399  0.54603802  1
  O  O7  1  0.67553199  0.11592700  0.54845500  1
  O  O8  1  0.32407799  0.21746300  0.11817600  1
  O  O9  1  0.19764399  0.69319399  0.12057103  1
  O  O10  1  0.78694297  0.96454999  0.23225003  1
  O  O11  1  0.72423698  0.46488199  0.23961001  1
  O  O12  1  0.27540198  0.86858899  0.42692104  1
  O  O13  1  0.21300399  0.36887299  0.43463002  1
  O  O14  1  0.79029898  0.30208300  0.90870601  1
  O  O15  1  0.68555398  0.78345699  0.90981004  1
  O  O16  1  0.31517999  0.54990899  0.75669203  1
  O  O17  1  0.21039400  0.03116400  0.75819001  1
