# generated using pymatgen
data_CsRbTeI7
_symmetry_space_group_name_H-M   'P 1'
_cell_length_a   7.48102188
_cell_length_b   7.48486757
_cell_length_c   8.50062943
_cell_angle_alpha   113.77392578
_cell_angle_beta   90.00000000
_cell_angle_gamma   119.98300934
_symmetry_Int_Tables_number   1
_chemical_formula_structural   CsRbTeI7
_chemical_formula_sum   'Cs1 Rb1 Te1 I7'
_cell_volume   364.91371651
_cell_formula_units_Z   1
loop_
 _symmetry_equiv_pos_site_id
 _symmetry_equiv_pos_as_xyz
  1  'x, y, z'
loop_
 _atom_site_type_symbol
 _atom_site_label
 _atom_site_symmetry_multiplicity
 _atom_site_fract_x
 _atom_site_fract_y
 _atom_site_fract_z
 _atom_site_occupancy
  Rb  Rb0  1  0.27418604  0.54837202  0.77046001  1
  Cs  Cs1  1  0.72581404  0.45162801  0.22954002  1
  I  I2  1  0.00000000  0.00000000  0.00000000  1
  Te  Te3  1  0.50000001  0.00000000  0.49999999  1
  I  I4  1  0.72730808  0.92614803  0.17740404  1
  I  I5  1  0.80116002  0.07385200  0.82259599  1
  I  I6  1  0.27269201  0.07385200  0.82259599  1
  I  I7  1  0.19884007  0.92614803  0.17740404  1
  I  I8  1  0.71328804  0.42657601  0.63493201  1
  I  I9  1  0.28671204  0.57342402  0.36506802  1
