# generated using pymatgen
data_K2Rb2BrCl7
_symmetry_space_group_name_H-M   'P 1'
_cell_length_a   4.63237810
_cell_length_b   8.33019257
_cell_length_c   9.87218380
_cell_angle_alpha   90.00000000
_cell_angle_beta   90.00000000
_cell_angle_gamma   90.00000000
_symmetry_Int_Tables_number   1
_chemical_formula_structural   K2Rb2BrCl7
_chemical_formula_sum   'K2 Rb2 Br1 Cl7'
_cell_volume   380.95376779
_cell_formula_units_Z   1
loop_
 _symmetry_equiv_pos_site_id
 _symmetry_equiv_pos_as_xyz
  1  'x, y, z'
loop_
 _atom_site_type_symbol
 _atom_site_label
 _atom_site_symmetry_multiplicity
 _atom_site_fract_x
 _atom_site_fract_y
 _atom_site_fract_z
 _atom_site_occupancy
  K  K0  1  0.24999999  0.20364101  0.87739102  1
  Rb  Rb1  1  0.74999998  0.79635904  0.12260900  1
  K  K2  1  0.24999999  0.70364104  0.62260901  1
  Rb  Rb3  1  0.74999998  0.29635902  0.37739101  1
  Cl  Cl4  1  0.24999999  0.96791405  0.33030101  1
  Cl  Cl5  1  0.74999998  0.53208603  0.83030102  1
  Br  Br6  1  0.24999999  0.46791402  0.16969900  1
  Cl  Cl7  1  0.74999998  0.03208600  0.66969901  1
  Cl  Cl8  1  0.74999998  0.13963201  0.05817600  1
  Cl  Cl9  1  0.24999999  0.36036802  0.55817601  1
  Cl  Cl10  1  0.74999998  0.63963203  0.44182401  1
  Cl  Cl11  1  0.24999999  0.86036804  0.94182402  1
