# generated using pymatgen
data_Li2O2
_symmetry_space_group_name_H-M   'P 1'
_cell_length_a   5.04140711
_cell_length_b   5.81031322
_cell_length_c   6.06064939
_cell_angle_alpha   61.88342667
_cell_angle_beta   78.72325134
_cell_angle_gamma   72.96972656
_symmetry_Int_Tables_number   1
_chemical_formula_structural   Li2O2
_chemical_formula_sum   'Li8 O8'
_cell_volume   149.36463305
_cell_formula_units_Z   4
loop_
 _symmetry_equiv_pos_site_id
 _symmetry_equiv_pos_as_xyz
  1  'x, y, z'
loop_
 _atom_site_type_symbol
 _atom_site_label
 _atom_site_symmetry_multiplicity
 _atom_site_fract_x
 _atom_site_fract_y
 _atom_site_fract_z
 _atom_site_occupancy
  Li  Li0  1  0.25531500  0.12325800  0.87436399  1
  Li  Li1  1  0.75514899  0.37329201  0.62464500  1
  Li  Li2  1  0.74468500  0.87674203  0.12563601  1
  Li  Li3  1  0.24485101  0.62670802  0.37535500  1
  Li  Li4  1  0.75080299  0.37209001  0.12931701  1
  Li  Li5  1  0.24919701  0.62791002  0.87068300  1
  Li  Li6  1  0.74927900  0.87661403  0.62232800  1
  Li  Li7  1  0.25072100  0.12338600  0.37767200  1
  O  O8  1  0.49688799  0.22346901  0.50374100  1
  O  O9  1  0.00216401  0.47419301  0.25643200  1
  O  O10  1  0.99482400  0.98183903  0.74619601  1
  O  O11  1  0.49977901  0.73079402  0.00136601  1
  O  O12  1  0.00517600  0.01816100  0.25380400  1
  O  O13  1  0.50022100  0.26920601  0.99863400  1
  O  O14  1  0.50311201  0.77653102  0.49625900  1
  O  O15  1  0.99783599  0.52580702  0.74356800  1
