# generated using pymatgen
data_Na2LiLuCu2AgSe4S3
_symmetry_space_group_name_H-M   'P 1'
_cell_length_a   8.17238140
_cell_length_b   8.17238140
_cell_length_c   8.17238140
_cell_angle_alpha   60.00000000
_cell_angle_beta   60.00000000
_cell_angle_gamma   60.00000000
_symmetry_Int_Tables_number   1
_chemical_formula_structural   Na2LiLuCu2AgSe4S3
_chemical_formula_sum   'Na2 Li1 Lu1 Cu2 Ag1 Se4 S3'
_cell_volume   385.94985527
_cell_formula_units_Z   1
loop_
 _symmetry_equiv_pos_site_id
 _symmetry_equiv_pos_as_xyz
  1  'x, y, z'
loop_
 _atom_site_type_symbol
 _atom_site_label
 _atom_site_symmetry_multiplicity
 _atom_site_fract_x
 _atom_site_fract_y
 _atom_site_fract_z
 _atom_site_occupancy
  Li  Li0  1  0.37499998  0.37499998  0.87499995  1
  Na  Na1  1  0.37499998  0.37499998  0.37499998  1
  Na  Na2  1  0.37499998  0.87499995  0.37499998  1
  Lu  Lu3  1  0.87499995  0.37499998  0.37499998  1
  Cu  Cu4  1  0.74999996  0.74999996  0.74999996  1
  Cu  Cu5  1  0.00000000  0.00000000  0.00000000  1
  S  S6  1  0.62324197  0.62324097  0.13027599  1
  Ag  Ag7  1  0.62324197  0.62324097  0.62324097  1
  Se  Se8  1  0.62324197  0.13027599  0.62324097  1
  Se  Se9  1  0.13027699  0.62324097  0.62324097  1
  S  S10  1  0.12675799  0.12675899  0.61972397  1
  Se  Se11  1  0.12675799  0.12675899  0.12675899  1
  S  S12  1  0.12675799  0.61972397  0.12675899  1
  Se  Se13  1  0.61972297  0.12675899  0.12675899  1
