# generated using pymatgen
data_SrAg3AsSe4S3
_symmetry_space_group_name_H-M   'P 1'
_cell_length_a   6.61811590
_cell_length_b   6.61811590
_cell_length_c   6.61811590
_cell_angle_alpha   90.00000000
_cell_angle_beta   90.00000000
_cell_angle_gamma   90.00000000
_symmetry_Int_Tables_number   1
_chemical_formula_structural   SrAg3AsSe4S3
_chemical_formula_sum   'Sr1 Ag3 As1 Se4 S3'
_cell_volume   289.86989009
_cell_formula_units_Z   1
loop_
 _symmetry_equiv_pos_site_id
 _symmetry_equiv_pos_as_xyz
  1  'x, y, z'
loop_
 _atom_site_type_symbol
 _atom_site_label
 _atom_site_symmetry_multiplicity
 _atom_site_fract_x
 _atom_site_fract_y
 _atom_site_fract_z
 _atom_site_occupancy
  Sr  Sr0  1  0.13075100  0.86924901  0.36924901  1
  Ag  Ag1  1  0.86924901  0.36924901  0.13075100  1
  Ag  Ag2  1  0.36924901  0.13075100  0.86924901  1
  Ag  Ag3  1  0.63075101  0.63075101  0.63075101  1
  Se  Se4  1  0.87342701  0.12657300  0.62657301  1
  Se  Se5  1  0.12657300  0.62657301  0.87342701  1
  Se  Se6  1  0.62657301  0.87342701  0.12657300  1
  Se  Se7  1  0.37342701  0.37342701  0.37342701  1
  As  As8  1  0.49362101  0.50637901  0.00637900  1
  S  S9  1  0.50637901  0.00637900  0.49362101  1
  S  S10  1  0.00637900  0.49362101  0.50637901  1
  S  S11  1  0.99362101  0.99362101  0.99362101  1
