# generated using pymatgen
data_Li4SiO7
_symmetry_space_group_name_H-M   'P 1'
_cell_length_a   4.98432159
_cell_length_b   4.98432159
_cell_length_c   5.86303282
_cell_angle_alpha   90.00000000
_cell_angle_beta   90.00000000
_cell_angle_gamma   112.93466187
_symmetry_Int_Tables_number   1
_chemical_formula_structural   Li4SiO7
_chemical_formula_sum   'Li4 Si1 O7'
_cell_volume   134.14373959
_cell_formula_units_Z   1
loop_
 _symmetry_equiv_pos_site_id
 _symmetry_equiv_pos_as_xyz
  1  'x, y, z'
loop_
 _atom_site_type_symbol
 _atom_site_label
 _atom_site_symmetry_multiplicity
 _atom_site_fract_x
 _atom_site_fract_y
 _atom_site_fract_z
 _atom_site_occupancy
  Li  Li0  1  0.35197302  0.64802703  0.75000002  1
  Li  Li1  1  0.64802703  0.35197302  0.25000001  1
  Li  Li2  1  0.00000000  0.00000000  0.00000000  1
  Li  Li3  1  0.00000000  0.00000000  0.50000002  1
  O  O4  1  0.22711402  0.77288603  0.97627203  1
  O  O5  1  0.22711402  0.77288603  0.52372802  1
  O  O6  1  0.21099501  0.24800101  0.75000002  1
  Si  Si7  1  0.24800101  0.21099501  0.25000001  1
  O  O8  1  0.75199904  0.78900504  0.75000002  1
  O  O9  1  0.78900504  0.75199903  0.25000001  1
  O  O10  1  0.77288603  0.22711401  0.02372800  1
  O  O11  1  0.77288603  0.22711401  0.47627201  1
