# generated using pymatgen
data_CsRb3Te2I7Br
_symmetry_space_group_name_H-M   'P 1'
_cell_length_a   7.93802977
_cell_length_b   8.35640430
_cell_length_c   10.53940487
_cell_angle_alpha   90.00000000
_cell_angle_beta   70.77774048
_cell_angle_gamma   90.00000000
_symmetry_Int_Tables_number   1
_chemical_formula_structural   CsRb3Te2I7Br
_chemical_formula_sum   'Cs1 Rb3 Te2 I7 Br1'
_cell_volume   660.13775886
_cell_formula_units_Z   1
loop_
 _symmetry_equiv_pos_site_id
 _symmetry_equiv_pos_as_xyz
  1  'x, y, z'
loop_
 _atom_site_type_symbol
 _atom_site_label
 _atom_site_symmetry_multiplicity
 _atom_site_fract_x
 _atom_site_fract_y
 _atom_site_fract_z
 _atom_site_occupancy
  Rb  Rb0  1  0.21245801  0.74999997  0.58270101  1
  Rb  Rb1  1  0.78754203  0.24999999  0.41729899  1
  Cs  Cs2  1  0.70076403  0.24999999  0.96041200  1
  Rb  Rb3  1  0.29923601  0.74999997  0.03958799  1
  Te  Te4  1  0.29938701  0.24999999  0.78630001  1
  Te  Te5  1  0.70061303  0.74999997  0.21369998  1
  I  I6  1  0.86920604  0.74999997  0.95075600  1
  Br  Br7  1  0.13079401  0.24999999  0.04924400  1
  I  I8  1  0.91860904  0.74999997  0.35597498  1
  I  I9  1  0.08139100  0.24999999  0.64402501  1
  I  I10  1  0.48661902  0.00152900  0.27469599  1
  I  I11  1  0.51338102  0.50152898  0.72530400  1
  I  I12  1  0.51338102  0.99847096  0.72530400  1
  I  I13  1  0.48661902  0.49847098  0.27469599  1
