# generated using pymatgen
data_NaCaZnCuO8
_symmetry_space_group_name_H-M   'P 1'
_cell_length_a   5.20423794
_cell_length_b   5.20423794
_cell_length_c   6.71831417
_cell_angle_alpha   112.78767395
_cell_angle_beta   112.78767395
_cell_angle_gamma   90.00000000
_symmetry_Int_Tables_number   1
_chemical_formula_structural   NaCaZnCuO8
_chemical_formula_sum   'Na1 Ca1 Zn1 Cu1 O8'
_cell_volume   152.23500423
_cell_formula_units_Z   1
loop_
 _symmetry_equiv_pos_site_id
 _symmetry_equiv_pos_as_xyz
  1  'x, y, z'
loop_
 _atom_site_type_symbol
 _atom_site_label
 _atom_site_symmetry_multiplicity
 _atom_site_fract_x
 _atom_site_fract_y
 _atom_site_fract_z
 _atom_site_occupancy
  Na  Na0  1  0.75000000  0.25000000  0.49999998  1
  Ca  Ca1  1  0.50000000  0.50000000  -0.00000001  1
  Zn  Zn2  1  0.24999999  0.75000000  0.49999998  1
  Cu  Cu3  1  0.00000000  0.00000000  0.00000000  1
  O  O4  1  0.49192200  0.59192800  0.67747297  1
  O  O5  1  0.18555100  0.08554500  0.67747298  1
  O  O6  1  0.83476500  0.92422401  0.16888198  1
  O  O7  1  0.33411700  0.24465800  0.16888099  1
  O  O8  1  0.75534200  0.16523500  0.83111797  1
  O  O9  1  0.07577699  0.66588400  0.83111897  1
  O  O10  1  0.40807200  0.81444901  0.32252698  1
  O  O11  1  0.91445500  0.50807800  0.32252698  1
