# generated using pymatgen
data_LiAl3Si2HO9
_symmetry_space_group_name_H-M   'P 1'
_cell_length_a   5.47059345
_cell_length_b   5.47059345
_cell_length_c   7.20872641
_cell_angle_alpha   107.52738953
_cell_angle_beta   107.52738953
_cell_angle_gamma   97.16836548
_symmetry_Int_Tables_number   1
_chemical_formula_structural   LiAl3Si2HO9
_chemical_formula_sum   'Li1 Al3 Si2 H1 O9'
_cell_volume   190.58337006
_cell_formula_units_Z   1
loop_
 _symmetry_equiv_pos_site_id
 _symmetry_equiv_pos_as_xyz
  1  'x, y, z'
loop_
 _atom_site_type_symbol
 _atom_site_label
 _atom_site_symmetry_multiplicity
 _atom_site_fract_x
 _atom_site_fract_y
 _atom_site_fract_z
 _atom_site_occupancy
  Li  Li0  1  0.49999999  0.50000001  0.50000000  1
  Al  Al1  1  0.49999999  0.50000001  0.99999999  1
  Al  Al2  1  0.81937501  0.18062500  0.25000001  1
  Al  Al3  1  0.18062497  0.81937501  0.74999999  1
  Si  Si4  1  0.15043096  0.84956901  0.25000000  1
  Si  Si5  1  0.84956902  0.15043100  0.75000000  1
  H  H6  1  0.30040397  0.79159001  0.09691501  1
  O  O7  1  0.20840997  0.69959601  0.40308500  1
  O  O8  1  0.69959601  0.20841000  0.90308499  1
  O  O9  1  0.79159001  0.30040400  0.59691501  1
  O  O10  1  0.79743098  0.84262001  0.63214201  1
  O  O11  1  0.15737999  0.20256900  0.86785798  1
  O  O12  1  0.20256900  0.15738000  0.36785800  1
  O  O13  1  0.84261998  0.79743101  0.13214202  1
  O  O14  1  0.41045498  0.58954501  0.75000000  1
  O  O15  1  0.58954500  0.41045501  0.25000001  1
