# generated using pymatgen
data_NaAgS2
_symmetry_space_group_name_H-M   'P 1'
_cell_length_a   4.96058607
_cell_length_b   4.96058607
_cell_length_c   6.66579390
_cell_angle_alpha   111.84473419
_cell_angle_beta   111.84473419
_cell_angle_gamma   90.00000000
_symmetry_Int_Tables_number   1
_chemical_formula_structural   NaAgS2
_chemical_formula_sum   'Na1 Ag1 S2'
_cell_volume   139.48107213
_cell_formula_units_Z   1
loop_
 _symmetry_equiv_pos_site_id
 _symmetry_equiv_pos_as_xyz
  1  'x, y, z'
loop_
 _atom_site_type_symbol
 _atom_site_label
 _atom_site_symmetry_multiplicity
 _atom_site_fract_x
 _atom_site_fract_y
 _atom_site_fract_z
 _atom_site_occupancy
  Na  Na0  1  0.88405498  0.88405498  0.76811000  1
  Ag  Ag1  1  0.11594500  0.11594500  0.23189000  1
  S  S2  1  0.65680398  0.65680399  0.31360799  1
  S  S3  1  0.34319599  0.34319599  0.68639201  1
