# generated using pymatgen
data_Li5RuO8
_symmetry_space_group_name_H-M   'P 1'
_cell_length_a   5.86147976
_cell_length_b   5.86147976
_cell_length_c   5.87809515
_cell_angle_alpha   60.09346008
_cell_angle_beta   60.09346008
_cell_angle_gamma   60.00000381
_symmetry_Int_Tables_number   1
_chemical_formula_structural   Li5RuO8
_chemical_formula_sum   'Li5 Ru1 O8'
_cell_volume   143.00401437
_cell_formula_units_Z   1
loop_
 _symmetry_equiv_pos_site_id
 _symmetry_equiv_pos_as_xyz
  1  'x, y, z'
loop_
 _atom_site_type_symbol
 _atom_site_label
 _atom_site_symmetry_multiplicity
 _atom_site_fract_x
 _atom_site_fract_y
 _atom_site_fract_z
 _atom_site_occupancy
  Li  Li0  1  0.11676400  0.11676400  0.64970802  1
  Li  Li1  1  0.49919902  0.49919800  0.50240502  1
  Li  Li2  1  0.49889002  0.49889000  0.99647803  1
  Li  Li3  1  0.00574201  0.49889000  0.99647802  1
  Li  Li4  1  0.49889000  0.00574200  0.99647803  1
  Ru  Ru5  1  0.88325703  0.88325699  0.35022902  1
  O  O6  1  0.26214301  0.26214300  0.21357101  1
  O  O7  1  0.25174502  0.70956799  0.78694202  1
  O  O8  1  0.70956801  0.25174500  0.78694203  1
  O  O9  1  0.25174501  0.25174500  0.78694202  1
  O  O10  1  0.74616802  0.74616799  0.21865102  1
  O  O11  1  0.28901302  0.74616799  0.21865101  1
  O  O12  1  0.74616801  0.28901300  0.21865101  1
  O  O13  1  0.74070802  0.74070799  0.77787603  1
