# generated using pymatgen
data_NaLi2BH3O
_symmetry_space_group_name_H-M   'P 1'
_cell_length_a   5.94212389
_cell_length_b   5.94212389
_cell_length_c   5.94212389
_cell_angle_alpha   60.00000000
_cell_angle_beta   60.00000000
_cell_angle_gamma   60.00000000
_symmetry_Int_Tables_number   1
_chemical_formula_structural   NaLi2BH3O
_chemical_formula_sum   'Na1 Li2 B1 H3 O1'
_cell_volume   148.35770595
_cell_formula_units_Z   1
loop_
 _symmetry_equiv_pos_site_id
 _symmetry_equiv_pos_as_xyz
  1  'x, y, z'
loop_
 _atom_site_type_symbol
 _atom_site_label
 _atom_site_symmetry_multiplicity
 _atom_site_fract_x
 _atom_site_fract_y
 _atom_site_fract_z
 _atom_site_occupancy
  Na  Na0  1  0.74999998  0.74999998  0.74999998  1
  Li  Li1  1  0.00000000  0.00000000  0.00000000  1
  Li  Li2  1  0.24999999  0.24999999  0.24999999  1
  B  B3  1  0.49999999  0.49999999  0.49999999  1
  H  H4  1  0.87499998  0.37499999  0.37499999  1
  H  H5  1  0.37499999  0.37499999  0.87499998  1
  H  H6  1  0.37499999  0.37499999  0.37499999  1
  O  O7  1  0.37499999  0.87499998  0.37499999  1
