# generated using pymatgen
data_Na2SrWO6
_symmetry_space_group_name_H-M   'P 1'
_cell_length_a   6.02763367
_cell_length_b   6.02763367
_cell_length_c   6.03023720
_cell_angle_alpha   91.04518127
_cell_angle_beta   119.38523865
_cell_angle_gamma   119.39712524
_symmetry_Int_Tables_number   1
_chemical_formula_structural   Na2SrWO6
_chemical_formula_sum   'Na2 Sr1 W1 O6'
_cell_volume   156.33629503
_cell_formula_units_Z   1
loop_
 _symmetry_equiv_pos_site_id
 _symmetry_equiv_pos_as_xyz
  1  'x, y, z'
loop_
 _atom_site_type_symbol
 _atom_site_label
 _atom_site_symmetry_multiplicity
 _atom_site_fract_x
 _atom_site_fract_y
 _atom_site_fract_z
 _atom_site_occupancy
  Sr  Sr0  1  0.50445298  0.24890898  0.75336199  1
  Na  Na1  1  0.49554694  0.75109095  0.24663799  1
  Na  Na2  1  -0.00000004  0.49999997  0.49999997  1
  W  W3  1  0.00000000  0.00000000  0.00000000  1
  O  O4  1  0.97067993  0.76851095  0.73919099  1
  O  O5  1  0.02931998  0.23148898  0.26080898  1
  O  O6  1  0.99969593  0.74463695  0.22091601  1
  O  O7  1  0.00030398  0.25536298  0.77908397  1
  O  O8  1  0.52372093  0.77877995  0.77908397  1
  O  O9  1  0.47627898  0.22121998  0.22091601  1
