# generated using pymatgen
data_SrCaNbZnO8
_symmetry_space_group_name_H-M   'P 1'
_cell_length_a   5.74342823
_cell_length_b   5.74342823
_cell_length_c   7.61179733
_cell_angle_alpha   112.16477203
_cell_angle_beta   112.16477203
_cell_angle_gamma   90.00000000
_symmetry_Int_Tables_number   1
_chemical_formula_structural   SrCaNbZnO8
_chemical_formula_sum   'Sr1 Ca1 Nb1 Zn1 O8'
_cell_volume   212.36531887
_cell_formula_units_Z   1
loop_
 _symmetry_equiv_pos_site_id
 _symmetry_equiv_pos_as_xyz
  1  'x, y, z'
loop_
 _atom_site_type_symbol
 _atom_site_label
 _atom_site_symmetry_multiplicity
 _atom_site_fract_x
 _atom_site_fract_y
 _atom_site_fract_z
 _atom_site_occupancy
  Sr  Sr0  1  0.12499999  0.37499998  0.74999999  1
  Ca  Ca1  1  0.87499994  0.62499997  0.24999997  1
  Zn  Zn2  1  0.62499995  0.87499995  0.74999997  1
  Nb  Nb3  1  0.37499998  0.12499999  0.24999999  1
  O  O4  1  0.68547996  0.07769700  0.40748499  1
  O  O5  1  0.82978796  0.18547999  0.90748399  1
  O  O6  1  0.57769596  0.72200396  0.90748398  1
  O  O7  1  0.22200398  0.32978698  0.40748299  1
  O  O8  1  0.77799595  0.67021296  0.59251697  1
  O  O9  1  0.42230397  0.27799599  0.09251599  1
  O  O10  1  0.17021197  0.81451996  0.09251598  1
  O  O11  1  0.31451996  0.92230295  0.59251497  1
