# generated using pymatgen
data_MgCu2TeS4
_symmetry_space_group_name_H-M   'P 1'
_cell_length_a   5.47440815
_cell_length_b   5.47440815
_cell_length_c   6.66096306
_cell_angle_alpha   114.26340485
_cell_angle_beta   114.26340485
_cell_angle_gamma   90.00000000
_symmetry_Int_Tables_number   1
_chemical_formula_structural   MgCu2TeS4
_chemical_formula_sum   'Mg1 Cu2 Te1 S4'
_cell_volume   162.45338237
_cell_formula_units_Z   1
loop_
 _symmetry_equiv_pos_site_id
 _symmetry_equiv_pos_as_xyz
  1  'x, y, z'
loop_
 _atom_site_type_symbol
 _atom_site_label
 _atom_site_symmetry_multiplicity
 _atom_site_fract_x
 _atom_site_fract_y
 _atom_site_fract_z
 _atom_site_occupancy
  Mg  Mg0  1  0.24999998  0.74999997  0.49999999  1
  Cu  Cu1  1  0.49999998  0.49999998  -0.00000001  1
  Cu  Cu2  1  0.74999997  0.24999999  0.50000000  1
  Te  Te3  1  0.00000000  0.00000000  0.00000000  1
  S  S4  1  0.36499198  0.37573799  0.26641799  1
  S  S5  1  0.90142596  0.89067897  0.26641798  1
  S  S6  1  0.10931999  0.63500798  0.73358200  1
  S  S7  1  0.62426098  0.09857400  0.73358200  1
