# generated using pymatgen
data_Na3LiNdHNO
_symmetry_space_group_name_H-M   'P 1'
_cell_length_a   4.37513018
_cell_length_b   4.37513018
_cell_length_c   7.81325483
_cell_angle_alpha   90.00000000
_cell_angle_beta   90.00000000
_cell_angle_gamma   120.00000000
_symmetry_Int_Tables_number   1
_chemical_formula_structural   Na3LiNdHNO
_chemical_formula_sum   'Na3 Li1 Nd1 H1 N1 O1'
_cell_volume   129.52230955
_cell_formula_units_Z   1
loop_
 _symmetry_equiv_pos_site_id
 _symmetry_equiv_pos_as_xyz
  1  'x, y, z'
loop_
 _atom_site_type_symbol
 _atom_site_label
 _atom_site_symmetry_multiplicity
 _atom_site_fract_x
 _atom_site_fract_y
 _atom_site_fract_z
 _atom_site_occupancy
  Li  Li0  1  0.00000000  0.00000000  0.75000002  1
  Nd  Nd1  1  0.00000000  0.00000000  0.25000001  1
  Na  Na2  1  0.66666665  0.33333334  0.41520501  1
  Na  Na3  1  0.33333334  0.66666669  0.91520502  1
  H  H4  1  0.33333334  0.66666669  0.58479501  1
  Na  Na5  1  0.66666665  0.33333334  0.08479500  1
  N  N6  1  0.66666665  0.33333334  0.75000002  1
  O  O7  1  0.33333334  0.66666669  0.25000001  1
