# generated using pymatgen
data_LiCaNbZnO6
_symmetry_space_group_name_H-M   'P 1'
_cell_length_a   5.59451437
_cell_length_b   5.59451437
_cell_length_c   5.63055277
_cell_angle_alpha   60.21149445
_cell_angle_beta   60.21149445
_cell_angle_gamma   60.00000000
_symmetry_Int_Tables_number   1
_chemical_formula_structural   LiCaNbZnO6
_chemical_formula_sum   'Li1 Ca1 Nb1 Zn1 O6'
_cell_volume   125.00914252
_cell_formula_units_Z   1
loop_
 _symmetry_equiv_pos_site_id
 _symmetry_equiv_pos_as_xyz
  1  'x, y, z'
loop_
 _atom_site_type_symbol
 _atom_site_label
 _atom_site_symmetry_multiplicity
 _atom_site_fract_x
 _atom_site_fract_y
 _atom_site_fract_z
 _atom_site_occupancy
  Li  Li0  1  0.00000000  0.00000000  0.00000000  1
  Ca  Ca1  1  0.25121900  0.25121899  0.24634299  1
  Nb  Nb2  1  0.74878100  0.74878096  0.75365698  1
  Zn  Zn3  1  0.50000000  0.49999997  0.49999999  1
  O  O4  1  0.28559202  0.81558496  0.27222799  1
  O  O5  1  0.37340501  0.71440796  0.72777198  1
  O  O6  1  0.18441501  0.37340498  0.72777199  1
  O  O7  1  0.81558499  0.62659497  0.27222799  1
  O  O8  1  0.62659498  0.28559198  0.27222799  1
  O  O9  1  0.71440798  0.18441499  0.72777199  1
