# generated using pymatgen
data_Ba3SrNbWO10
_symmetry_space_group_name_H-M   'P 1'
_cell_length_a   6.79947376
_cell_length_b   7.18370008
_cell_length_c   8.27012348
_cell_angle_alpha   90.00000000
_cell_angle_beta   114.27310944
_cell_angle_gamma   90.00000000
_symmetry_Int_Tables_number   1
_chemical_formula_structural   Ba3SrNbWO10
_chemical_formula_sum   'Ba3 Sr1 Nb1 W1 O10'
_cell_volume   368.24600863
_cell_formula_units_Z   1
loop_
 _symmetry_equiv_pos_site_id
 _symmetry_equiv_pos_as_xyz
  1  'x, y, z'
loop_
 _atom_site_type_symbol
 _atom_site_label
 _atom_site_symmetry_multiplicity
 _atom_site_fract_x
 _atom_site_fract_y
 _atom_site_fract_z
 _atom_site_occupancy
  Sr  Sr0  1  0.24602100  0.25000000  0.49204200  1
  Ba  Ba1  1  0.75397901  0.74999999  0.50795798  1
  Ba  Ba2  1  0.56557001  0.25000000  0.13113998  1
  Ba  Ba3  1  0.43443001  0.74999999  0.86885999  1
  Nb  Nb4  1  0.90496501  0.25000000  0.80992997  1
  W  W5  1  0.09503500  0.74999999  0.19007000  1
  O  O6  1  0.10347700  0.04608200  0.76547000  1
  O  O7  1  0.89652301  0.95391799  0.23452997  1
  O  O8  1  0.89652301  0.54608199  0.23452997  1
  O  O9  1  0.66199301  0.45391799  0.76546998  1
  O  O10  1  0.10347700  0.45391799  0.76547000  1
  O  O11  1  0.33800701  0.54608199  0.23452999  1
  O  O12  1  0.33800701  0.95391799  0.23452999  1
  O  O13  1  0.66199301  0.04608200  0.76546998  1
  O  O14  1  0.77228801  0.25000000  0.54457598  1
  O  O15  1  0.22771200  0.74999999  0.45542400  1
