# generated using pymatgen
data_Li8SiPN4
_symmetry_space_group_name_H-M   'P 1'
_cell_length_a   5.76531029
_cell_length_b   5.76531029
_cell_length_c   5.76531029
_cell_angle_alpha   60.00000000
_cell_angle_beta   60.00000000
_cell_angle_gamma   60.00000000
_symmetry_Int_Tables_number   1
_chemical_formula_structural   Li8SiPN4
_chemical_formula_sum   'Li8 Si1 P1 N4'
_cell_volume   135.50429462
_cell_formula_units_Z   1
loop_
 _symmetry_equiv_pos_site_id
 _symmetry_equiv_pos_as_xyz
  1  'x, y, z'
loop_
 _atom_site_type_symbol
 _atom_site_label
 _atom_site_symmetry_multiplicity
 _atom_site_fract_x
 _atom_site_fract_y
 _atom_site_fract_z
 _atom_site_occupancy
  Li  Li0  1  0.37500000  0.87500000  0.37500000  1
  Li  Li1  1  0.37500000  0.37500000  0.37500000  1
  Li  Li2  1  0.37500000  0.37500000  0.87500000  1
  Li  Li3  1  0.87500000  0.37500000  0.37500000  1
  Li  Li4  1  0.75000000  0.75000000  0.75000000  1
  Li  Li5  1  0.00000000  0.00000000  0.00000000  1
  P  P6  1  0.11906400  0.64280600  0.11906500  1
  N  N7  1  0.11906400  0.11906500  0.11906500  1
  Li  Li8  1  0.11906400  0.11906500  0.64280600  1
  N  N9  1  0.64280500  0.11906500  0.11906500  1
  Si  Si10  1  0.63093600  0.10719400  0.63093500  1
  Li  Li11  1  0.63093600  0.63093500  0.63093500  1
  N  N12  1  0.63093600  0.63093500  0.10719400  1
  N  N13  1  0.10719500  0.63093500  0.63093500  1
