# generated using pymatgen
data_Li2AgS5
_symmetry_space_group_name_H-M   'P 1'
_cell_length_a   5.78667212
_cell_length_b   5.78667212
_cell_length_c   6.70073652
_cell_angle_alpha   115.58145142
_cell_angle_beta   115.58145142
_cell_angle_gamma   90.00000000
_symmetry_Int_Tables_number   1
_chemical_formula_structural   Li2AgS5
_chemical_formula_sum   'Li2 Ag1 S5'
_cell_volume   177.68532370
_cell_formula_units_Z   1
loop_
 _symmetry_equiv_pos_site_id
 _symmetry_equiv_pos_as_xyz
  1  'x, y, z'
loop_
 _atom_site_type_symbol
 _atom_site_label
 _atom_site_symmetry_multiplicity
 _atom_site_fract_x
 _atom_site_fract_y
 _atom_site_fract_z
 _atom_site_occupancy
  Li  Li0  1  0.25000006  0.75000002  0.50000009  1
  Li  Li1  1  0.50000004  0.50000001  0.00000007  1
  Ag  Ag2  1  0.00000000  0.00000000  0.00000000  1
  S  S3  1  0.75000002  0.25000001  0.50000007  1
  S  S4  1  0.58751201  0.12500000  0.75000006  1
  S  S5  1  0.37500003  0.41248801  0.25000006  1
  S  S6  1  0.16248805  0.62500001  0.75000008  1
  S  S7  1  0.87500007  0.83751202  0.25000013  1
