# generated using pymatgen
data_SrLi3SbAs(SeS2)2
_symmetry_space_group_name_H-M   'P 1'
_cell_length_a   7.10889721
_cell_length_b   7.10889721
_cell_length_c   7.10889721
_cell_angle_alpha   90.00000000
_cell_angle_beta   90.00000000
_cell_angle_gamma   90.00000000
_symmetry_Int_Tables_number   1
_chemical_formula_structural   SrLi3SbAs(SeS2)2
_chemical_formula_sum   'Sr1 Li3 Sb1 As1 Se2 S4'
_cell_volume   359.25821176
_cell_formula_units_Z   1
loop_
 _symmetry_equiv_pos_site_id
 _symmetry_equiv_pos_as_xyz
  1  'x, y, z'
loop_
 _atom_site_type_symbol
 _atom_site_label
 _atom_site_symmetry_multiplicity
 _atom_site_fract_x
 _atom_site_fract_y
 _atom_site_fract_z
 _atom_site_occupancy
  Sr  Sr0  1  0.00000000  0.00000000  0.00000000  1
  Li  Li1  1  0.49999999  0.00000000  0.49999999  1
  Li  Li2  1  0.49999999  0.49999999  -0.00000000  1
  Li  Li3  1  0.00000000  0.49999999  0.49999999  1
  Sb  Sb4  1  0.38668499  0.38668499  0.38668499  1
  Se  Se5  1  0.11331500  0.61331498  0.88668497  1
  As  As6  1  0.88668497  0.11331500  0.61331498  1
  S  S7  1  0.61331498  0.88668497  0.11331500  1
  Se  Se8  1  0.61331498  0.61331498  0.61331498  1
  S  S9  1  0.88668497  0.38668499  0.11331500  1
  S  S10  1  0.11331500  0.88668497  0.38668499  1
  S  S11  1  0.38668499  0.11331500  0.88668497  1
