# generated using pymatgen
data_Li6VO9
_symmetry_space_group_name_H-M   'P 1'
_cell_length_a   3.77579403
_cell_length_b   5.32946777
_cell_length_c   9.94857311
_cell_angle_alpha   90.00000000
_cell_angle_beta   90.00000000
_cell_angle_gamma   110.74671936
_symmetry_Int_Tables_number   1
_chemical_formula_structural   Li6VO9
_chemical_formula_sum   'Li6 V1 O9'
_cell_volume   187.21332709
_cell_formula_units_Z   1
loop_
 _symmetry_equiv_pos_site_id
 _symmetry_equiv_pos_as_xyz
  1  'x, y, z'
loop_
 _atom_site_type_symbol
 _atom_site_label
 _atom_site_symmetry_multiplicity
 _atom_site_fract_x
 _atom_site_fract_y
 _atom_site_fract_z
 _atom_site_occupancy
  Li  Li0  1  0.14217702  0.28435400  0.06361600  1
  Li  Li1  1  0.85782305  0.71564599  0.56361599  1
  Li  Li2  1  0.86494105  0.72988199  0.94158099  1
  Li  Li3  1  0.13505902  0.27011800  0.44158100  1
  Li  Li4  1  0.18582803  0.37165599  0.74538899  1
  Li  Li5  1  0.81417204  0.62834399  0.24538900  1
  V  V6  1  0.74583603  0.49167199  0.76132099  1
  O  O7  1  0.25416404  0.50832799  0.26132100  1
  O  O8  1  0.29452804  0.58905599  0.57765199  1
  O  O9  1  0.68260102  0.36520199  0.41835800  1
  O  O10  1  0.31739904  0.63479799  0.91835799  1
  O  O11  1  0.70547202  0.41094399  0.07765200  1
  O  O12  1  0.04972401  0.09944800  0.61554199  1
  O  O13  1  0.95855706  0.91711399  0.37654000  1
  O  O14  1  0.04144301  0.08288600  0.87653999  1
  O  O15  1  0.95027606  0.90055199  0.11554200  1
