# generated using pymatgen
data_NaLiAgSbS4
_symmetry_space_group_name_H-M   'P 1'
_cell_length_a   5.38549805
_cell_length_b   5.38549805
_cell_length_c   7.15902424
_cell_angle_alpha   112.09439087
_cell_angle_beta   112.09439087
_cell_angle_gamma   90.00000000
_symmetry_Int_Tables_number   1
_chemical_formula_structural   NaLiAgSbS4
_chemical_formula_sum   'Na1 Li1 Ag1 Sb1 S4'
_cell_volume   175.82451125
_cell_formula_units_Z   1
loop_
 _symmetry_equiv_pos_site_id
 _symmetry_equiv_pos_as_xyz
  1  'x, y, z'
loop_
 _atom_site_type_symbol
 _atom_site_label
 _atom_site_symmetry_multiplicity
 _atom_site_fract_x
 _atom_site_fract_y
 _atom_site_fract_z
 _atom_site_occupancy
  Na  Na0  1  0.50000002  0.50000000  0.00000003  1
  Li  Li1  1  0.25000002  0.75000001  0.50000003  1
  Ag  Ag2  1  0.75000001  0.25000000  0.50000002  1
  Sb  Sb3  1  0.00000000  0.00000000  0.00000000  1
  S  S4  1  0.72467103  0.72467101  0.44934204  1
  S  S5  1  0.02532902  0.52532901  0.05065802  1
  S  S6  1  0.47467103  0.97467101  0.94934204  1
  S  S7  1  0.27532901  0.27532900  0.55065801  1
