# generated using pymatgen
data_SrLaAg4Se2(S4Cl)2
_symmetry_space_group_name_H-M   'P 1'
_cell_length_a   6.69530916
_cell_length_b   8.38964558
_cell_length_c   8.38964558
_cell_angle_alpha   75.56713104
_cell_angle_beta   89.76879120
_cell_angle_gamma   89.76879120
_symmetry_Int_Tables_number   1
_chemical_formula_structural   SrLaAg4Se2(S4Cl)2
_chemical_formula_sum   'Sr1 La1 Ag4 Se2 S8 Cl2'
_cell_volume   456.37839080
_cell_formula_units_Z   1
loop_
 _symmetry_equiv_pos_site_id
 _symmetry_equiv_pos_as_xyz
  1  'x, y, z'
loop_
 _atom_site_type_symbol
 _atom_site_label
 _atom_site_symmetry_multiplicity
 _atom_site_fract_x
 _atom_site_fract_y
 _atom_site_fract_z
 _atom_site_occupancy
  Sr  Sr0  1  0.46104202  0.25199699  0.99426299  1
  La  La1  1  0.03895800  0.00573700  0.74800298  1
  Ag  Ag2  1  0.53895805  0.74800297  0.00573704  1
  Ag  Ag3  1  0.96104207  0.99426296  0.25199706  1
  Ag  Ag4  1  0.75000003  0.40012898  0.59987102  1
  Ag  Ag5  1  0.25000004  0.59987097  0.40012901  1
  Se  Se6  1  0.91743104  0.41702598  0.17555505  1
  Se  Se7  1  0.58256905  0.82444496  0.58297403  1
  S  S8  1  0.08256903  0.58297398  0.82444499  1
  S  S9  1  0.41743102  0.17555499  0.41702601  1
  S  S10  1  0.97649303  0.29491499  0.94241902  1
  S  S11  1  0.52350701  0.05758100  0.70508500  1
  Cl  Cl12  1  0.02350704  0.70508497  0.05758102  1
  S  S13  1  0.47649306  0.94241896  0.29491504  1
  S  S14  1  0.57464903  0.42458298  0.25971103  1
  S  S15  1  0.92535105  0.74028897  0.57541704  1
  S  S16  1  0.42535104  0.57541698  0.74028901  1
  Cl  Cl17  1  0.07464901  0.25971099  0.42458300  1
