# generated using pymatgen
data_Zn8GeAsS10
_symmetry_space_group_name_H-M   'P 1'
_cell_length_a   3.85308790
_cell_length_b   3.85308886
_cell_length_c   31.51255608
_cell_angle_alpha   90.00000000
_cell_angle_beta   90.00000000
_cell_angle_gamma   119.99999237
_symmetry_Int_Tables_number   1
_chemical_formula_structural   Zn8GeAsS10
_chemical_formula_sum   'Zn8 Ge1 As1 S10'
_cell_volume   405.16529465
_cell_formula_units_Z   1
loop_
 _symmetry_equiv_pos_site_id
 _symmetry_equiv_pos_as_xyz
  1  'x, y, z'
loop_
 _atom_site_type_symbol
 _atom_site_label
 _atom_site_symmetry_multiplicity
 _atom_site_fract_x
 _atom_site_fract_y
 _atom_site_fract_z
 _atom_site_occupancy
  Ge  Ge0  1  0.00000000  0.00000000  0.39997300  1
  Zn  Zn1  1  0.33333333  0.66666665  0.79997300  1
  Zn  Zn2  1  0.33333333  0.66666665  0.19998000  1
  Zn  Zn3  1  0.66666668  0.33333332  0.29997300  1
  Zn  Zn4  1  0.00000000  0.00000000  0.69997300  1
  Zn  Zn5  1  0.00000000  0.00000000  0.99998100  1
  Zn  Zn6  1  0.66666668  0.33333332  0.09996100  1
  Zn  Zn7  1  0.33333333  0.66666665  0.49997300  1
  As  As8  1  0.66666668  0.33333332  0.89996100  1
  Zn  Zn9  1  0.66666668  0.33333332  0.59997300  1
  S  S10  1  0.00000000  0.00000000  0.92499500  1
  S  S11  1  0.00000000  0.00000000  0.32502600  1
  S  S12  1  0.66666668  0.33333332  0.02506400  1
  S  S13  1  0.66666668  0.33333332  0.52502700  1
  S  S14  1  0.33333333  0.66666665  0.42502800  1
  S  S15  1  0.66666668  0.33333332  0.22505900  1
  S  S16  1  0.33333333  0.66666665  0.72502700  1
  S  S17  1  0.66666668  0.33333332  0.82503200  1
  S  S18  1  0.00000000  0.00000000  0.62502700  1
  S  S19  1  0.33333333  0.66666665  0.12499400  1
