# generated using pymatgen
data_Li5NO7
_symmetry_space_group_name_H-M   'P 1'
_cell_length_a   3.84301805
_cell_length_b   6.49105883
_cell_length_c   6.56788301
_cell_angle_alpha   106.51499176
_cell_angle_beta   90.00000000
_cell_angle_gamma   107.21894836
_symmetry_Int_Tables_number   1
_chemical_formula_structural   Li5NO7
_chemical_formula_sum   'Li5 N1 O7'
_cell_volume   149.40352222
_cell_formula_units_Z   1
loop_
 _symmetry_equiv_pos_site_id
 _symmetry_equiv_pos_as_xyz
  1  'x, y, z'
loop_
 _atom_site_type_symbol
 _atom_site_label
 _atom_site_symmetry_multiplicity
 _atom_site_fract_x
 _atom_site_fract_y
 _atom_site_fract_z
 _atom_site_occupancy
  Li  Li0  1  0.00171100  0.00342200  0.00524100  1
  Li  Li1  1  0.60175599  0.20351200  0.70828601  1
  Li  Li2  1  0.39839198  0.79678401  0.30011100  1
  Li  Li3  1  0.29762698  0.59525401  0.70738401  1
  Li  Li4  1  0.70153998  0.40308000  0.29455400  1
  O  O5  1  0.55412299  0.10824600  0.36388601  1
  O  O6  1  0.44154198  0.88308401  0.63368500  1
  N  N7  1  0.62334599  0.24669200  0.99308002  1
  O  O8  1  0.37028198  0.74056401  0.98905201  1
  O  O9  1  0.76497398  0.52994800  0.65972401  1
  O  O10  1  0.23962599  0.47925200  0.35372000  1
  O  O11  1  0.86785297  0.73570601  0.28648900  1
  O  O12  1  0.13722999  0.27446000  0.70478901  1
