# generated using pymatgen
data_Li4Cr3FeO12
_symmetry_space_group_name_H-M   'P 1'
_cell_length_a   5.48468828
_cell_length_b   7.16397142
_cell_length_c   7.16397142
_cell_angle_alpha   87.16736603
_cell_angle_beta   80.62062073
_cell_angle_gamma   80.62062073
_symmetry_Int_Tables_number   1
_chemical_formula_structural   Li4Cr3FeO12
_chemical_formula_sum   'Li4 Cr3 Fe1 O12'
_cell_volume   273.93610035
_cell_formula_units_Z   1
loop_
 _symmetry_equiv_pos_site_id
 _symmetry_equiv_pos_as_xyz
  1  'x, y, z'
loop_
 _atom_site_type_symbol
 _atom_site_label
 _atom_site_symmetry_multiplicity
 _atom_site_fract_x
 _atom_site_fract_y
 _atom_site_fract_z
 _atom_site_occupancy
  Li  Li0  1  0.24999997  0.71238498  0.28761496  1
  Li  Li1  1  0.74999998  0.28761499  0.71238495  1
  Li  Li2  1  0.24999999  0.09762800  0.90237196  1
  Li  Li3  1  0.74999996  0.90237198  0.09762794  1
  Cr  Cr4  1  0.22696497  0.61671398  0.79329795  1
  Cr  Cr5  1  0.27303499  0.20670199  0.38328597  1
  Cr  Cr6  1  0.77303498  0.38328599  0.20670196  1
  Fe  Fe7  1  0.72696496  0.79329798  0.61671393  1
  O  O8  1  0.12981799  0.14391700  0.60688797  1
  O  O9  1  0.37018198  0.39311199  0.85608295  1
  O  O10  1  0.87018196  0.85608298  0.39311193  1
  O  O11  1  0.62981797  0.60688798  0.14391696  1
  O  O12  1  0.05816298  0.40448399  0.29976697  1
  O  O13  1  0.44183697  0.70023298  0.59551594  1
  O  O14  1  0.94183697  0.59551598  0.70023293  1
  O  O15  1  0.55816298  0.29976699  0.40448396  1
  O  O16  1  0.65323696  0.97153197  0.78638192  1
  O  O17  1  0.84676299  0.21361799  0.02846797  1
  O  O18  1  0.34676300  0.02846800  0.21361798  1
  O  O19  1  0.15323697  0.78638198  0.97153194  1
