# generated using pymatgen
data_BaSrSiTe(SO2)4
_symmetry_space_group_name_H-M   'P 1'
_cell_length_a   6.59167051
_cell_length_b   6.59167051
_cell_length_c   6.65391064
_cell_angle_alpha   107.88565063
_cell_angle_beta   107.88565063
_cell_angle_gamma   112.33143616
_symmetry_Int_Tables_number   1
_chemical_formula_structural   BaSrSiTe(SO2)4
_chemical_formula_sum   'Ba1 Sr1 Si1 Te1 S4 O8'
_cell_volume   223.06853768
_cell_formula_units_Z   1
loop_
 _symmetry_equiv_pos_site_id
 _symmetry_equiv_pos_as_xyz
  1  'x, y, z'
loop_
 _atom_site_type_symbol
 _atom_site_label
 _atom_site_symmetry_multiplicity
 _atom_site_fract_x
 _atom_site_fract_y
 _atom_site_fract_z
 _atom_site_occupancy
  Ba  Ba0  1  0.49528601  0.49528601  0.00000006  1
  Sr  Sr1  1  0.24528600  0.74528602  0.50000005  1
  Si  Si2  1  0.76699602  0.26699601  0.50000006  1
  Te  Te3  1  0.01699600  0.01699600  0.00000000  1
  S  S4  1  0.84449702  0.28280801  0.87108906  1
  S  S5  1  0.41172000  0.97340902  0.12891209  1
  S  S6  1  0.03280800  0.09449700  0.37108800  1
  S  S7  1  0.72340801  0.66171901  0.62891108  1
  O  O8  1  0.70115002  0.27521501  0.73942505  1
  O  O9  1  0.05012300  0.30269201  0.07225402  1
  O  O10  1  0.53579001  0.96172502  0.26057509  1
  O  O11  1  0.23043800  0.97786902  0.92774606  1
  O  O12  1  0.72786901  0.48043801  0.42774607  1
  O  O13  1  0.02521499  0.95115002  0.23942506  1
  O  O14  1  0.05269200  0.30012301  0.57225401  1
  O  O15  1  0.71172501  0.78579002  0.76057508  1
