# generated using pymatgen
data_Li3MgCu2PSe3S2
_symmetry_space_group_name_H-M   'P 1'
_cell_length_a   7.44083929
_cell_length_b   7.44083929
_cell_length_c   7.44083929
_cell_angle_alpha   60.00000000
_cell_angle_beta   60.00000000
_cell_angle_gamma   60.00000000
_symmetry_Int_Tables_number   1
_chemical_formula_structural   Li3MgCu2PSe3S2
_chemical_formula_sum   'Li3 Mg1 Cu2 P1 Se3 S2'
_cell_volume   291.30690297
_cell_formula_units_Z   1
loop_
 _symmetry_equiv_pos_site_id
 _symmetry_equiv_pos_as_xyz
  1  'x, y, z'
loop_
 _atom_site_type_symbol
 _atom_site_label
 _atom_site_symmetry_multiplicity
 _atom_site_fract_x
 _atom_site_fract_y
 _atom_site_fract_z
 _atom_site_occupancy
  Li  Li0  1  0.37500001  0.37500001  0.87500001  1
  Li  Li1  1  0.37500001  0.37500001  0.37500001  1
  Li  Li2  1  0.37500001  0.87500001  0.37500001  1
  Mg  Mg3  1  0.87500001  0.37500001  0.37500001  1
  Cu  Cu4  1  0.62207301  0.62207201  0.13378300  1
  Se  Se5  1  0.62207301  0.62207201  0.62207201  1
  Cu  Cu6  1  0.62207301  0.13378300  0.62207201  1
  Se  Se7  1  0.13378400  0.62207201  0.62207201  1
  P  P8  1  0.12792700  0.12792800  0.61621701  1
  S  S9  1  0.12792700  0.12792800  0.12792800  1
  S  S10  1  0.12792700  0.61621701  0.12792800  1
  Se  Se11  1  0.61621601  0.12792800  0.12792800  1
