# generated using pymatgen
data_SrLaPr2Nd(AgS4)3
_symmetry_space_group_name_H-M   'P 1'
_cell_length_a   6.79215622
_cell_length_b   7.18420315
_cell_length_c   9.84614182
_cell_angle_alpha   90.00000000
_cell_angle_beta   90.00000000
_cell_angle_gamma   90.00000000
_symmetry_Int_Tables_number   1
_chemical_formula_structural   SrLaPr2Nd(AgS4)3
_chemical_formula_sum   'Sr1 La1 Pr2 Nd1 Ag3 S12'
_cell_volume   480.45460154
_cell_formula_units_Z   1
loop_
 _symmetry_equiv_pos_site_id
 _symmetry_equiv_pos_as_xyz
  1  'x, y, z'
loop_
 _atom_site_type_symbol
 _atom_site_label
 _atom_site_symmetry_multiplicity
 _atom_site_fract_x
 _atom_site_fract_y
 _atom_site_fract_z
 _atom_site_occupancy
  Sr  Sr0  1  0.47501098  0.08013000  0.25000000  1
  La  La1  1  0.97501097  0.41986999  0.75000001  1
  Pr  Pr2  1  0.02498900  0.58012999  0.25000000  1
  Nd  Nd3  1  0.52498898  0.91986998  0.75000001  1
  Pr  Pr4  1  0.00000000  0.00000000  0.00000000  1
  Ag  Ag5  1  0.49999998  0.49999999  -0.00000000  1
  Ag  Ag6  1  0.49999998  0.49999999  0.50000001  1
  Ag  Ag7  1  0.00000000  0.00000000  0.50000001  1
  S  S8  1  0.40172299  0.51988499  0.75000001  1
  S  S9  1  0.90172297  0.98011498  0.25000000  1
  S  S10  1  0.09827700  0.01988500  0.75000001  1
  S  S11  1  0.59827698  0.48011499  0.25000000  1
  S  S12  1  0.19229299  0.30321899  0.05052300  1
  S  S13  1  0.69229298  0.19678100  0.94947702  1
  S  S14  1  0.30770699  0.80321898  0.44947701  1
  S  S15  1  0.80770697  0.69678099  0.55052301  1
  S  S16  1  0.19229299  0.30321899  0.44947701  1
  S  S17  1  0.69229298  0.19678100  0.55052301  1
  S  S18  1  0.30770699  0.80321898  0.05052300  1
  S  S19  1  0.80770697  0.69678099  0.94947702  1
