# generated using pymatgen
data_InAgICl
_symmetry_space_group_name_H-M   'P 1'
_cell_length_a   4.60594177
_cell_length_b   4.60594177
_cell_length_c   8.64331436
_cell_angle_alpha   74.54714966
_cell_angle_beta   74.54714966
_cell_angle_gamma   60.00000381
_symmetry_Int_Tables_number   1
_chemical_formula_structural   InAgICl
_chemical_formula_sum   'In1 Ag1 I1 Cl1'
_cell_volume   151.09646581
_cell_formula_units_Z   1
loop_
 _symmetry_equiv_pos_site_id
 _symmetry_equiv_pos_as_xyz
  1  'x, y, z'
loop_
 _atom_site_type_symbol
 _atom_site_label
 _atom_site_symmetry_multiplicity
 _atom_site_fract_x
 _atom_site_fract_y
 _atom_site_fract_z
 _atom_site_occupancy
  In  In0  1  0.00000000  0.00000000  0.00000000  1
  Cl  Cl1  1  0.49999997  0.49999999  0.50000002  1
  Ag  Ag2  1  0.74004596  0.74004599  0.77986203  1
  I  I3  1  0.25995399  0.25995400  0.22013801  1
