# generated using pymatgen
data_Li7VO8
_symmetry_space_group_name_H-M   'P 1'
_cell_length_a   5.54032803
_cell_length_b   5.91144419
_cell_length_c   6.81459713
_cell_angle_alpha   90.00000000
_cell_angle_beta   90.00000000
_cell_angle_gamma   90.00000000
_symmetry_Int_Tables_number   1
_chemical_formula_structural   Li7VO8
_chemical_formula_sum   'Li7 V1 O8'
_cell_volume   223.18718690
_cell_formula_units_Z   1
loop_
 _symmetry_equiv_pos_site_id
 _symmetry_equiv_pos_as_xyz
  1  'x, y, z'
loop_
 _atom_site_type_symbol
 _atom_site_label
 _atom_site_symmetry_multiplicity
 _atom_site_fract_x
 _atom_site_fract_y
 _atom_site_fract_z
 _atom_site_occupancy
  Li  Li0  1  0.99879000  0.58292798  0.87498498  1
  Li  Li1  1  0.49879000  0.41707199  0.12501500  1
  O  O2  1  0.49879000  0.91707197  0.37498499  1
  Li  Li3  1  0.99879000  0.08292800  0.62501499  1
  Li  Li4  1  0.99929300  0.58727998  0.37499499  1
  Li  Li5  1  0.49929300  0.41271999  0.62500499  1
  Li  Li6  1  0.49929300  0.91271997  0.87499498  1
  Li  Li7  1  0.99929300  0.08728000  0.12500500  1
  V  V8  1  0.37806200  0.58226198  0.37435099  1
  O  O9  1  0.87806200  0.41773799  0.62564899  1
  O  O10  1  0.87806200  0.91773797  0.87435098  1
  O  O11  1  0.37806200  0.08226200  0.12564900  1
  O  O12  1  0.37385500  0.58055998  0.87575098  1
  O  O13  1  0.87385500  0.41943999  0.12424900  1
  O  O14  1  0.87385500  0.91943997  0.37575099  1
  O  O15  1  0.37385500  0.08056000  0.62424899  1
