# generated using pymatgen
data_K4RbTe2H2S5I2
_symmetry_space_group_name_H-M   'P 1'
_cell_length_a   7.79957438
_cell_length_b   8.09170246
_cell_length_c   11.99197865
_cell_angle_alpha   84.20169830
_cell_angle_beta   71.02233124
_cell_angle_gamma   71.90094757
_symmetry_Int_Tables_number   1
_chemical_formula_structural   K4RbTe2H2S5I2
_chemical_formula_sum   'Rb1 K4 Te2 H2 S5 I2'
_cell_volume   680.28614180
_cell_formula_units_Z   1
loop_
 _symmetry_equiv_pos_site_id
 _symmetry_equiv_pos_as_xyz
  1  'x, y, z'
loop_
 _atom_site_type_symbol
 _atom_site_label
 _atom_site_symmetry_multiplicity
 _atom_site_fract_x
 _atom_site_fract_y
 _atom_site_fract_z
 _atom_site_occupancy
  Rb  Rb0  1  0.44875600  0.28946200  0.24856100  1
  K  K1  1  0.69731700  0.28946200  0.75143900  1
  K  K2  1  0.73604900  0.65835001  0.38882899  1
  K  K3  1  0.12487799  0.65835001  0.61117097  1
  K  K4  1  0.81951400  0.73215201  -0.00000000  1
  H  H5  1  0.27228800  0.50762101  -0.00000001  1
  H  H6  1  0.41220300  0.60639601  -0.00000001  1
  I  I7  1  0.93485000  0.37462001  0.00000002  1
  Te  Te8  1  0.34301199  0.78999201  0.39009697  1
  I  I9  1  0.73310900  0.78999201  0.60990298  1
  S  S10  1  0.88151500  0.30109800  0.38983801  1
  S  S11  1  0.27135300  0.30109800  0.61016199  1
  S  S12  1  0.92097800  0.84377601  0.19709500  1
  Te  Te13  1  0.11807399  0.84377601  0.80290496  1
  S  S14  1  0.47321199  0.95755901  -0.00000002  1
  S  S15  1  0.40243200  0.48877501  -0.00000001  1
