# generated using pymatgen
data_Li4V2TeO11
_symmetry_space_group_name_H-M   'P 1'
_cell_length_a   5.11611509
_cell_length_b   5.33199835
_cell_length_c   9.18593502
_cell_angle_alpha   89.98899841
_cell_angle_beta   89.99645996
_cell_angle_gamma   89.99384308
_symmetry_Int_Tables_number   1
_chemical_formula_structural   Li4V2TeO11
_chemical_formula_sum   'Li4 V2 Te1 O11'
_cell_volume   250.58419171
_cell_formula_units_Z   1
loop_
 _symmetry_equiv_pos_site_id
 _symmetry_equiv_pos_as_xyz
  1  'x, y, z'
loop_
 _atom_site_type_symbol
 _atom_site_label
 _atom_site_symmetry_multiplicity
 _atom_site_fract_x
 _atom_site_fract_y
 _atom_site_fract_z
 _atom_site_occupancy
  Li  Li0  1  0.49998498  0.50000800  0.47405198  1
  Li  Li1  1  0.99999395  0.99996200  0.52594996  1
  Li  Li2  1  0.00003697  0.49998800  0.73966498  1
  Li  Li3  1  0.49995900  0.00000900  0.26028800  1
  Te  Te4  1  0.50001195  0.99996200  0.80199396  1
  V  V5  1  0.00000497  0.49999100  0.19803398  1
  V  V6  1  0.75799796  0.81523000  0.70031097  1
  O  O7  1  0.24206899  0.18477200  0.70029199  1
  O  O8  1  0.25796696  0.68481700  0.29968298  1
  O  O9  1  0.74198199  0.31520600  0.29968099  1
  O  O10  1  0.71872996  0.82084200  0.39630597  1
  O  O11  1  0.28120499  0.17918800  0.39627799  1
  O  O12  1  0.21873296  0.67914400  0.60366198  1
  O  O13  1  0.78127399  0.32084700  0.60368799  1
  O  O14  1  0.33910696  0.79137100  0.91647097  1
  O  O15  1  0.83903797  0.70865400  0.08356897  1
  O  O16  1  0.16092999  0.29135600  0.08358299  1
  O  O17  1  0.66097499  0.20865300  0.91649299  1
