# generated using pymatgen
data_Li4As3PSe2(S2O3)2
_symmetry_space_group_name_H-M   'P 1'
_cell_length_a   6.59371519
_cell_length_b   7.34566689
_cell_length_c   7.99263048
_cell_angle_alpha   90.80943298
_cell_angle_beta   93.52879333
_cell_angle_gamma   110.00300598
_symmetry_Int_Tables_number   1
_chemical_formula_structural   Li4As3PSe2(S2O3)2
_chemical_formula_sum   'Li4 As3 P1 Se2 S4 O6'
_cell_volume   362.82625721
_cell_formula_units_Z   1
loop_
 _symmetry_equiv_pos_site_id
 _symmetry_equiv_pos_as_xyz
  1  'x, y, z'
loop_
 _atom_site_type_symbol
 _atom_site_label
 _atom_site_symmetry_multiplicity
 _atom_site_fract_x
 _atom_site_fract_y
 _atom_site_fract_z
 _atom_site_occupancy
  Li  Li0  1  0.30102400  0.23421900  0.85069302  1
  Li  Li1  1  0.69897600  0.76578098  0.14930705  1
  Li  Li2  1  0.31630900  0.30116799  0.36420502  1
  Li  Li3  1  0.68369100  0.69883199  0.63579505  1
  As  As4  1  0.82671399  0.26485799  0.60690304  1
  As  As5  1  0.22520201  0.74411198  0.85719602  1
  As  As6  1  0.77479799  0.25588799  0.14280404  1
  P  P7  1  0.17328601  0.73514199  0.39309702  1
  Se  Se8  1  0.05320601  0.38833399  0.37008401  1
  Se  Se9  1  0.94679399  0.61166599  0.62991606  1
  S  S10  1  0.41118601  0.76737498  0.62493303  1
  S  S11  1  0.66040400  0.85779298  0.96595505  1
  S  S12  1  0.45676400  0.65527799  0.22266204  1
  O  O13  1  0.15660100  0.05182700  0.71870801  1
  O  O14  1  0.16326901  0.38879499  0.86800601  1
  O  O15  1  0.33959599  0.14220700  0.03404502  1
  S  S16  1  0.58881399  0.23262500  0.37506703  1
  O  O17  1  0.84339900  0.94817298  0.28129206  1
  O  O18  1  0.83673099  0.61120499  0.13199405  1
  O  O19  1  0.54323599  0.34472199  0.77733803  1
