# generated using pymatgen
data_Li3V2CrO12
_symmetry_space_group_name_H-M   'P 1'
_cell_length_a   4.63751125
_cell_length_b   4.63762093
_cell_length_c   9.26441669
_cell_angle_alpha   89.99988556
_cell_angle_beta   89.99995422
_cell_angle_gamma   89.98014832
_symmetry_Int_Tables_number   1
_chemical_formula_structural   Li3V2CrO12
_chemical_formula_sum   'Li3 V2 Cr1 O12'
_cell_volume   199.24997607
_cell_formula_units_Z   1
loop_
 _symmetry_equiv_pos_site_id
 _symmetry_equiv_pos_as_xyz
  1  'x, y, z'
loop_
 _atom_site_type_symbol
 _atom_site_label
 _atom_site_symmetry_multiplicity
 _atom_site_fract_x
 _atom_site_fract_y
 _atom_site_fract_z
 _atom_site_occupancy
  Li  Li0  1  0.00000000  0.00000000  0.00084900  1
  Li  Li1  1  0.50000100  0.50000002  0.50103502  1
  Li  Li2  1  0.49999900  0.50000502  0.16878601  1
  V  V3  1  0.99999896  0.00000100  0.66880200  1
  Cr  Cr4  1  0.50000000  0.50000002  0.83376703  1
  V  V5  1  0.00000000  0.00000000  0.33357001  1
  O  O6  1  0.19152900  0.19152601  0.16346601  1
  O  O7  1  0.80847200  0.80847203  0.16346701  1
  O  O8  1  0.69224599  0.30775501  0.66384601  1
  O  O9  1  0.30775302  0.69224302  0.66384603  1
  O  O10  1  0.20214900  0.20216401  0.49805902  1
  O  O11  1  0.79785000  0.79783502  0.49805802  1
  O  O12  1  0.70226998  0.29773001  0.99790703  1
  O  O13  1  0.29773102  0.70226902  0.99790704  1
  O  O14  1  0.19407000  0.19406801  0.83687403  1
  O  O15  1  0.80593100  0.80593203  0.83687403  1
  O  O16  1  0.69390299  0.30610401  0.33644300  1
  O  O17  1  0.30609702  0.69389602  0.33644302  1
