# generated using pymatgen
data_K2Te
_symmetry_space_group_name_H-M   'P 1'
_cell_length_a   5.80709124
_cell_length_b   5.80709124
_cell_length_c   8.25102806
_cell_angle_alpha   90.00000000
_cell_angle_beta   90.00000000
_cell_angle_gamma   90.00000000
_symmetry_Int_Tables_number   1
_chemical_formula_structural   K2Te
_chemical_formula_sum   'K4 Te2'
_cell_volume   278.24371474
_cell_formula_units_Z   2
loop_
 _symmetry_equiv_pos_site_id
 _symmetry_equiv_pos_as_xyz
  1  'x, y, z'
loop_
 _atom_site_type_symbol
 _atom_site_label
 _atom_site_symmetry_multiplicity
 _atom_site_fract_x
 _atom_site_fract_y
 _atom_site_fract_z
 _atom_site_occupancy
  K  K0  1  0.49999998  0.49999998  0.00000000  1
  K  K1  1  0.00000000  0.00000000  0.50000000  1
  K  K2  1  0.00000000  0.49999998  0.25794500  1
  K  K3  1  0.49999998  0.00000000  0.25794500  1
  Te  Te4  1  0.00000000  0.49999998  0.74205499  1
  Te  Te5  1  0.49999998  0.00000000  0.74205499  1
