# generated using pymatgen
data_KRbAg2TePb(BrCl2)4
_symmetry_space_group_name_H-M   'P 1'
_cell_length_a   6.93254995
_cell_length_b   6.93254995
_cell_length_c   10.64058495
_cell_angle_alpha   90.00000000
_cell_angle_beta   90.00000000
_cell_angle_gamma   111.73061371
_symmetry_Int_Tables_number   1
_chemical_formula_structural   KRbAg2TePb(BrCl2)4
_chemical_formula_sum   'Rb1 K1 Ag2 Te1 Pb1 Br4 Cl8'
_cell_volume   475.04722818
_cell_formula_units_Z   1
loop_
 _symmetry_equiv_pos_site_id
 _symmetry_equiv_pos_as_xyz
  1  'x, y, z'
loop_
 _atom_site_type_symbol
 _atom_site_label
 _atom_site_symmetry_multiplicity
 _atom_site_fract_x
 _atom_site_fract_y
 _atom_site_fract_z
 _atom_site_occupancy
  Rb  Rb0  1  0.49999999  0.49999999  0.50000000  1
  K  K1  1  0.00000000  0.00000000  0.00000000  1
  Ag  Ag2  1  0.61328599  0.38671399  -0.00000000  1
  Ag  Ag3  1  0.38671399  0.61328598  -0.00000000  1
  Pb  Pb4  1  0.88671398  0.11328600  0.50000000  1
  Te  Te5  1  0.11328600  0.88671398  0.50000000  1
  Br  Br6  1  0.89218598  0.47721399  0.90802500  1
  Br  Br7  1  0.40084899  0.40084899  0.86470900  1
  Cl  Cl8  1  0.52278599  0.10781400  0.09197500  1
  Cl  Cl9  1  0.97721398  0.39218599  0.59197500  1
  Br  Br10  1  0.02278600  0.60781398  0.40802500  1
  Br  Br11  1  0.47721399  0.89218598  0.90802500  1
  Cl  Cl12  1  0.60781398  0.02278600  0.40802500  1
  Cl  Cl13  1  0.10781400  0.52278599  0.09197500  1
  Cl  Cl14  1  0.09915100  0.09915100  0.36470900  1
  Cl  Cl15  1  0.59915099  0.59915098  0.13529100  1
  Cl  Cl16  1  0.90084898  0.90084898  0.63529100  1
  Cl  Cl17  1  0.39218600  0.97721398  0.59197500  1
