# generated using pymatgen
data_KInCuSe2S2Br
_symmetry_space_group_name_H-M   'P 1'
_cell_length_a   6.64646626
_cell_length_b   6.64646626
_cell_length_c   6.64646626
_cell_angle_alpha   109.47122192
_cell_angle_beta   109.47122192
_cell_angle_gamma   109.47122192
_symmetry_Int_Tables_number   1
_chemical_formula_structural   KInCuSe2S2Br
_chemical_formula_sum   'K1 In1 Cu1 Se2 S2 Br1'
_cell_volume   226.02188934
_cell_formula_units_Z   1
loop_
 _symmetry_equiv_pos_site_id
 _symmetry_equiv_pos_as_xyz
  1  'x, y, z'
loop_
 _atom_site_type_symbol
 _atom_site_label
 _atom_site_symmetry_multiplicity
 _atom_site_fract_x
 _atom_site_fract_y
 _atom_site_fract_z
 _atom_site_occupancy
  K  K0  1  0.50000006  1.00000002  0.50000006  1
  In  In1  1  0.50000002  0.50000001  1.00000002  1
  Br  Br2  1  0.00000003  0.50000001  0.50000002  1
  Cu  Cu3  1  0.00000000  0.00000000  0.00000000  1
  S  S4  1  0.67384699  0.00000000  0.00000002  1
  Se  Se5  1  0.32615302  0.32615301  0.32615302  1
  Se  Se6  1  1.00000005  1.00000002  0.67384706  1
  S  S7  1  0.00000004  0.67384701  0.00000004  1
