# generated using pymatgen
data_KNaSrLi4CuH3O5
_symmetry_space_group_name_H-M   'P 1'
_cell_length_a   6.11591196
_cell_length_b   6.11591196
_cell_length_c   6.11591196
_cell_angle_alpha   90.00000000
_cell_angle_beta   90.00000000
_cell_angle_gamma   90.00000000
_symmetry_Int_Tables_number   1
_chemical_formula_structural   KNaSrLi4CuH3O5
_chemical_formula_sum   'K1 Na1 Sr1 Li4 Cu1 H3 O5'
_cell_volume   228.76188958
_cell_formula_units_Z   1
loop_
 _symmetry_equiv_pos_site_id
 _symmetry_equiv_pos_as_xyz
  1  'x, y, z'
loop_
 _atom_site_type_symbol
 _atom_site_label
 _atom_site_symmetry_multiplicity
 _atom_site_fract_x
 _atom_site_fract_y
 _atom_site_fract_z
 _atom_site_occupancy
  Li  Li0  1  0.00000000  0.50000000  0.25000000  1
  Sr  Sr1  1  0.00000000  0.50000000  0.75000000  1
  K  K2  1  0.75000000  0.00000000  0.50000000  1
  Na  Na3  1  0.50000000  0.25000000  0.00000000  1
  Li  Li4  1  0.25000000  0.00000000  0.50000000  1
  Li  Li5  1  0.50000000  0.75000000  0.00000000  1
  Li  Li6  1  0.50000000  0.50000000  0.50000000  1
  Cu  Cu7  1  0.00000000  0.00000000  0.00000000  1
  H  H8  1  0.85197901  0.85197901  0.85197901  1
  H  H9  1  0.64802100  0.35197900  0.64802100  1
  H  H10  1  0.35197900  0.64802100  0.64802100  1
  O  O11  1  0.64802100  0.64802100  0.35197900  1
  O  O12  1  0.35197900  0.35197900  0.35197900  1
  O  O13  1  0.14802100  0.14802100  0.85197901  1
  O  O14  1  0.14802100  0.85197901  0.14802100  1
  O  O15  1  0.85197901  0.14802100  0.14802100  1
