# generated using pymatgen
data_KLiCuN2
_symmetry_space_group_name_H-M   'P 1'
_cell_length_a   4.08826208
_cell_length_b   4.08826113
_cell_length_c   6.66013193
_cell_angle_alpha   90.00000000
_cell_angle_beta   90.00000000
_cell_angle_gamma   120.00000763
_symmetry_Int_Tables_number   1
_chemical_formula_structural   KLiCuN2
_chemical_formula_sum   'K1 Li1 Cu1 N2'
_cell_volume   96.40305278
_cell_formula_units_Z   1
loop_
 _symmetry_equiv_pos_site_id
 _symmetry_equiv_pos_as_xyz
  1  'x, y, z'
loop_
 _atom_site_type_symbol
 _atom_site_label
 _atom_site_symmetry_multiplicity
 _atom_site_fract_x
 _atom_site_fract_y
 _atom_site_fract_z
 _atom_site_occupancy
  Li  Li0  1  0.66666667  0.33333336  0.01677500  1
  K  K1  1  0.00000000  0.00000000  0.62087601  1
  N  N2  1  0.33333336  0.66666672  0.36347200  1
  Cu  Cu3  1  0.33333336  0.66666672  0.75429001  1
  N  N4  1  0.00000000  0.00000000  0.24458700  1
