# generated using pymatgen
data_KSrLa2FeBi2PbO8
_symmetry_space_group_name_H-M   'P 1'
_cell_length_a   6.47597742
_cell_length_b   6.77137947
_cell_length_c   8.00445557
_cell_angle_alpha   90.20406342
_cell_angle_beta   89.97672272
_cell_angle_gamma   89.92567444
_symmetry_Int_Tables_number   1
_chemical_formula_structural   KSrLa2FeBi2PbO8
_chemical_formula_sum   'K1 Sr1 La2 Fe1 Bi2 Pb1 O8'
_cell_volume   351.00323568
_cell_formula_units_Z   1
loop_
 _symmetry_equiv_pos_site_id
 _symmetry_equiv_pos_as_xyz
  1  'x, y, z'
loop_
 _atom_site_type_symbol
 _atom_site_label
 _atom_site_symmetry_multiplicity
 _atom_site_fract_x
 _atom_site_fract_y
 _atom_site_fract_z
 _atom_site_occupancy
  Fe  Fe0  1  0.00283400  0.16602800  0.75098902  1
  K  K1  1  0.50124599  0.82763598  0.25094198  1
  La  La2  1  0.50235199  0.83273998  0.74953099  1
  Sr  Sr3  1  0.00055900  0.16847300  0.24844900  1
  La  La4  1  0.50146000  0.32483599  0.50492999  1
  Bi  Bi5  1  0.00224299  0.67769398  0.99504302  1
  Bi  Bi6  1  0.00710399  0.66462998  0.50240301  1
  Pb  Pb7  1  0.50244400  0.33874799  0.99725100  1
  O  O8  1  0.85680100  0.31590299  0.51561498  1
  O  O9  1  0.36043999  0.69532098  0.99946101  1
  O  O10  1  0.40171799  0.65519398  0.50076199  1
  O  O11  1  0.89744000  0.35383899  0.98468499  1
  O  O12  1  0.39559600  0.16160400  0.26641099  1
  O  O13  1  0.36897500  0.16007200  0.73374700  1
  O  O14  1  0.86560999  0.81530198  0.23343897  1
  O  O15  1  0.87077899  0.84198098  0.76634098  1
