# generated using pymatgen
data_CsRb2Br2Cl5
_symmetry_space_group_name_H-M   'P 1'
_cell_length_a   6.47876120
_cell_length_b   7.19028187
_cell_length_c   8.46288872
_cell_angle_alpha   64.86120605
_cell_angle_beta   90.00000000
_cell_angle_gamma   90.00000000
_symmetry_Int_Tables_number   1
_chemical_formula_structural   CsRb2Br2Cl5
_chemical_formula_sum   'Cs1 Rb2 Br2 Cl5'
_cell_volume   356.89470354
_cell_formula_units_Z   1
loop_
 _symmetry_equiv_pos_site_id
 _symmetry_equiv_pos_as_xyz
  1  'x, y, z'
loop_
 _atom_site_type_symbol
 _atom_site_label
 _atom_site_symmetry_multiplicity
 _atom_site_fract_x
 _atom_site_fract_y
 _atom_site_fract_z
 _atom_site_occupancy
  Rb  Rb0  1  0.74999998  0.79220699  0.41558603  1
  Cl  Cl1  1  0.24999999  0.20779300  0.58441399  1
  Rb  Rb2  1  0.74999998  0.41603700  0.16792602  1
  Cs  Cs3  1  0.24999999  0.58396299  0.83207400  1
  Br  Br4  1  0.24999999  0.73070499  0.20057004  1
  Cl  Cl5  1  0.74999998  0.26929500  0.79942998  1
  Cl  Cl6  1  0.74999998  0.93127499  0.79943002  1
  Br  Br7  1  0.24999999  0.06872500  0.20057000  1
  Cl  Cl8  1  0.00000000  0.00000000  0.00000000  1
  Cl  Cl9  1  0.49999998  0.00000000  -0.00000000  1
