# generated using pymatgen
data_Na2Li3Mn2O9
_symmetry_space_group_name_H-M   'P 1'
_cell_length_a   5.57883310
_cell_length_b   5.69887018
_cell_length_c   7.21747303
_cell_angle_alpha   90.00000000
_cell_angle_beta   90.00000000
_cell_angle_gamma   90.00000000
_symmetry_Int_Tables_number   1
_chemical_formula_structural   Na2Li3Mn2O9
_chemical_formula_sum   'Na2 Li3 Mn2 O9'
_cell_volume   229.46544932
_cell_formula_units_Z   1
loop_
 _symmetry_equiv_pos_site_id
 _symmetry_equiv_pos_as_xyz
  1  'x, y, z'
loop_
 _atom_site_type_symbol
 _atom_site_label
 _atom_site_symmetry_multiplicity
 _atom_site_fract_x
 _atom_site_fract_y
 _atom_site_fract_z
 _atom_site_occupancy
  Li  Li0  1  0.00029600  0.07258400  0.62712000  1
  Li  Li1  1  0.50029599  0.42741599  0.12712000  1
  Na  Na2  1  0.00029600  0.57258398  0.87288000  1
  Li  Li3  1  0.50029599  0.92741597  0.37288000  1
  Na  Na4  1  0.99542898  0.07122000  0.13438600  1
  Mn  Mn5  1  0.49542899  0.42877999  0.63438600  1
  Mn  Mn6  1  0.99542898  0.57121998  0.36561400  1
  O  O7  1  0.49542899  0.92877997  0.86561400  1
  O  O8  1  0.33141899  0.03903100  0.58099300  1
  O  O9  1  0.42534499  0.10441400  0.15806200  1
  O  O10  1  0.92534498  0.39558599  0.65806200  1
  O  O11  1  0.83141898  0.46096899  0.08099300  1
  O  O12  1  0.33141899  0.53903098  0.91900700  1
  O  O13  1  0.42534499  0.60441398  0.34193800  1
  O  O14  1  0.92534498  0.89558597  0.84193800  1
  O  O15  1  0.83141898  0.96096897  0.41900700  1
