# generated using pymatgen
data_LiAg2BiTeS8Cl
_symmetry_space_group_name_H-M   'P 1'
_cell_length_a   7.45027733
_cell_length_b   7.45027733
_cell_length_c   7.45027733
_cell_angle_alpha   88.89402771
_cell_angle_beta   60.55973053
_cell_angle_gamma   119.28685760
_symmetry_Int_Tables_number   1
_chemical_formula_structural   LiAg2BiTeS8Cl
_chemical_formula_sum   'Li1 Ag2 Bi1 Te1 S8 Cl1'
_cell_volume   295.16959957
_cell_formula_units_Z   1
loop_
 _symmetry_equiv_pos_site_id
 _symmetry_equiv_pos_as_xyz
  1  'x, y, z'
loop_
 _atom_site_type_symbol
 _atom_site_label
 _atom_site_symmetry_multiplicity
 _atom_site_fract_x
 _atom_site_fract_y
 _atom_site_fract_z
 _atom_site_occupancy
  Bi  Bi0  1  0.75000000  0.38079300  0.36920698  1
  Li  Li1  1  1.00000000  1.00000000  0.49999996  1
  Ag  Ag2  1  0.50000000  1.00000000  -0.00000003  1
  Te  Te3  1  0.25000000  0.61920700  0.63079298  1
  Ag  Ag4  1  0.50000000  0.50000000  0.99999998  1
  S  S5  1  0.00000000  0.00000000  0.00000000  1
  S  S6  1  0.01527900  0.24518600  0.23953499  1
  S  S7  1  0.48472100  0.24518600  0.77009299  1
  S  S8  1  0.01229900  0.77279200  0.23950698  1
  Cl  Cl9  1  0.48770100  0.24819400  0.23950799  1
  S  S10  1  0.51229900  0.75180600  0.76049197  1
  S  S11  1  0.98770100  0.22720800  0.76049298  1
  S  S12  1  0.51527900  0.75481400  0.22990698  1
  S  S13  1  0.98472100  0.75481400  0.76046497  1
