# generated using pymatgen
data_Li9NbNO3
_symmetry_space_group_name_H-M   'P 1'
_cell_length_a   5.81544876
_cell_length_b   5.81544876
_cell_length_c   5.81544876
_cell_angle_alpha   109.47122192
_cell_angle_beta   109.47122192
_cell_angle_gamma   109.47122192
_symmetry_Int_Tables_number   1
_chemical_formula_structural   Li9NbNO3
_chemical_formula_sum   'Li9 Nb1 N1 O3'
_cell_volume   151.40066727
_cell_formula_units_Z   1
loop_
 _symmetry_equiv_pos_site_id
 _symmetry_equiv_pos_as_xyz
  1  'x, y, z'
loop_
 _atom_site_type_symbol
 _atom_site_label
 _atom_site_symmetry_multiplicity
 _atom_site_fract_x
 _atom_site_fract_y
 _atom_site_fract_z
 _atom_site_occupancy
  Li  Li0  1  0.87500004  0.12500001  0.75000005  1
  Li  Li1  1  0.75000007  0.62500004  0.87500008  1
  Li  Li2  1  0.25000006  0.87500006  0.62500007  1
  Li  Li3  1  0.12500002  0.25000002  0.37500003  1
  Li  Li4  1  0.37500006  0.75000005  0.12500005  1
  Nb  Nb5  1  0.62500005  0.37500003  0.25000004  1
  Li  Li6  1  0.36633404  0.36633402  0.86633405  1
  Li  Li7  1  0.00000003  0.50000003  0.13366603  1
  Li  Li8  1  0.63366609  1.00000007  0.00000007  1
  Li  Li9  1  0.50000006  0.63366604  0.50000006  1
  N  N10  1  0.13366600  0.00000000  0.00000000  1
  O  O11  1  0.50000003  0.13366601  0.50000003  1
  O  O12  1  0.86633409  0.86633406  0.36633408  1
  O  O13  1  1.00000007  0.50000003  0.63366607  1
