# generated using pymatgen
data_SrLaAg4HgSe(S4Cl)2
_symmetry_space_group_name_H-M   'P 1'
_cell_length_a   6.89085388
_cell_length_b   8.61891174
_cell_length_c   8.61891174
_cell_angle_alpha   75.51741028
_cell_angle_beta   89.76877594
_cell_angle_gamma   89.76877594
_symmetry_Int_Tables_number   1
_chemical_formula_structural   SrLaAg4HgSe(S4Cl)2
_chemical_formula_sum   'Sr1 La1 Ag4 Hg1 Se1 S8 Cl2'
_cell_volume   495.61900234
_cell_formula_units_Z   1
loop_
 _symmetry_equiv_pos_site_id
 _symmetry_equiv_pos_as_xyz
  1  'x, y, z'
loop_
 _atom_site_type_symbol
 _atom_site_label
 _atom_site_symmetry_multiplicity
 _atom_site_fract_x
 _atom_site_fract_y
 _atom_site_fract_z
 _atom_site_occupancy
  Sr  Sr0  1  0.46173401  0.25170800  0.99301804  1
  La  La1  1  0.03826600  0.00698200  0.74829201  1
  Ag  Ag2  1  0.53826604  0.74829200  0.00698205  1
  Hg  Hg3  1  0.96173404  0.99301800  0.25170808  1
  Ag  Ag4  1  0.75000001  0.40173100  0.59826905  1
  Ag  Ag5  1  0.25000003  0.59826900  0.40173103  1
  Se  Se6  1  0.91921701  0.41821200  0.17171206  1
  Ag  Ag7  1  0.58078304  0.82828800  0.58178806  1
  S  S8  1  0.08078303  0.58178800  0.82828803  1
  S  S9  1  0.41921700  0.17171200  0.41821203  1
  S  S10  1  0.97531600  0.29127500  0.94053906  1
  S  S11  1  0.52468400  0.05946100  0.70872503  1
  Cl  Cl12  1  0.02468404  0.70872500  0.05946102  1
  S  S13  1  0.47531605  0.94053900  0.29127505  1
  S  S14  1  0.57374602  0.42400900  0.25855404  1
  S  S15  1  0.92625403  0.74144600  0.57599107  1
  S  S16  1  0.42625403  0.57599100  0.74144604  1
  Cl  Cl17  1  0.07374601  0.25855400  0.42400901  1
