# generated using pymatgen
data_Li2V4O11
_symmetry_space_group_name_H-M   'P 1'
_cell_length_a   4.90685511
_cell_length_b   5.23705673
_cell_length_c   8.55636311
_cell_angle_alpha   90.00000000
_cell_angle_beta   90.00000000
_cell_angle_gamma   90.56286621
_symmetry_Int_Tables_number   1
_chemical_formula_structural   Li2V4O11
_chemical_formula_sum   'Li2 V4 O11'
_cell_volume   219.86634763
_cell_formula_units_Z   1
loop_
 _symmetry_equiv_pos_site_id
 _symmetry_equiv_pos_as_xyz
  1  'x, y, z'
loop_
 _atom_site_type_symbol
 _atom_site_label
 _atom_site_symmetry_multiplicity
 _atom_site_fract_x
 _atom_site_fract_y
 _atom_site_fract_z
 _atom_site_occupancy
  Li  Li0  1  0.00000000  0.00000000  0.28084400  1
  V  V1  1  0.00000000  0.00000000  0.89693199  1
  Li  Li2  1  0.49999999  0.00000000  0.59006899  1
  V  V3  1  0.00000003  0.50000000  0.07559600  1
  V  V4  1  0.50000002  0.50000000  0.39719200  1
  V  V5  1  0.74660799  0.14410600  0.73886399  1
  O  O6  1  0.71335500  0.18255200  0.41775199  1
  O  O7  1  0.79735899  0.18239400  0.07978200  1
  O  O8  1  0.28797801  0.31304100  0.56056699  1
  O  O9  1  0.21721802  0.32262400  0.91910799  1
  O  O10  1  0.24175302  0.35730000  0.24552200  1
  O  O11  1  0.75824703  0.64270000  0.24552200  1
  O  O12  1  0.78278203  0.67737600  0.91910799  1
  O  O13  1  0.71202203  0.68695900  0.56056699  1
  O  O14  1  0.20264105  0.81760600  0.07978200  1
  O  O15  1  0.28664505  0.81744800  0.41775199  1
  O  O16  1  0.25339205  0.85589400  0.73886399  1
