# generated using pymatgen
data_NaLi3Cu3(SeS3)2
_symmetry_space_group_name_H-M   'P 1'
_cell_length_a   7.71168804
_cell_length_b   7.71168804
_cell_length_c   7.71168804
_cell_angle_alpha   60.00000000
_cell_angle_beta   60.00000000
_cell_angle_gamma   60.00000000
_symmetry_Int_Tables_number   1
_chemical_formula_structural   NaLi3Cu3(SeS3)2
_chemical_formula_sum   'Na1 Li3 Cu3 Se2 S6'
_cell_volume   324.28985372
_cell_formula_units_Z   1
loop_
 _symmetry_equiv_pos_site_id
 _symmetry_equiv_pos_as_xyz
  1  'x, y, z'
loop_
 _atom_site_type_symbol
 _atom_site_label
 _atom_site_symmetry_multiplicity
 _atom_site_fract_x
 _atom_site_fract_y
 _atom_site_fract_z
 _atom_site_occupancy
  Li  Li0  1  0.50000001  0.00000000  0.50000001  1
  Li  Li1  1  -0.00000000  0.50000001  0.50000001  1
  Li  Li2  1  0.50000001  0.50000001  0.00000000  1
  Na  Na3  1  0.00000000  0.00000000  0.50000001  1
  Cu  Cu4  1  0.50000001  0.00000000  -0.00000000  1
  Cu  Cu5  1  -0.00000000  0.50000001  -0.00000000  1
  Cu  Cu6  1  0.00000000  0.00000000  0.00000000  1
  S  S7  1  0.20095400  0.79904601  0.20095400  1
  S  S8  1  0.75000001  0.75000001  0.75000001  1
  S  S9  1  0.20095400  0.79904601  0.79904601  1
  Se  Se10  1  0.20095400  0.20095400  0.79904601  1
  S  S11  1  0.79904601  0.79904601  0.20095400  1
  S  S12  1  0.79904601  0.20095400  0.20095400  1
  Se  Se13  1  0.25000000  0.25000000  0.25000000  1
  S  S14  1  0.79904601  0.20095400  0.79904601  1
