# generated using pymatgen
data_NaAgSbS2
_symmetry_space_group_name_H-M   'P 1'
_cell_length_a   4.39060402
_cell_length_b   4.39060354
_cell_length_c   7.62054777
_cell_angle_alpha   90.00000000
_cell_angle_beta   90.00000000
_cell_angle_gamma   120.00000763
_symmetry_Int_Tables_number   1
_chemical_formula_structural   NaAgSbS2
_chemical_formula_sum   'Na1 Ag1 Sb1 S2'
_cell_volume   127.22289747
_cell_formula_units_Z   1
loop_
 _symmetry_equiv_pos_site_id
 _symmetry_equiv_pos_as_xyz
  1  'x, y, z'
loop_
 _atom_site_type_symbol
 _atom_site_label
 _atom_site_symmetry_multiplicity
 _atom_site_fract_x
 _atom_site_fract_y
 _atom_site_fract_z
 _atom_site_occupancy
  Na  Na0  1  0.00000000  0.00000000  0.00000000  1
  Ag  Ag1  1  0.33333338  0.66666668  0.62307302  1
  Sb  Sb2  1  0.66666669  0.33333334  0.37692701  1
  S  S3  1  0.33333338  0.66666668  0.27675601  1
  S  S4  1  0.66666669  0.33333334  0.72324402  1
