# generated using pymatgen
data_Li5CuAgS5
_symmetry_space_group_name_H-M   'P 1'
_cell_length_a   6.31419706
_cell_length_b   6.31419706
_cell_length_c   8.38777065
_cell_angle_alpha   95.60671234
_cell_angle_beta   95.60671234
_cell_angle_gamma   97.72866821
_symmetry_Int_Tables_number   1
_chemical_formula_structural   Li5CuAgS5
_chemical_formula_sum   'Li5 Cu1 Ag1 S5'
_cell_volume   327.70006516
_cell_formula_units_Z   1
loop_
 _symmetry_equiv_pos_site_id
 _symmetry_equiv_pos_as_xyz
  1  'x, y, z'
loop_
 _atom_site_type_symbol
 _atom_site_label
 _atom_site_symmetry_multiplicity
 _atom_site_fract_x
 _atom_site_fract_y
 _atom_site_fract_z
 _atom_site_occupancy
  Li  Li0  1  0.59258502  0.85832300  0.65930898  1
  Li  Li1  1  0.14167701  0.40741500  0.84069099  1
  Li  Li2  1  0.85832301  0.59258500  0.15930897  1
  Li  Li3  1  0.40741500  0.14167700  0.34069099  1
  Ag  Ag4  1  0.81156502  0.93334701  0.01700597  1
  Li  Li5  1  0.06665300  0.18843500  0.48299400  1
  Cu  Cu6  1  0.18843500  0.06665300  0.98299400  1
  S  S7  1  0.20396101  0.79603900  0.74999998  1
  S  S8  1  0.79603901  0.20396100  0.24999998  1
  S  S9  1  0.93334702  0.81156500  0.51700597  1
  S  S10  1  0.63504201  0.36495800  0.74999998  1
  S  S11  1  0.36495801  0.63504200  0.24999998  1
