# generated using pymatgen
data_Li5SiO7
_symmetry_space_group_name_H-M   'P 1'
_cell_length_a   5.00767756
_cell_length_b   5.00767899
_cell_length_c   7.24162483
_cell_angle_alpha   91.10359955
_cell_angle_beta   91.10399628
_cell_angle_gamma   87.65059662
_symmetry_Int_Tables_number   1
_chemical_formula_structural   Li5SiO7
_chemical_formula_sum   'Li5 Si1 O7'
_cell_volume   181.37973999
_cell_formula_units_Z   1
loop_
 _symmetry_equiv_pos_site_id
 _symmetry_equiv_pos_as_xyz
  1  'x, y, z'
loop_
 _atom_site_type_symbol
 _atom_site_label
 _atom_site_symmetry_multiplicity
 _atom_site_fract_x
 _atom_site_fract_y
 _atom_site_fract_z
 _atom_site_occupancy
  Li  Li0  1  0.49442200  0.50557702  0.00000100  1
  Li  Li1  1  0.95558497  0.04441200  0.99999802  1
  Li  Li2  1  0.53678200  0.46324401  0.50001600  1
  Li  Li3  1  0.01059002  0.51253202  0.24454398  1
  Li  Li4  1  0.48746402  0.98940703  0.75545297  1
  Si  Si5  1  0.71344499  0.42780201  0.23247700  1
  O  O6  1  0.15125101  0.35296701  0.07780799  1
  O  O7  1  0.56428601  0.86444603  0.56949198  1
  O  O8  1  0.04392203  0.81253602  0.20902697  1
  O  O9  1  0.18746403  0.95607903  0.79097296  1
  O  O10  1  0.13555901  0.43571201  0.43050298  1
  O  O11  1  0.64702401  0.84873903  0.92218598  1
  O  O12  1  0.57220599  0.28654901  0.76752200  1
