# generated using pymatgen
data_CsK2RbSCl7
_symmetry_space_group_name_H-M   'P 1'
_cell_length_a   4.51838923
_cell_length_b   8.95723057
_cell_length_c   10.87950230
_cell_angle_alpha   90.00000000
_cell_angle_beta   90.00000000
_cell_angle_gamma   90.00000000
_symmetry_Int_Tables_number   1
_chemical_formula_structural   CsK2RbSCl7
_chemical_formula_sum   'Cs1 K2 Rb1 S1 Cl7'
_cell_volume   440.31798125
_cell_formula_units_Z   1
loop_
 _symmetry_equiv_pos_site_id
 _symmetry_equiv_pos_as_xyz
  1  'x, y, z'
loop_
 _atom_site_type_symbol
 _atom_site_label
 _atom_site_symmetry_multiplicity
 _atom_site_fract_x
 _atom_site_fract_y
 _atom_site_fract_z
 _atom_site_occupancy
  K  K0  1  0.74999996  0.64913703  0.34586799  1
  K  K1  1  0.24999999  0.35086302  0.65413198  1
  Cs  Cs2  1  0.24999999  0.85086304  0.84586798  1
  Rb  Rb3  1  0.74999996  0.14913701  0.15413200  1
  Cl  Cl4  1  0.24999999  0.49857602  0.17616200  1
  Cl  Cl5  1  0.74999996  0.00142400  0.67616198  1
  Cl  Cl6  1  0.74999996  0.50142402  0.82383798  1
  Cl  Cl7  1  0.24999999  0.99857605  0.32383799  1
  Cl  Cl8  1  0.74999996  0.84312704  0.04950500  1
  Cl  Cl9  1  0.24999999  0.15687301  0.95049497  1
  S  S10  1  0.74999996  0.34312702  0.45049499  1
  Cl  Cl11  1  0.24999999  0.65687303  0.54950499  1
