# generated using pymatgen
data_Li4Cu2AgS7
_symmetry_space_group_name_H-M   'P 1'
_cell_length_a   6.73349714
_cell_length_b   6.73369789
_cell_length_c   6.73587227
_cell_angle_alpha   93.61647797
_cell_angle_beta   93.39700317
_cell_angle_gamma   93.56037140
_symmetry_Int_Tables_number   1
_chemical_formula_structural   Li4Cu2AgS7
_chemical_formula_sum   'Li4 Cu2 Ag1 S7'
_cell_volume   303.60454766
_cell_formula_units_Z   1
loop_
 _symmetry_equiv_pos_site_id
 _symmetry_equiv_pos_as_xyz
  1  'x, y, z'
loop_
 _atom_site_type_symbol
 _atom_site_label
 _atom_site_symmetry_multiplicity
 _atom_site_fract_x
 _atom_site_fract_y
 _atom_site_fract_z
 _atom_site_occupancy
  Li  Li0  1  0.58591198  0.45392801  0.76299899  1
  Li  Li1  1  0.54558999  0.23630000  0.41381298  1
  Li  Li2  1  0.23608498  0.41544301  0.54675701  1
  Li  Li3  1  0.41365897  0.54664001  0.23540400  1
  Cu  Cu4  1  0.45523996  0.76557201  0.58653201  1
  Ag  Ag5  1  0.76480298  0.58695501  0.45263298  1
  S  S6  1  0.26754797  0.62851301  0.87482202  1
  Cu  Cu7  1  0.62933396  0.87455501  0.26377700  1
  S  S8  1  0.87214499  0.26333700  0.63147497  1
  S  S9  1  0.72999199  0.36953601  0.12445897  1
  S  S10  1  0.37010100  0.13026300  0.73203299  1
  S  S11  1  0.12793996  0.73000601  0.37016902  1
  S  S12  1  0.78796597  0.78489001  0.79047899  1
  S  S13  1  0.21368499  0.21406200  0.21464600  1
