# generated using pymatgen
data_Li3Cu4Se3S5
_symmetry_space_group_name_H-M   'P 1'
_cell_length_a   7.29885530
_cell_length_b   7.29885530
_cell_length_c   7.29885530
_cell_angle_alpha   60.00000000
_cell_angle_beta   60.00000000
_cell_angle_gamma   60.00000000
_symmetry_Int_Tables_number   1
_chemical_formula_structural   Li3Cu4Se3S5
_chemical_formula_sum   'Li3 Cu4 Se3 S5'
_cell_volume   274.94717672
_cell_formula_units_Z   1
loop_
 _symmetry_equiv_pos_site_id
 _symmetry_equiv_pos_as_xyz
  1  'x, y, z'
loop_
 _atom_site_type_symbol
 _atom_site_label
 _atom_site_symmetry_multiplicity
 _atom_site_fract_x
 _atom_site_fract_y
 _atom_site_fract_z
 _atom_site_occupancy
  Li  Li0  1  -0.00000000  0.00000000  0.49999999  1
  Li  Li1  1  0.99999998  0.49999999  -0.00000000  1
  Li  Li2  1  0.49999999  0.00000000  0.49999999  1
  Cu  Cu3  1  0.49999999  0.49999999  -0.00000000  1
  Cu  Cu4  1  0.49999999  0.00000000  -0.00000000  1
  Cu  Cu5  1  0.99999998  0.49999999  0.49999999  1
  Cu  Cu6  1  0.00000000  0.00000000  0.00000000  1
  Se  Se7  1  0.25000000  0.25000000  0.25000000  1
  Se  Se8  1  0.24010800  0.75989199  0.24010800  1
  S  S9  1  0.74999999  0.74999999  0.74999999  1
  S  S10  1  0.24010800  0.24010800  0.75989199  1
  S  S11  1  0.75989199  0.24010800  0.75989199  1
  S  S12  1  0.75989199  0.24010800  0.24010800  1
  Se  Se13  1  0.24010800  0.75989199  0.75989199  1
  S  S14  1  0.75989199  0.75989199  0.24010800  1
