# generated using pymatgen
data_NaSrBNO6
_symmetry_space_group_name_H-M   'P 1'
_cell_length_a   4.18818521
_cell_length_b   5.13066483
_cell_length_c   6.42761707
_cell_angle_alpha   90.00000000
_cell_angle_beta   108.31448364
_cell_angle_gamma   90.00000000
_symmetry_Int_Tables_number   1
_chemical_formula_structural   NaSrBNO6
_chemical_formula_sum   'Na1 Sr1 B1 N1 O6'
_cell_volume   131.12155103
_cell_formula_units_Z   1
loop_
 _symmetry_equiv_pos_site_id
 _symmetry_equiv_pos_as_xyz
  1  'x, y, z'
loop_
 _atom_site_type_symbol
 _atom_site_label
 _atom_site_symmetry_multiplicity
 _atom_site_fract_x
 _atom_site_fract_y
 _atom_site_fract_z
 _atom_site_occupancy
  Na  Na0  1  0.38334598  0.75000003  0.22380899  1
  Sr  Sr1  1  0.61665396  0.25000001  0.77619099  1
  B  B2  1  0.00123600  0.75000003  0.74624700  1
  N  N3  1  0.99876394  0.25000001  0.25375298  1
  O  O4  1  0.15700299  0.98273203  0.82879500  1
  O  O5  1  0.84299695  0.48273202  0.17120499  1
  O  O6  1  0.32848698  0.25000001  0.38862700  1
  O  O7  1  0.67151296  0.75000003  0.61137299  1
  O  O8  1  0.84299695  0.01726800  0.17120499  1
  O  O9  1  0.15700299  0.51726802  0.82879500  1
