# generated using pymatgen
data_KNa2Li3AgO5
_symmetry_space_group_name_H-M   'P 1'
_cell_length_a   6.54533005
_cell_length_b   6.95629549
_cell_length_c   6.95629549
_cell_angle_alpha   118.96569824
_cell_angle_beta   90.00000000
_cell_angle_gamma   90.00000000
_symmetry_Int_Tables_number   1
_chemical_formula_structural   KNa2Li3AgO5
_chemical_formula_sum   'K1 Na2 Li3 Ag1 O5'
_cell_volume   277.10915440
_cell_formula_units_Z   1
loop_
 _symmetry_equiv_pos_site_id
 _symmetry_equiv_pos_as_xyz
  1  'x, y, z'
loop_
 _atom_site_type_symbol
 _atom_site_label
 _atom_site_symmetry_multiplicity
 _atom_site_fract_x
 _atom_site_fract_y
 _atom_site_fract_z
 _atom_site_occupancy
  Li  Li0  1  0.50988300  0.30997001  0.99592003  1
  K  K1  1  0.00988300  0.69003003  0.00408003  1
  Na  Na2  1  0.50988300  0.99592004  0.30997004  1
  Na  Na3  1  0.00988300  0.00408000  0.69003002  1
  Li  Li4  1  0.04053200  0.33923401  0.33923402  1
  Li  Li5  1  0.54053200  0.66076603  0.66076604  1
  O  O6  1  0.17637200  0.64266503  0.64266504  1
  Ag  Ag7  1  0.67637200  0.35733501  0.35733502  1
  O  O8  1  0.62316400  0.65160703  0.96353204  1
  O  O9  1  0.62316400  0.96353204  0.65160705  1
  O  O10  1  0.12316400  0.03646800  0.34839301  1
  O  O11  1  0.12316400  0.34839301  0.03646801  1
