# generated using pymatgen
data_Na3WO4
_symmetry_space_group_name_H-M   'P 1'
_cell_length_a   3.44813442
_cell_length_b   5.77441788
_cell_length_c   5.77441788
_cell_angle_alpha   107.48801422
_cell_angle_beta   91.31357574
_cell_angle_gamma   91.31357574
_symmetry_Int_Tables_number   1
_chemical_formula_structural   Na3WO4
_chemical_formula_sum   'Na3 W1 O4'
_cell_volume   109.57770952
_cell_formula_units_Z   1
loop_
 _symmetry_equiv_pos_site_id
 _symmetry_equiv_pos_as_xyz
  1  'x, y, z'
loop_
 _atom_site_type_symbol
 _atom_site_label
 _atom_site_symmetry_multiplicity
 _atom_site_fract_x
 _atom_site_fract_y
 _atom_site_fract_z
 _atom_site_occupancy
  Na  Na0  1  0.50000001  0.00000000  0.50000000  1
  Na  Na1  1  0.50000003  0.50000000  -0.00000001  1
  Na  Na2  1  0.00000000  0.00000000  0.00000000  1
  W  W3  1  0.00000002  0.50000000  0.49999999  1
  O  O4  1  0.00000002  0.77168399  0.22831598  1
  O  O5  1  0.36985302  0.25226300  0.25226300  1
  O  O6  1  0.00000001  0.22831600  0.77168399  1
  O  O7  1  0.63014704  0.74773699  0.74773699  1
