# generated using pymatgen
data_LiZnCu2PS2
_symmetry_space_group_name_H-M   'P 1'
_cell_length_a   5.90024424
_cell_length_b   5.90024424
_cell_length_c   7.09676981
_cell_angle_alpha   114.56336212
_cell_angle_beta   114.56336212
_cell_angle_gamma   90.00000000
_symmetry_Int_Tables_number   1
_chemical_formula_structural   LiZnCu2PS2
_chemical_formula_sum   'Li1 Zn1 Cu2 P1 S2'
_cell_volume   199.85656770
_cell_formula_units_Z   1
loop_
 _symmetry_equiv_pos_site_id
 _symmetry_equiv_pos_as_xyz
  1  'x, y, z'
loop_
 _atom_site_type_symbol
 _atom_site_label
 _atom_site_symmetry_multiplicity
 _atom_site_fract_x
 _atom_site_fract_y
 _atom_site_fract_z
 _atom_site_occupancy
  Zn  Zn0  1  0.74999999  0.25000000  0.50000004  1
  Li  Li1  1  0.25000003  0.74999999  0.50000005  1
  Cu  Cu2  1  0.50000001  0.49999999  0.00000004  1
  Cu  Cu3  1  0.62132899  0.10039800  0.75318403  1
  P  P4  1  0.13185502  0.65278599  0.75318405  1
  S  S5  1  0.89960202  0.86814499  0.24681608  1
  S  S6  1  0.34721401  0.37867099  0.24681603  1
