# generated using pymatgen
data_Li9V2ZnO8
_symmetry_space_group_name_H-M   'P 1'
_cell_length_a   4.73515463
_cell_length_b   6.86261845
_cell_length_c   6.86263895
_cell_angle_alpha   90.71755219
_cell_angle_beta   101.51015472
_cell_angle_gamma   101.50999451
_symmetry_Int_Tables_number   1
_chemical_formula_structural   Li9V2ZnO8
_chemical_formula_sum   'Li9 V2 Zn1 O8'
_cell_volume   213.80768790
_cell_formula_units_Z   1
loop_
 _symmetry_equiv_pos_site_id
 _symmetry_equiv_pos_as_xyz
  1  'x, y, z'
loop_
 _atom_site_type_symbol
 _atom_site_label
 _atom_site_symmetry_multiplicity
 _atom_site_fract_x
 _atom_site_fract_y
 _atom_site_fract_z
 _atom_site_occupancy
  Li  Li0  1  0.74923101  0.96619198  0.53313001  1
  Li  Li1  1  0.00078699  0.71687198  0.28380800  1
  Li  Li2  1  0.50081302  0.21688299  0.78379899  1
  V  V3  1  0.24920600  0.46620499  0.03311801  1
  Li  Li4  1  0.00078700  0.28380599  0.71687298  1
  Li  Li5  1  0.24920701  0.03311400  0.46620499  1
  Zn  Zn6  1  0.74923202  0.53312999  0.96619700  1
  Li  Li7  1  0.50081401  0.78379498  0.21688701  1
  Li  Li8  1  0.25980600  0.75469698  0.75467599  1
  Li  Li9  1  0.49019401  0.49533799  0.49530700  1
  Li  Li10  1  0.99023602  0.99535198  0.99535801  1
  V  V11  1  0.75972802  0.25463899  0.25463702  1
  O  O12  1  0.62493702  0.22930699  0.52067400  1
  O  O13  1  0.87501102  0.98136498  0.26864302  1
  O  O14  1  0.37500901  0.48136599  0.76864399  1
  O  O15  1  0.12501899  0.72931398  0.02067701  1
  O  O16  1  0.12502200  0.02068100  0.72931498  1
  O  O17  1  0.37501100  0.76863698  0.48137000  1
  O  O18  1  0.87501603  0.26863999  0.98137000  1
  O  O19  1  0.62493402  0.52066599  0.22931101  1
