# generated using pymatgen
data_SrZn2BiTeSO12
_symmetry_space_group_name_H-M   'P 1'
_cell_length_a   5.07886410
_cell_length_b   5.87001801
_cell_length_c   9.81369591
_cell_angle_alpha   106.28290558
_cell_angle_beta   103.71897125
_cell_angle_gamma   94.14251709
_symmetry_Int_Tables_number   1
_chemical_formula_structural   SrZn2BiTeSO12
_chemical_formula_sum   'Sr1 Zn2 Bi1 Te1 S1 O12'
_cell_volume   269.79198239
_cell_formula_units_Z   1
loop_
 _symmetry_equiv_pos_site_id
 _symmetry_equiv_pos_as_xyz
  1  'x, y, z'
loop_
 _atom_site_type_symbol
 _atom_site_label
 _atom_site_symmetry_multiplicity
 _atom_site_fract_x
 _atom_site_fract_y
 _atom_site_fract_z
 _atom_site_occupancy
  Sr  Sr0  1  0.39508602  0.14508600  0.29017098  1
  Bi  Bi1  1  0.60491403  0.85491398  0.70982898  1
  Zn  Zn2  1  0.78424404  0.53424399  0.06848700  1
  Zn  Zn3  1  0.21575601  0.46575599  0.93151297  1
  Te  Te4  1  0.93757204  0.68757199  0.37514499  1
  S  S5  1  0.06242801  0.31242799  0.62485498  1
  O  O6  1  0.10246301  0.70917299  0.06173701  1
  O  O7  1  0.45927402  0.35256499  0.06173700  1
  O  O8  1  0.89753704  0.29082699  0.93826295  1
  O  O9  1  0.54072603  0.64743499  0.93826297  1
  O  O10  1  0.76106104  0.79970798  0.23100100  1
  O  O11  1  0.96994004  0.43129299  0.23100099  1
  O  O12  1  0.23893901  0.20029200  0.76899897  1
  O  O13  1  0.03006001  0.56870699  0.76899898  1
  O  O14  1  0.23224102  0.87630598  0.46455100  1
  O  O15  1  0.73231004  0.58824499  0.46455098  1
  O  O16  1  0.76775903  0.12369400  0.53544897  1
  O  O17  1  0.26769002  0.41175499  0.53544898  1
