# generated using pymatgen
data_KNaTlAgS6
_symmetry_space_group_name_H-M   'P 1'
_cell_length_a   4.12697601
_cell_length_b   7.23835325
_cell_length_c   10.34836483
_cell_angle_alpha   90.00000000
_cell_angle_beta   90.00000000
_cell_angle_gamma   106.56345367
_symmetry_Int_Tables_number   1
_chemical_formula_structural   KNaTlAgS6
_chemical_formula_sum   'K1 Na1 Tl1 Ag1 S6'
_cell_volume   296.30409574
_cell_formula_units_Z   1
loop_
 _symmetry_equiv_pos_site_id
 _symmetry_equiv_pos_as_xyz
  1  'x, y, z'
loop_
 _atom_site_type_symbol
 _atom_site_label
 _atom_site_symmetry_multiplicity
 _atom_site_fract_x
 _atom_site_fract_y
 _atom_site_fract_z
 _atom_site_occupancy
  Na  Na0  1  0.00000000  0.00000000  0.50000001  1
  K  K1  1  0.00000000  0.00000000  0.00000000  1
  Tl  Tl2  1  0.25879804  0.51759600  0.25000000  1
  Ag  Ag3  1  0.74120204  0.48240400  0.75000001  1
  S  S4  1  0.37129606  0.74259201  0.55024101  1
  S  S5  1  0.62870402  0.25740800  0.05024100  1
  S  S6  1  0.37129606  0.74259201  0.94975902  1
  S  S7  1  0.62870402  0.25740800  0.44975901  1
  S  S8  1  0.93110207  0.86220401  0.25000000  1
  S  S9  1  0.06889801  0.13779600  0.75000001  1
