# generated using pymatgen
data_KRb2NaF4
_symmetry_space_group_name_H-M   'P 1'
_cell_length_a   3.58305001
_cell_length_b   3.58305049
_cell_length_c   15.03327084
_cell_angle_alpha   90.00000000
_cell_angle_beta   90.00000000
_cell_angle_gamma   119.99999237
_symmetry_Int_Tables_number   1
_chemical_formula_structural   KRb2NaF4
_chemical_formula_sum   'K1 Rb2 Na1 F4'
_cell_volume   167.14367424
_cell_formula_units_Z   1
loop_
 _symmetry_equiv_pos_site_id
 _symmetry_equiv_pos_as_xyz
  1  'x, y, z'
loop_
 _atom_site_type_symbol
 _atom_site_label
 _atom_site_symmetry_multiplicity
 _atom_site_fract_x
 _atom_site_fract_y
 _atom_site_fract_z
 _atom_site_occupancy
  Na  Na0  1  0.00000000  0.00000000  0.00000000  1
  K  K1  1  0.00000000  0.00000000  0.50000001  1
  Rb  Rb2  1  0.00000000  0.00000000  0.75000001  1
  Rb  Rb3  1  0.00000000  0.00000000  0.25000000  1
  F  F4  1  0.66666665  0.33333334  0.85972201  1
  F  F5  1  0.66666665  0.33333334  0.64027801  1
  F  F6  1  0.33333330  0.66666667  0.35972200  1
  F  F7  1  0.33333330  0.66666667  0.14027800  1
