# generated using pymatgen
data_NaAgTeS2Cl
_symmetry_space_group_name_H-M   'P 1'
_cell_length_a   4.06090498
_cell_length_b   4.06090498
_cell_length_c   8.69248676
_cell_angle_alpha   90.00000000
_cell_angle_beta   90.00000000
_cell_angle_gamma   90.00000000
_symmetry_Int_Tables_number   1
_chemical_formula_structural   NaAgTeS2Cl
_chemical_formula_sum   'Na1 Ag1 Te1 S2 Cl1'
_cell_volume   143.34735810
_cell_formula_units_Z   1
loop_
 _symmetry_equiv_pos_site_id
 _symmetry_equiv_pos_as_xyz
  1  'x, y, z'
loop_
 _atom_site_type_symbol
 _atom_site_label
 _atom_site_symmetry_multiplicity
 _atom_site_fract_x
 _atom_site_fract_y
 _atom_site_fract_z
 _atom_site_occupancy
  Na  Na0  1  0.00000000  0.50000000  0.86591102  1
  Te  Te1  1  0.50000000  0.00000000  0.13408900  1
  Ag  Ag2  1  0.50000000  0.00000000  0.66611602  1
  Cl  Cl3  1  0.00000000  0.50000000  0.33388401  1
  S  S4  1  0.00000000  0.00000000  0.00000000  1
  S  S5  1  0.50000000  0.50000000  -0.00000000  1
