# generated using pymatgen
data_Li5MnHO13
_symmetry_space_group_name_H-M   'P 1'
_cell_length_a   5.12114620
_cell_length_b   5.60197353
_cell_length_c   8.96274567
_cell_angle_alpha   91.25588989
_cell_angle_beta   106.60013580
_cell_angle_gamma   90.00000000
_symmetry_Int_Tables_number   1
_chemical_formula_structural   Li5MnHO13
_chemical_formula_sum   'Li5 Mn1 H1 O13'
_cell_volume   246.34689760
_cell_formula_units_Z   1
loop_
 _symmetry_equiv_pos_site_id
 _symmetry_equiv_pos_as_xyz
  1  'x, y, z'
loop_
 _atom_site_type_symbol
 _atom_site_label
 _atom_site_symmetry_multiplicity
 _atom_site_fract_x
 _atom_site_fract_y
 _atom_site_fract_z
 _atom_site_occupancy
  Li  Li0  1  -0.00000000  0.00000000  0.49999998  1
  Li  Li1  1  0.49999997  0.49999998  0.49999997  1
  Li  Li2  1  0.36119898  0.78543497  0.21155998  1
  Li  Li3  1  0.85036095  0.28543499  0.21155996  1
  Li  Li4  1  0.14963899  0.71456497  0.78843997  1
  Mn  Mn5  1  0.63880096  0.21456499  0.78843995  1
  H  H6  1  0.50851497  0.05966300  0.15386398  1
  O  O7  1  0.64534896  0.55966298  0.15386397  1
  O  O8  1  0.06464700  0.00627500  0.27698199  1
  O  O9  1  0.21233499  0.50627498  0.27698198  1
  O  O10  1  0.81560195  0.30416299  0.41388896  1
  O  O11  1  0.59828697  0.80416297  0.41388897  1
  O  O12  1  0.40171298  0.19583699  0.58611097  1
  O  O13  1  0.18439799  0.69583697  0.58611098  1
  O  O14  1  0.78766495  0.49372498  0.72301795  1
  O  O15  1  0.93535295  0.99372496  0.72301794  1
  O  O16  1  0.35465098  0.44033698  0.84613596  1
  O  O17  1  0.49148497  0.94033696  0.84613596  1
  O  O18  1  0.11953699  0.74999997  -0.00000000  1
  O  O19  1  0.88046295  0.24999999  -0.00000003  1
