# generated using pymatgen
data_K2Na2SeSCl4O
_symmetry_space_group_name_H-M   'P 1'
_cell_length_a   4.37446213
_cell_length_b   9.74794197
_cell_length_c   9.74794197
_cell_angle_alpha   62.90117645
_cell_angle_beta   77.03365326
_cell_angle_gamma   77.03365326
_symmetry_Int_Tables_number   1
_chemical_formula_structural   K2Na2SeSCl4O
_chemical_formula_sum   'K2 Na2 Se1 S1 Cl4 O1'
_cell_volume   357.01138036
_cell_formula_units_Z   1
loop_
 _symmetry_equiv_pos_site_id
 _symmetry_equiv_pos_as_xyz
  1  'x, y, z'
loop_
 _atom_site_type_symbol
 _atom_site_label
 _atom_site_symmetry_multiplicity
 _atom_site_fract_x
 _atom_site_fract_y
 _atom_site_fract_z
 _atom_site_occupancy
  Na  Na0  1  0.50000001  0.49223599  0.50776398  1
  K  K1  1  0.74058897  0.03380900  0.48501400  1
  K  K2  1  0.99999996  0.03563800  0.96436200  1
  Na  Na3  1  0.25941203  0.51498499  0.96619096  1
  S  S4  1  0.50000000  0.21329500  0.78670498  1
  Cl  Cl5  1  0.86394701  0.60007499  0.67203098  1
  Se  Se6  1  0.13605302  0.32796900  0.39992498  1
  Cl  Cl7  1  0.62240602  0.66744999  0.08773798  1
  Cl  Cl8  1  0.37759305  0.91226199  0.33255096  1
  O  O9  1  0.80848699  0.26599800  0.11702800  1
  Cl  Cl10  1  0.19151305  0.88297199  0.73400195  1
