# generated using pymatgen
data_Li2H2N3O
_symmetry_space_group_name_H-M   'P 1'
_cell_length_a   4.77525616
_cell_length_b   4.90314007
_cell_length_c   4.81586218
_cell_angle_alpha   119.41289520
_cell_angle_beta   90.00000000
_cell_angle_gamma   119.14089966
_symmetry_Int_Tables_number   1
_chemical_formula_structural   Li2H2N3O
_chemical_formula_sum   'Li2 H2 N3 O1'
_cell_volume   81.44268362
_cell_formula_units_Z   1
loop_
 _symmetry_equiv_pos_site_id
 _symmetry_equiv_pos_as_xyz
  1  'x, y, z'
loop_
 _atom_site_type_symbol
 _atom_site_label
 _atom_site_symmetry_multiplicity
 _atom_site_fract_x
 _atom_site_fract_y
 _atom_site_fract_z
 _atom_site_occupancy
  Li  Li0  1  0.38535401  0.77070801  0.63535402  1
  Li  Li1  1  0.11464600  0.22929200  0.86464598  1
  H  H2  1  0.60598400  0.50000001  0.75000000  1
  H  H3  1  0.89401599  0.50000001  0.25000002  1
  N  N4  1  0.74999998  0.00000000  0.60863798  1
  N  N5  1  0.39091900  0.50000001  0.75000000  1
  O  O6  1  0.24999999  0.00000000  0.89136197  1
  N  N7  1  0.10908101  0.50000001  0.25000002  1
