# generated using pymatgen
data_KSr3Bi2Sb2SeS11
_symmetry_space_group_name_H-M   'P 1'
_cell_length_a   6.18906784
_cell_length_b   7.76013279
_cell_length_c   13.44037056
_cell_angle_alpha   90.00000000
_cell_angle_beta   90.00000000
_cell_angle_gamma   90.00000000
_symmetry_Int_Tables_number   1
_chemical_formula_structural   KSr3Bi2Sb2SeS11
_chemical_formula_sum   'K1 Sr3 Bi2 Sb2 Se1 S11'
_cell_volume   645.51395981
_cell_formula_units_Z   1
loop_
 _symmetry_equiv_pos_site_id
 _symmetry_equiv_pos_as_xyz
  1  'x, y, z'
loop_
 _atom_site_type_symbol
 _atom_site_label
 _atom_site_symmetry_multiplicity
 _atom_site_fract_x
 _atom_site_fract_y
 _atom_site_fract_z
 _atom_site_occupancy
  K  K0  1  0.75177702  0.25000001  0.91649503  1
  Sr  Sr1  1  0.24822301  0.75000002  0.08350500  1
  Sr  Sr2  1  0.74822302  0.75000002  0.41649501  1
  Sr  Sr3  1  0.25177701  0.25000001  0.58350502  1
  Bi  Bi4  1  0.45929501  0.75000002  0.75229702  1
  Bi  Bi5  1  0.04070500  0.25000001  0.25229701  1
  Sb  Sb6  1  0.54070501  0.25000001  0.24770301  1
  Sb  Sb7  1  0.95929502  0.75000002  0.74770302  1
  S  S8  1  0.25003901  0.98912403  0.82742203  1
  Se  Se9  1  0.25287801  0.25000001  0.09103500  1
  S  S10  1  0.24996101  0.48912401  0.32742201  1
  S  S11  1  0.74996102  0.48912401  0.17257801  1
  S  S12  1  0.25003901  0.51087601  0.82742203  1
  S  S13  1  0.24712201  0.75000002  0.59103502  1
  S  S14  1  0.74712202  0.75000002  0.90896503  1
  S  S15  1  0.75003902  0.98912403  0.67257802  1
  S  S16  1  0.24996101  0.01087600  0.32742201  1
  S  S17  1  0.74996102  0.01087600  0.17257801  1
  S  S18  1  0.75287802  0.25000001  0.40896501  1
  S  S19  1  0.75003902  0.51087601  0.67257802  1
