# generated using pymatgen
data_Li3Ag2S6Cl
_symmetry_space_group_name_H-M   'P 1'
_cell_length_a   3.95411301
_cell_length_b   6.58621979
_cell_length_c   7.52681017
_cell_angle_alpha   90.00000000
_cell_angle_beta   90.00000000
_cell_angle_gamma   90.00000000
_symmetry_Int_Tables_number   1
_chemical_formula_structural   Li3Ag2S6Cl
_chemical_formula_sum   'Li3 Ag2 S6 Cl1'
_cell_volume   196.01813800
_cell_formula_units_Z   1
loop_
 _symmetry_equiv_pos_site_id
 _symmetry_equiv_pos_as_xyz
  1  'x, y, z'
loop_
 _atom_site_type_symbol
 _atom_site_label
 _atom_site_symmetry_multiplicity
 _atom_site_fract_x
 _atom_site_fract_y
 _atom_site_fract_z
 _atom_site_occupancy
  Li  Li0  1  0.75000000  0.80966703  0.55435599  1
  Li  Li1  1  0.75000000  0.69033302  0.05435600  1
  Li  Li2  1  0.25000000  0.19033301  0.44564399  1
  Ag  Ag3  1  0.25000000  0.30966701  0.94564398  1
  S  S4  1  0.75000000  0.16868901  0.73779798  1
  Ag  Ag5  1  0.75000000  0.33131101  0.23779799  1
  S  S6  1  0.25000000  0.66868902  0.76220198  1
  S  S7  1  0.25000000  0.83131103  0.26220199  1
  S  S8  1  0.75000000  0.50838402  0.76854798  1
  S  S9  1  0.75000000  0.99161603  0.26854799  1
  S  S10  1  0.25000000  0.00838400  0.73145198  1
  Cl  Cl11  1  0.25000000  0.49161602  0.23145199  1
