# generated using pymatgen
data_ZnCuTePS3
_symmetry_space_group_name_H-M   'P 1'
_cell_length_a   5.29198790
_cell_length_b   5.29198790
_cell_length_c   6.45268106
_cell_angle_alpha   114.20867920
_cell_angle_beta   114.20867920
_cell_angle_gamma   90.00000000
_symmetry_Int_Tables_number   1
_chemical_formula_structural   ZnCuTePS3
_chemical_formula_sum   'Zn1 Cu1 Te1 P1 S3'
_cell_volume   147.21893493
_cell_formula_units_Z   1
loop_
 _symmetry_equiv_pos_site_id
 _symmetry_equiv_pos_as_xyz
  1  'x, y, z'
loop_
 _atom_site_type_symbol
 _atom_site_label
 _atom_site_symmetry_multiplicity
 _atom_site_fract_x
 _atom_site_fract_y
 _atom_site_fract_z
 _atom_site_occupancy
  Zn  Zn0  1  0.50000003  0.50000002  0.00000002  1
  Cu  Cu1  1  0.25000003  0.75000003  0.50000003  1
  Te  Te2  1  0.00000000  0.00000000  0.00000000  1
  P  P3  1  0.11366001  0.12513100  0.74646801  1
  S  S4  1  0.87486903  0.36719201  0.25353203  1
  S  S5  1  0.37866303  0.88634003  0.25353203  1
  S  S6  1  0.63280803  0.62133702  0.74646803  1
