# generated using pymatgen
data_NaLi3ClO3
_symmetry_space_group_name_H-M   'P 1'
_cell_length_a   3.14864612
_cell_length_b   3.14864612
_cell_length_c   8.89078140
_cell_angle_alpha   90.00000000
_cell_angle_beta   90.00000000
_cell_angle_gamma   90.00000000
_symmetry_Int_Tables_number   1
_chemical_formula_structural   NaLi3ClO3
_chemical_formula_sum   'Na1 Li3 Cl1 O3'
_cell_volume   88.14296113
_cell_formula_units_Z   1
loop_
 _symmetry_equiv_pos_site_id
 _symmetry_equiv_pos_as_xyz
  1  'x, y, z'
loop_
 _atom_site_type_symbol
 _atom_site_label
 _atom_site_symmetry_multiplicity
 _atom_site_fract_x
 _atom_site_fract_y
 _atom_site_fract_z
 _atom_site_occupancy
  Li  Li0  1  0.49999998  0.49999998  0.75572197  1
  Li  Li1  1  0.00000000  0.00000000  0.49999998  1
  Li  Li2  1  0.49999998  0.49999998  0.24427799  1
  Na  Na3  1  0.00000000  0.00000000  0.00000000  1
  Cl  Cl4  1  0.00000000  0.00000000  0.24236099  1
  O  O5  1  0.49999998  0.49999998  0.00000000  1
  O  O6  1  0.00000000  0.00000000  0.75763897  1
  O  O7  1  0.49999998  0.49999998  0.49999998  1
