# generated using pymatgen
data_Li3AlAs2P(HO4)2
_symmetry_space_group_name_H-M   'P 1'
_cell_length_a   5.16283941
_cell_length_b   5.56667805
_cell_length_c   7.49609995
_cell_angle_alpha   111.79611969
_cell_angle_beta   109.91285706
_cell_angle_gamma   90.00000000
_symmetry_Int_Tables_number   1
_chemical_formula_structural   Li3AlAs2P(HO4)2
_chemical_formula_sum   'Li3 Al1 As2 P1 H2 O8'
_cell_volume   186.09193377
_cell_formula_units_Z   1
loop_
 _symmetry_equiv_pos_site_id
 _symmetry_equiv_pos_as_xyz
  1  'x, y, z'
loop_
 _atom_site_type_symbol
 _atom_site_label
 _atom_site_symmetry_multiplicity
 _atom_site_fract_x
 _atom_site_fract_y
 _atom_site_fract_z
 _atom_site_occupancy
  Li  Li0  1  0.00000000  0.00000000  0.50000000  1
  Li  Li1  1  0.50000000  0.00000000  -0.00000001  1
  Li  Li2  1  0.49999999  0.50000000  -0.00000001  1
  Al  Al3  1  0.48062798  0.89657799  0.29315599  1
  As  As4  1  0.51937200  0.10342200  0.70684398  1
  As  As5  1  0.88016499  0.62291599  0.74583197  1
  P  P6  1  0.11983499  0.37708400  0.25416799  1
  H  H7  1  0.62749498  0.86810999  0.23621998  1
  H  H8  1  0.37250500  0.13189000  0.76377999  1
  O  O9  1  0.18221999  0.69349399  0.88698799  1
  O  O10  1  0.17895700  0.21651800  0.37688399  1
  O  O11  1  0.17895699  0.66036599  0.37688399  1
  O  O12  1  0.70954799  0.68994899  0.87989798  1
  O  O13  1  0.81777999  0.30650600  0.11301198  1
  O  O14  1  0.82104299  0.78348199  0.62311597  1
  O  O15  1  0.82104299  0.33963400  0.62311598  1
  O  O16  1  0.29045199  0.31005100  0.12010199  1
