# generated using pymatgen
data_Li2SiBCO5
_symmetry_space_group_name_H-M   'P 1'
_cell_length_a   4.96874094
_cell_length_b   5.54032803
_cell_length_c   5.59784555
_cell_angle_alpha   60.33931351
_cell_angle_beta   90.00000000
_cell_angle_gamma   90.00000000
_symmetry_Int_Tables_number   1
_chemical_formula_structural   Li2SiBCO5
_chemical_formula_sum   'Li2 Si1 B1 C1 O5'
_cell_volume   133.90850528
_cell_formula_units_Z   1
loop_
 _symmetry_equiv_pos_site_id
 _symmetry_equiv_pos_as_xyz
  1  'x, y, z'
loop_
 _atom_site_type_symbol
 _atom_site_label
 _atom_site_symmetry_multiplicity
 _atom_site_fract_x
 _atom_site_fract_y
 _atom_site_fract_z
 _atom_site_occupancy
  B  B0  1  0.06886100  0.32936600  0.66603600  1
  Li  Li1  1  0.06886100  0.99540200  0.33396398  1
  Li  Li2  1  0.56886101  0.00459800  0.66603600  1
  Si  Si3  1  0.56886101  0.67063400  0.33396399  1
  O  O4  1  0.50568001  0.77156900  -0.00000001  1
  C  C5  1  0.41442900  0.33963600  0.56260699  1
  O  O6  1  0.41442900  0.90224300  0.43739299  1
  O  O7  1  0.91442901  0.09775700  0.56260700  1
  O  O8  1  0.91442901  0.66036400  0.43739299  1
  O  O9  1  0.00568000  0.22843100  -0.00000000  1
