# generated using pymatgen
data_Na2AgTeS4
_symmetry_space_group_name_H-M   'P 1'
_cell_length_a   5.37013388
_cell_length_b   5.37210417
_cell_length_c   7.03232288
_cell_angle_alpha   112.45501709
_cell_angle_beta   112.44633484
_cell_angle_gamma   90.00000000
_symmetry_Int_Tables_number   1
_chemical_formula_structural   Na2AgTeS4
_chemical_formula_sum   'Na2 Ag1 Te1 S4'
_cell_volume   170.74345541
_cell_formula_units_Z   1
loop_
 _symmetry_equiv_pos_site_id
 _symmetry_equiv_pos_as_xyz
  1  'x, y, z'
loop_
 _atom_site_type_symbol
 _atom_site_label
 _atom_site_symmetry_multiplicity
 _atom_site_fract_x
 _atom_site_fract_y
 _atom_site_fract_z
 _atom_site_occupancy
  Na  Na0  1  0.87484500  0.88468196  0.24968996  1
  Na  Na1  1  0.12515399  0.63499097  0.75030897  1
  Ag  Ag2  1  0.37825000  0.37507998  0.25649998  1
  Te  Te3  1  0.62175001  0.11857999  0.74349998  1
  S  S4  1  0.10222400  0.11103699  0.70444799  1
  S  S5  1  0.64740200  0.65092097  0.79480396  1
  S  S6  1  0.89777601  0.40658898  0.29555197  1
  S  S7  1  0.35259799  0.85611696  0.20519597  1
