# generated using pymatgen
data_Na2AlB(H2O3)2
_symmetry_space_group_name_H-M   'P 1'
_cell_length_a   6.29314566
_cell_length_b   6.29314566
_cell_length_c   6.29314566
_cell_angle_alpha   60.00000000
_cell_angle_beta   60.00000000
_cell_angle_gamma   60.00000000
_symmetry_Int_Tables_number   1
_chemical_formula_structural   Na2AlB(H2O3)2
_chemical_formula_sum   'Na2 Al1 B1 H4 O6'
_cell_volume   176.23345413
_cell_formula_units_Z   1
loop_
 _symmetry_equiv_pos_site_id
 _symmetry_equiv_pos_as_xyz
  1  'x, y, z'
loop_
 _atom_site_type_symbol
 _atom_site_label
 _atom_site_symmetry_multiplicity
 _atom_site_fract_x
 _atom_site_fract_y
 _atom_site_fract_z
 _atom_site_occupancy
  Na  Na0  1  0.75000001  0.75000001  0.75000001  1
  Na  Na1  1  0.25000000  0.25000000  0.25000000  1
  B  B2  1  0.86255801  0.13744200  0.13744200  1
  Al  Al3  1  0.86255801  0.86255801  0.13744200  1
  H  H4  1  0.86255801  0.13744200  0.86255801  1
  H  H5  1  0.13744200  0.13744200  0.86255801  1
  H  H6  1  0.13744200  0.86255801  0.86255801  1
  H  H7  1  0.13744200  0.86255801  0.13744200  1
  O  O8  1  0.72686301  0.72686301  0.27313700  1
  O  O9  1  0.72686301  0.27313700  0.27313700  1
  O  O10  1  0.72686301  0.27313700  0.72686301  1
  O  O11  1  0.27313700  0.27313700  0.72686301  1
  O  O12  1  0.27313700  0.72686301  0.72686301  1
  O  O13  1  0.27313700  0.72686301  0.27313700  1
