# generated using pymatgen
data_Li9AlPO5
_symmetry_space_group_name_H-M   'P 1'
_cell_length_a   5.08327103
_cell_length_b   5.12987709
_cell_length_c   10.20340824
_cell_angle_alpha   104.55921936
_cell_angle_beta   104.42407227
_cell_angle_gamma   90.00000000
_symmetry_Int_Tables_number   1
_chemical_formula_structural   Li9AlPO5
_chemical_formula_sum   'Li9 Al1 P1 O5'
_cell_volume   248.85112179
_cell_formula_units_Z   1
loop_
 _symmetry_equiv_pos_site_id
 _symmetry_equiv_pos_as_xyz
  1  'x, y, z'
loop_
 _atom_site_type_symbol
 _atom_site_label
 _atom_site_symmetry_multiplicity
 _atom_site_fract_x
 _atom_site_fract_y
 _atom_site_fract_z
 _atom_site_occupancy
  Li  Li0  1  0.89966901  0.38865899  0.77731902  1
  Li  Li1  1  0.41216401  0.88662899  0.77325801  1
  Li  Li2  1  0.12234901  0.61134099  0.22268101  1
  Li  Li3  1  0.63890600  0.11337100  0.22674201  1
  Li  Li4  1  0.75745901  0.74743399  0.49486802  1
  Li  Li5  1  0.26259100  0.25256600  0.50513201  1
  Li  Li6  1  0.02170200  0.00000000  1.00000000  1
  O  O7  1  0.87460702  0.85854899  0.71709702  1
  Li  Li8  1  0.15751100  0.14145100  0.28290300  1
  O  O9  1  0.75807801  0.25052400  0.50104802  1
  Li  Li10  1  0.25703001  0.74947599  0.49895201  1
  O  O11  1  0.37474301  0.36536499  0.73072901  1
  Al  Al12  1  0.64401401  0.63463499  0.26927102  1
  O  O13  1  0.89248502  0.78119999  0.00000002  1
  O  O14  1  0.89248501  0.21880000  1.00000002  1
  P  P15  1  0.27720700  0.00000000  0.00000001  1
