# generated using pymatgen
data_Rb3AgF6
_symmetry_space_group_name_H-M   'P 1'
_cell_length_a   5.50581312
_cell_length_b   5.67501783
_cell_length_c   6.89805079
_cell_angle_alpha   65.71037292
_cell_angle_beta   90.00000000
_cell_angle_gamma   90.00000000
_symmetry_Int_Tables_number   1
_chemical_formula_structural   Rb3AgF6
_chemical_formula_sum   'Rb3 Ag1 F6'
_cell_volume   196.45412956
_cell_formula_units_Z   1
loop_
 _symmetry_equiv_pos_site_id
 _symmetry_equiv_pos_as_xyz
  1  'x, y, z'
loop_
 _atom_site_type_symbol
 _atom_site_label
 _atom_site_symmetry_multiplicity
 _atom_site_fract_x
 _atom_site_fract_y
 _atom_site_fract_z
 _atom_site_occupancy
  Rb  Rb0  1  0.74999998  0.07798400  0.84403203  1
  Rb  Rb1  1  0.24999999  0.92201601  0.15596803  1
  Rb  Rb2  1  0.74999998  0.38132601  0.23734802  1
  Ag  Ag3  1  0.24999999  0.61867401  0.76265204  1
  F  F4  1  0.24999999  0.25299500  0.49401002  1
  F  F5  1  0.74999998  0.74700501  0.50599004  1
  F  F6  1  0.49999999  0.77234401  0.00000002  1
  F  F7  1  0.99999998  0.22765600  0.00000001  1
  F  F8  1  0.49999999  0.22765600  0.00000001  1
  F  F9  1  0.99999998  0.77234401  0.00000002  1
