# generated using pymatgen
data_Rb5SrLiO7
_symmetry_space_group_name_H-M   'P 1'
_cell_length_a   6.69642210
_cell_length_b   6.83143950
_cell_length_c   8.41342831
_cell_angle_alpha   66.38266754
_cell_angle_beta   66.54926300
_cell_angle_gamma   60.65166473
_symmetry_Int_Tables_number   1
_chemical_formula_structural   Rb5SrLiO7
_chemical_formula_sum   'Rb5 Sr1 Li1 O7'
_cell_volume   297.43039027
_cell_formula_units_Z   1
loop_
 _symmetry_equiv_pos_site_id
 _symmetry_equiv_pos_as_xyz
  1  'x, y, z'
loop_
 _atom_site_type_symbol
 _atom_site_label
 _atom_site_symmetry_multiplicity
 _atom_site_fract_x
 _atom_site_fract_y
 _atom_site_fract_z
 _atom_site_occupancy
  Sr  Sr0  1  0.81201698  0.81075498  0.99562897  1
  Rb  Rb1  1  0.38159899  0.31075499  0.49562898  1
  Rb  Rb2  1  0.49999999  0.49999999  0.00000001  1
  Rb  Rb3  1  0.00000000  0.00000000  0.49999998  1
  Rb  Rb4  1  0.18798299  0.18924499  0.00437100  1
  Rb  Rb5  1  0.61840098  0.68924498  0.50437099  1
  Li  Li6  1  0.07806897  0.74999998  0.25000003  1
  O  O7  1  0.92193100  0.24999999  0.74999994  1
  O  O8  1  0.19280297  0.98301197  0.74681902  1
  O  O9  1  0.92263399  0.51698799  0.75318095  1
  O  O10  1  0.80719701  0.01698800  0.25318095  1
  O  O11  1  0.07736598  0.48301199  0.24681901  1
  O  O12  1  0.64392200  0.24999999  0.74999995  1
  O  O13  1  0.35607798  0.74999998  0.25000002  1
