# generated using pymatgen
data_Li2MnO5
_symmetry_space_group_name_H-M   'P 1'
_cell_length_a   5.08968735
_cell_length_b   5.08968735
_cell_length_c   5.30938911
_cell_angle_alpha   61.35965729
_cell_angle_beta   61.35965729
_cell_angle_gamma   60.00000763
_symmetry_Int_Tables_number   1
_chemical_formula_structural   Li2MnO5
_chemical_formula_sum   'Li2 Mn1 O5'
_cell_volume   99.20597667
_cell_formula_units_Z   1
loop_
 _symmetry_equiv_pos_site_id
 _symmetry_equiv_pos_as_xyz
  1  'x, y, z'
loop_
 _atom_site_type_symbol
 _atom_site_label
 _atom_site_symmetry_multiplicity
 _atom_site_fract_x
 _atom_site_fract_y
 _atom_site_fract_z
 _atom_site_occupancy
  Li  Li0  1  0.50000002  0.50000001  0.49999999  1
  Li  Li1  1  0.00000000  0.00000000  0.00000000  1
  O  O2  1  0.25000002  0.64102301  0.24999999  1
  Mn  Mn3  1  0.64102303  0.85897702  0.24999997  1
  O  O4  1  0.14102302  0.75000001  0.75000000  1
  O  O5  1  0.35897701  0.14102300  0.75000001  1
  O  O6  1  0.75000002  0.35897701  0.75000000  1
  O  O7  1  0.85897703  0.25000000  0.24999998  1
