# generated using pymatgen
data_K4Bi2Sb2Te3SeS6
_symmetry_space_group_name_H-M   'P 1'
_cell_length_a   7.04352617
_cell_length_b   7.20076799
_cell_length_c   12.89278793
_cell_angle_alpha   82.04404449
_cell_angle_beta   74.14775085
_cell_angle_gamma   60.71976471
_symmetry_Int_Tables_number   1
_chemical_formula_structural   K4Bi2Sb2Te3SeS6
_chemical_formula_sum   'K4 Bi2 Sb2 Te3 Se1 S6'
_cell_volume   548.66198496
_cell_formula_units_Z   1
loop_
 _symmetry_equiv_pos_site_id
 _symmetry_equiv_pos_as_xyz
  1  'x, y, z'
loop_
 _atom_site_type_symbol
 _atom_site_label
 _atom_site_symmetry_multiplicity
 _atom_site_fract_x
 _atom_site_fract_y
 _atom_site_fract_z
 _atom_site_occupancy
  K  K0  1  0.25387798  0.70965103  0.94818699  1
  K  K1  1  0.91171596  0.79034903  0.55181298  1
  K  K2  1  0.74612198  0.29034901  0.05181299  1
  K  K3  1  0.08828399  0.20965101  0.44818700  1
  Bi  Bi4  1  0.86701097  0.75000003  0.24999998  1
  Bi  Bi5  1  0.13298899  0.25000001  0.75000000  1
  Se  Se6  1  0.32210897  0.96850904  0.15254597  1
  Sb  Sb7  1  0.44316398  0.53149102  0.34745399  1
  Sb  Sb8  1  0.67789098  0.03149100  0.84745401  1
  Te  Te9  1  0.55683598  0.46850902  0.65254599  1
  Te  Te10  1  0.92150298  0.10110400  0.25990900  1
  Te  Te11  1  0.28251599  0.39889602  0.24009099  1
  S  S12  1  0.07849698  0.89889604  0.74009098  1
  S  S13  1  0.71748397  0.60110402  0.75990899  1
  S  S14  1  0.54706397  0.75897503  0.43004198  1
  S  S15  1  0.73608097  0.74102503  0.06995798  1
  S  S16  1  0.45293598  0.24102501  0.56995800  1
  S  S17  1  0.26391899  0.25897501  0.93004200  1
