# generated using pymatgen
data_CsRb3Te2I7Cl
_symmetry_space_group_name_H-M   'P 1'
_cell_length_a   7.76952600
_cell_length_b   8.10497665
_cell_length_c   9.74004459
_cell_angle_alpha   90.00000000
_cell_angle_beta   71.59590149
_cell_angle_gamma   90.00000000
_symmetry_Int_Tables_number   1
_chemical_formula_structural   CsRb3Te2I7Cl
_chemical_formula_sum   'Cs1 Rb3 Te2 I7 Cl1'
_cell_volume   581.97773504
_cell_formula_units_Z   1
loop_
 _symmetry_equiv_pos_site_id
 _symmetry_equiv_pos_as_xyz
  1  'x, y, z'
loop_
 _atom_site_type_symbol
 _atom_site_label
 _atom_site_symmetry_multiplicity
 _atom_site_fract_x
 _atom_site_fract_y
 _atom_site_fract_z
 _atom_site_occupancy
  Rb  Rb0  1  0.21871700  0.25000001  0.44874902  1
  Cs  Cs1  1  0.78128300  0.75000003  0.55125103  1
  Rb  Rb2  1  0.26321500  0.25000001  0.93194703  1
  Rb  Rb3  1  0.73678500  0.75000003  0.06805301  1
  Te  Te4  1  0.77932800  0.25000001  0.29855902  1
  Te  Te5  1  0.22067200  0.75000003  0.70144103  1
  I  I6  1  0.60103100  0.25000001  0.57140102  1
  I  I7  1  0.39896900  0.75000003  0.42859902  1
  I  I8  1  0.00551500  0.99917604  0.76309503  1
  I  I9  1  0.99448500  0.00082400  0.23690502  1
  I  I10  1  0.99448500  0.49917602  0.23690502  1
  I  I11  1  0.00551500  0.50082402  0.76309503  1
  I  I12  1  0.58201100  0.25000001  0.12943101  1
  Cl  Cl13  1  0.41798900  0.75000003  0.87056903  1
