# generated using pymatgen
data_K5RbCuTe2IClO
_symmetry_space_group_name_H-M   'P 1'
_cell_length_a   7.15420151
_cell_length_b   7.15420151
_cell_length_c   10.21724892
_cell_angle_alpha   75.68281555
_cell_angle_beta   75.68281555
_cell_angle_gamma   89.06095886
_symmetry_Int_Tables_number   1
_chemical_formula_structural   K5RbCuTe2IClO
_chemical_formula_sum   'Rb1 K5 Cu1 Te2 I1 Cl1 O1'
_cell_volume   490.40774042
_cell_formula_units_Z   1
loop_
 _symmetry_equiv_pos_site_id
 _symmetry_equiv_pos_as_xyz
  1  'x, y, z'
loop_
 _atom_site_type_symbol
 _atom_site_label
 _atom_site_symmetry_multiplicity
 _atom_site_fract_x
 _atom_site_fract_y
 _atom_site_fract_z
 _atom_site_occupancy
  Rb  Rb0  1  0.74219696  0.84819900  0.98037101  1
  K  K1  1  0.65512598  0.34487400  0.24999999  1
  K  K2  1  0.25780299  0.15180100  0.01962899  1
  K  K3  1  0.34487397  0.65512600  0.75000001  1
  K  K4  1  0.84819896  0.74219700  0.48037099  1
  Cu  Cu5  1  0.15180099  0.25780300  0.51962901  1
  K  K6  1  0.28642396  0.71357600  0.24999999  1
  I  I7  1  0.71357599  0.28642400  0.75000001  1
  Te  Te8  1  0.59511099  0.16270600  0.64552601  1
  Cl  Cl9  1  0.16270597  0.59511100  0.14552599  1
  O  O10  1  0.83729398  0.40488900  0.85447401  1
  Te  Te11  1  0.40488896  0.83729400  0.35447399  1
