# generated using pymatgen
data_Li3Mn2V2O9
_symmetry_space_group_name_H-M   'P 1'
_cell_length_a   5.29697990
_cell_length_b   6.70651054
_cell_length_c   6.99527979
_cell_angle_alpha   67.92723846
_cell_angle_beta   70.17087555
_cell_angle_gamma   85.41993713
_symmetry_Int_Tables_number   1
_chemical_formula_structural   Li3Mn2V2O9
_chemical_formula_sum   'Li3 Mn2 V2 O9'
_cell_volume   216.31109278
_cell_formula_units_Z   1
loop_
 _symmetry_equiv_pos_site_id
 _symmetry_equiv_pos_as_xyz
  1  'x, y, z'
loop_
 _atom_site_type_symbol
 _atom_site_label
 _atom_site_symmetry_multiplicity
 _atom_site_fract_x
 _atom_site_fract_y
 _atom_site_fract_z
 _atom_site_occupancy
  Li  Li0  1  0.11060301  0.51347200  0.99838106  1
  Li  Li1  1  0.44026901  0.58500100  0.33738505  1
  Li  Li2  1  0.98486302  0.98680301  0.03478407  1
  Mn  Mn3  1  0.61550402  0.83489301  0.76555608  1
  O  O4  1  0.35002201  0.06967100  0.38082202  1
  Mn  Mn5  1  0.71103901  0.38047300  0.70850705  1
  V  V6  1  0.27778000  0.00140900  0.63491902  1
  V  V7  1  0.63951101  0.13197700  0.84328404  1
  O  O8  1  0.41315601  0.31639900  0.25691503  1
  O  O9  1  0.75576801  0.42531000  0.46124105  1
  O  O10  1  0.95560102  0.44714500  0.74193606  1
  O  O11  1  0.77946602  0.71451401  0.05233705  1
  O  O12  1  0.28058601  0.75028101  0.04129705  1
  O  O13  1  0.46403401  0.51075300  0.78694706  1
  O  O14  1  0.12441201  0.99641701  0.32727907  1
  O  O15  1  0.61308802  0.94590101  0.31631007  1
