# generated using pymatgen
data_Na2LiCu2AgSeS5
_symmetry_space_group_name_H-M   'P 1'
_cell_length_a   6.79963350
_cell_length_b   6.79963446
_cell_length_c   7.09483814
_cell_angle_alpha   90.00000000
_cell_angle_beta   90.00000000
_cell_angle_gamma   120.00000000
_symmetry_Int_Tables_number   1
_chemical_formula_structural   Na2LiCu2AgSeS5
_chemical_formula_sum   'Na2 Li1 Cu2 Ag1 Se1 S5'
_cell_volume   284.08231272
_cell_formula_units_Z   1
loop_
 _symmetry_equiv_pos_site_id
 _symmetry_equiv_pos_as_xyz
  1  'x, y, z'
loop_
 _atom_site_type_symbol
 _atom_site_label
 _atom_site_symmetry_multiplicity
 _atom_site_fract_x
 _atom_site_fract_y
 _atom_site_fract_z
 _atom_site_occupancy
  Na  Na0  1  -0.00000002  0.66920001  0.49999999  1
  Na  Na1  1  0.66920002  0.00000000  0.49999999  1
  Li  Li2  1  0.33080000  0.33080001  0.49999999  1
  Cu  Cu3  1  -0.00000001  0.33657101  -0.00000000  1
  Cu  Cu4  1  0.33657101  0.00000000  0.99999998  1
  Ag  Ag5  1  0.66342899  0.66342901  0.99999998  1
  Se  Se6  1  0.33333332  0.66666668  0.74955298  1
  S  S7  1  0.33333332  0.66666668  0.25044699  1
  S  S8  1  0.66666667  0.33333334  0.25044699  1
  S  S9  1  0.66666667  0.33333334  0.74955298  1
  S  S10  1  0.00000000  0.00000000  0.24908800  1
  S  S11  1  0.00000000  0.00000000  0.75091198  1
