# generated using pymatgen
data_NaSrVPbO9
_symmetry_space_group_name_H-M   'P 1'
_cell_length_a   5.56418514
_cell_length_b   5.56418514
_cell_length_c   7.56020880
_cell_angle_alpha   68.40820312
_cell_angle_beta   68.40820312
_cell_angle_gamma   60.00001144
_symmetry_Int_Tables_number   1
_chemical_formula_structural   NaSrVPbO9
_chemical_formula_sum   'Na1 Sr1 V1 Pb1 O9'
_cell_volume   183.49617068
_cell_formula_units_Z   1
loop_
 _symmetry_equiv_pos_site_id
 _symmetry_equiv_pos_as_xyz
  1  'x, y, z'
loop_
 _atom_site_type_symbol
 _atom_site_label
 _atom_site_symmetry_multiplicity
 _atom_site_fract_x
 _atom_site_fract_y
 _atom_site_fract_z
 _atom_site_occupancy
  Na  Na0  1  0.59666303  0.59666299  0.21001097  1
  V  V1  1  0.40333702  0.40333700  0.78998898  1
  Sr  Sr2  1  0.78663203  0.78663199  0.64010396  1
  Pb  Pb3  1  0.21336801  0.21336800  0.35989599  1
  O  O4  1  0.00000000  0.00000000  0.00000000  1
  O  O5  1  0.72374203  0.72374199  0.28703596  1
  O  O6  1  0.72374201  0.26548000  0.28703598  1
  O  O7  1  0.26548003  0.72374199  0.28703597  1
  O  O8  1  0.73452002  0.27625800  0.71296398  1
  O  O9  1  0.27625801  0.27625800  0.71296399  1
  O  O10  1  0.32789301  0.32789300  0.01632098  1
  O  O11  1  0.67210703  0.67210699  0.98367897  1
  O  O12  1  0.27625803  0.73451999  0.71296397  1
