# generated using pymatgen
data_KSrPbO5
_symmetry_space_group_name_H-M   'P 1'
_cell_length_a   6.43772793
_cell_length_b   6.72101498
_cell_length_c   7.83890009
_cell_angle_alpha   90.00000000
_cell_angle_beta   114.24422455
_cell_angle_gamma   90.00000000
_symmetry_Int_Tables_number   1
_chemical_formula_structural   KSrPbO5
_chemical_formula_sum   'K2 Sr2 Pb2 O10'
_cell_volume   309.26006089
_cell_formula_units_Z   2
loop_
 _symmetry_equiv_pos_site_id
 _symmetry_equiv_pos_as_xyz
  1  'x, y, z'
loop_
 _atom_site_type_symbol
 _atom_site_label
 _atom_site_symmetry_multiplicity
 _atom_site_fract_x
 _atom_site_fract_y
 _atom_site_fract_z
 _atom_site_occupancy
  Sr  Sr0  1  0.42695700  0.25000000  0.85391399  1
  K  K1  1  0.57304299  0.75000000  0.14608598  1
  K  K2  1  0.75047199  0.25000000  0.50094397  1
  Sr  Sr3  1  0.24952800  0.75000000  0.49905600  1
  Pb  Pb4  1  0.11002300  0.25000000  0.22004600  1
  Pb  Pb5  1  0.88997699  0.75000000  0.77995397  1
  O  O6  1  0.76284499  0.75000000  0.52568997  1
  O  O7  1  0.23715500  0.25000000  0.47431000  1
  O  O8  1  0.12298300  0.53258400  0.77538701  1
  O  O9  1  0.34759600  0.46741600  0.22461299  1
  O  O10  1  0.12298300  0.96741600  0.77538701  1
  O  O11  1  0.34759600  0.03258400  0.22461299  1
  O  O12  1  0.87701699  0.03258400  0.22461296  1
  O  O13  1  0.65240399  0.96741600  0.77538698  1
  O  O14  1  0.65240399  0.53258400  0.77538698  1
  O  O15  1  0.87701699  0.46741600  0.22461296  1
