# generated using pymatgen
data_MgTiAlZnSi5NiCO9
_symmetry_space_group_name_H-M   'P 1'
_cell_length_a   3.28942609
_cell_length_b   3.28942561
_cell_length_c   26.33962440
_cell_angle_alpha   90.00000000
_cell_angle_beta   90.00000000
_cell_angle_gamma   120.00000763
_symmetry_Int_Tables_number   1
_chemical_formula_structural   MgTiAlZnSi5NiCO9
_chemical_formula_sum   'Mg1 Ti1 Al1 Zn1 Si5 Ni1 C1 O9'
_cell_volume   246.82001710
_cell_formula_units_Z   1
loop_
 _symmetry_equiv_pos_site_id
 _symmetry_equiv_pos_as_xyz
  1  'x, y, z'
loop_
 _atom_site_type_symbol
 _atom_site_label
 _atom_site_symmetry_multiplicity
 _atom_site_fract_x
 _atom_site_fract_y
 _atom_site_fract_z
 _atom_site_occupancy
  Al  Al0  1  0.66666667  0.33333334  0.72327102  1
  Ti  Ti1  1  0.66666667  0.33333334  0.92323902  1
  Mg  Mg2  1  0.00000000  0.00000000  0.02414600  1
  Zn  Zn3  1  0.00000000  0.00000000  0.22400101  1
  Si  Si4  1  0.00000000  0.00000000  0.42399701  1
  Ni  Ni5  1  0.00000000  0.00000000  0.62453501  1
  Si  Si6  1  0.00000000  0.00000000  0.82468202  1
  Si  Si7  1  0.66666667  0.33333334  0.12399100  1
  Si  Si8  1  0.66666667  0.33333334  0.32399701  1
  Si  Si9  1  0.66666667  0.33333334  0.52399301  1
  C  C10  1  0.00000000  0.00000000  0.10024100  1
  O  O11  1  0.00000000  0.00000000  0.30021701  1
  O  O12  1  0.00000000  0.00000000  0.50022301  1
  O  O13  1  0.00000000  0.00000000  0.70094802  1
  O  O14  1  0.00000000  0.00000000  0.90096302  1
  O  O15  1  0.66666667  0.33333334  0.20020400  1
  O  O16  1  0.66666667  0.33333334  0.40021001  1
  O  O17  1  0.66666667  0.33333334  0.60029301  1
  O  O18  1  0.66666667  0.33333334  0.79953802  1
  O  O19  1  0.66666667  0.33333334  0.99945302  1
