# generated using pymatgen
data_Li2NO2
_symmetry_space_group_name_H-M   'P 1'
_cell_length_a   5.17456388
_cell_length_b   5.28325367
_cell_length_c   7.91884232
_cell_angle_alpha   88.59963989
_cell_angle_beta   87.06488800
_cell_angle_gamma   85.81430054
_symmetry_Int_Tables_number   1
_chemical_formula_structural   Li2NO2
_chemical_formula_sum   'Li8 N4 O8'
_cell_volume   215.58228236
_cell_formula_units_Z   4
loop_
 _symmetry_equiv_pos_site_id
 _symmetry_equiv_pos_as_xyz
  1  'x, y, z'
loop_
 _atom_site_type_symbol
 _atom_site_label
 _atom_site_symmetry_multiplicity
 _atom_site_fract_x
 _atom_site_fract_y
 _atom_site_fract_z
 _atom_site_occupancy
  Li  Li0  1  0.99303002  0.04752200  0.73459501  1
  Li  Li1  1  0.48899902  0.53410302  0.76559602  1
  Li  Li2  1  0.51100102  0.46589702  0.23440401  1
  Li  Li3  1  0.00697002  0.95247804  0.26540502  1
  Li  Li4  1  0.00000001  0.50000002  0.50000002  1
  Li  Li5  1  0.00000001  0.50000002  0.00000001  1
  Li  Li6  1  0.50000001  0.00000000  0.50000001  1
  Li  Li7  1  0.50000001  0.00000000  -0.00000000  1
  N  N8  1  0.82788004  0.82276703  0.91134803  1
  N  N9  1  0.83516904  0.83142803  0.55793002  1
  O  O10  1  0.86033803  0.59129402  0.22418001  1
  N  N11  1  0.69765802  0.34220401  0.59118702  1
  O  O12  1  0.65464402  0.30742101  0.93817002  1
  O  O13  1  0.63950802  0.09759900  0.27748200  1
  O  O14  1  0.36049203  0.90240104  0.72251803  1
  O  O15  1  0.34535603  0.69257903  0.06183001  1
  O  O16  1  0.30234202  0.65779603  0.40881302  1
  N  N17  1  0.13966201  0.40870602  0.77582002  1
  O  O18  1  0.16483101  0.16857201  0.44207001  1
  O  O19  1  0.17212001  0.17723301  0.08865200  1
