# generated using pymatgen
data_Li5ZnO6
_symmetry_space_group_name_H-M   'P 1'
_cell_length_a   5.30397654
_cell_length_b   5.40643835
_cell_length_c   5.69011116
_cell_angle_alpha   81.39463806
_cell_angle_beta   72.23973083
_cell_angle_gamma   60.62488174
_symmetry_Int_Tables_number   1
_chemical_formula_structural   Li5ZnO6
_chemical_formula_sum   'Li5 Zn1 O6'
_cell_volume   135.41198850
_cell_formula_units_Z   1
loop_
 _symmetry_equiv_pos_site_id
 _symmetry_equiv_pos_as_xyz
  1  'x, y, z'
loop_
 _atom_site_type_symbol
 _atom_site_label
 _atom_site_symmetry_multiplicity
 _atom_site_fract_x
 _atom_site_fract_y
 _atom_site_fract_z
 _atom_site_occupancy
  Li  Li0  1  0.15927098  0.68145702  0.50000304  1
  Li  Li1  1  0.84072296  0.31854601  0.50000202  1
  Li  Li2  1  0.49999698  0.00000300  0.50000300  1
  Li  Li3  1  0.00000098  0.99999902  0.99999907  1
  Li  Li4  1  0.66132696  0.67734602  1.00000005  1
  Zn  Zn5  1  0.33867298  0.32265301  0.00000101  1
  O  O6  1  0.69634198  0.00000200  0.79640801  1
  O  O7  1  0.54111397  0.37018401  0.20066602  1
  O  O8  1  0.91129896  0.62981302  0.20066003  1
  O  O9  1  0.45889497  0.62981202  0.79933304  1
  O  O10  1  0.08870699  0.37018101  0.79933303  1
  O  O11  1  0.30365099  0.00000500  0.20359400  1
