# generated using pymatgen
data_NaLiLu2Cu2Se5S3
_symmetry_space_group_name_H-M   'P 1'
_cell_length_a   8.08975124
_cell_length_b   8.08975124
_cell_length_c   8.08975124
_cell_angle_alpha   60.00000000
_cell_angle_beta   60.00000000
_cell_angle_gamma   60.00000000
_symmetry_Int_Tables_number   1
_chemical_formula_structural   NaLiLu2Cu2Se5S3
_chemical_formula_sum   'Na1 Li1 Lu2 Cu2 Se5 S3'
_cell_volume   374.36091881
_cell_formula_units_Z   1
loop_
 _symmetry_equiv_pos_site_id
 _symmetry_equiv_pos_as_xyz
  1  'x, y, z'
loop_
 _atom_site_type_symbol
 _atom_site_label
 _atom_site_symmetry_multiplicity
 _atom_site_fract_x
 _atom_site_fract_y
 _atom_site_fract_z
 _atom_site_occupancy
  Li  Li0  1  0.37500000  0.37500000  0.87500001  1
  Na  Na1  1  0.37500000  0.37500000  0.37500000  1
  Lu  Lu2  1  0.37500000  0.87500001  0.37500000  1
  Lu  Lu3  1  0.87500001  0.37500000  0.37500000  1
  Cu  Cu4  1  0.75000001  0.75000001  0.75000001  1
  Cu  Cu5  1  0.00000000  0.00000000  0.00000000  1
  S  S6  1  0.62084800  0.62084900  0.13745400  1
  Se  Se7  1  0.62084800  0.62084900  0.62084900  1
  Se  Se8  1  0.62084800  0.13745400  0.62084900  1
  Se  Se9  1  0.13745300  0.62084900  0.62084900  1
  S  S10  1  0.12915200  0.12915100  0.61254600  1
  Se  Se11  1  0.12915200  0.12915100  0.12915100  1
  Se  Se12  1  0.12915200  0.61254600  0.12915100  1
  S  S13  1  0.61254700  0.12915100  0.12915100  1
