# generated using pymatgen
data_KNaAg2Se2S3Cl
_symmetry_space_group_name_H-M   'P 1'
_cell_length_a   6.24474812
_cell_length_b   7.65949297
_cell_length_c   8.76131725
_cell_angle_alpha   90.00000000
_cell_angle_beta   107.32542419
_cell_angle_gamma   90.00000000
_symmetry_Int_Tables_number   1
_chemical_formula_structural   KNaAg2Se2S3Cl
_chemical_formula_sum   'K1 Na1 Ag2 Se2 S3 Cl1'
_cell_volume   400.05422708
_cell_formula_units_Z   1
loop_
 _symmetry_equiv_pos_site_id
 _symmetry_equiv_pos_as_xyz
  1  'x, y, z'
loop_
 _atom_site_type_symbol
 _atom_site_label
 _atom_site_symmetry_multiplicity
 _atom_site_fract_x
 _atom_site_fract_y
 _atom_site_fract_z
 _atom_site_occupancy
  K  K0  1  0.67245499  0.75000000  0.29930099  1
  Na  Na1  1  0.32754499  0.25000000  0.70069897  1
  Ag  Ag2  1  0.92824199  0.75000000  0.87418397  1
  Ag  Ag3  1  0.07175800  0.25000000  0.12581600  1
  Se  Se4  1  0.33526799  0.75000000  0.88403696  1
  Se  Se5  1  0.66473199  0.25000000  0.11596300  1
  S  S6  1  0.18471300  0.49555700  0.32454499  1
  S  S7  1  0.81528699  0.99555700  0.67545498  1
  Cl  Cl8  1  0.18471300  0.00444300  0.32454499  1
  S  S9  1  0.81528699  0.50444300  0.67545498  1
