# generated using pymatgen
data_LiVO3
_symmetry_space_group_name_H-M   'P 1'
_cell_length_a   6.39907694
_cell_length_b   6.39916801
_cell_length_c   6.39910984
_cell_angle_alpha   109.57666779
_cell_angle_beta   109.36718750
_cell_angle_gamma   109.46987152
_symmetry_Int_Tables_number   1
_chemical_formula_structural   LiVO3
_chemical_formula_sum   'Li4 V4 O12'
_cell_volume   201.71448349
_cell_formula_units_Z   4
loop_
 _symmetry_equiv_pos_site_id
 _symmetry_equiv_pos_as_xyz
  1  'x, y, z'
loop_
 _atom_site_type_symbol
 _atom_site_label
 _atom_site_symmetry_multiplicity
 _atom_site_fract_x
 _atom_site_fract_y
 _atom_site_fract_z
 _atom_site_occupancy
  Li  Li0  1  0.00000500  0.00000300  0.99999898  1
  Li  Li1  1  0.99999592  0.49999698  0.99999290  1
  Li  Li2  1  0.50000498  0.00000400  0.00000897  1
  Li  Li3  1  0.49999294  0.50000298  0.49999693  1
  V  V4  1  0.00000492  0.99999395  0.50000393  1
  V  V5  1  0.49999894  0.49999598  -0.00000006  1
  V  V6  1  0.50000098  0.00000200  0.49999897  1
  V  V7  1  0.00000096  0.50000198  0.49999996  1
  O  O8  1  0.13892893  0.83239796  0.30651193  1
  O  O9  1  0.52588791  0.83241996  0.69349291  1
  O  O10  1  0.47411497  0.16758999  0.30651796  1
  O  O11  1  0.86107095  0.16759599  0.69348093  1
  O  O12  1  0.16666797  0.30577099  0.47244596  1
  O  O13  1  0.16666794  0.69423897  0.86090493  1
  O  O14  1  0.83333694  0.30576299  0.13909694  1
  O  O15  1  0.83331991  0.69421997  0.52755290  1
  O  O16  1  0.69287890  0.86088696  0.16801291  1
  O  O17  1  0.30711395  0.47513798  0.16799895  1
  O  O18  1  0.69287093  0.52486397  0.83198592  1
  O  O19  1  0.30713498  0.13911299  0.83199696  1
