# generated using pymatgen
data_K2H2ClO5
_symmetry_space_group_name_H-M   'P 1'
_cell_length_a   5.21069813
_cell_length_b   5.72366905
_cell_length_c   6.25279808
_cell_angle_alpha   90.00000000
_cell_angle_beta   90.00000000
_cell_angle_gamma   90.00000000
_symmetry_Int_Tables_number   1
_chemical_formula_structural   K2H2ClO5
_chemical_formula_sum   'K2 H2 Cl1 O5'
_cell_volume   186.48539841
_cell_formula_units_Z   1
loop_
 _symmetry_equiv_pos_site_id
 _symmetry_equiv_pos_as_xyz
  1  'x, y, z'
loop_
 _atom_site_type_symbol
 _atom_site_label
 _atom_site_symmetry_multiplicity
 _atom_site_fract_x
 _atom_site_fract_y
 _atom_site_fract_z
 _atom_site_occupancy
  K  K0  1  0.59596999  0.50000000  0.00000000  1
  K  K1  1  0.40402999  0.00000000  0.49999999  1
  H  H2  1  0.00367400  0.00000000  0.00000000  1
  H  H3  1  0.99632598  0.50000000  0.49999999  1
  Cl  Cl4  1  0.11807700  0.50000000  0.67600999  1
  O  O5  1  0.88192298  0.00000000  0.82398999  1
  O  O6  1  0.75196498  0.50000000  0.49999999  1
  O  O7  1  0.24803499  0.00000000  -0.00000000  1
  O  O8  1  0.11807700  0.50000000  0.32399000  1
  O  O9  1  0.88192298  0.00000000  0.17601000  1
