# generated using pymatgen
data_SrAg2BiSb3SeS7Br
_symmetry_space_group_name_H-M   'P 1'
_cell_length_a   4.80486298
_cell_length_b   10.21266174
_cell_length_c   11.06423664
_cell_angle_alpha   90.00000000
_cell_angle_beta   90.00000000
_cell_angle_gamma   90.00000000
_symmetry_Int_Tables_number   1
_chemical_formula_structural   SrAg2BiSb3SeS7Br
_chemical_formula_sum   'Sr1 Ag2 Bi1 Sb3 Se1 S7 Br1'
_cell_volume   542.92696352
_cell_formula_units_Z   1
loop_
 _symmetry_equiv_pos_site_id
 _symmetry_equiv_pos_as_xyz
  1  'x, y, z'
loop_
 _atom_site_type_symbol
 _atom_site_label
 _atom_site_symmetry_multiplicity
 _atom_site_fract_x
 _atom_site_fract_y
 _atom_site_fract_z
 _atom_site_occupancy
  Bi  Bi0  1  0.00000000  0.28055901  0.07732900  1
  Sr  Sr1  1  0.00000000  0.28055901  0.42267101  1
  Ag  Ag2  1  0.00000000  0.71944102  0.92267103  1
  Ag  Ag3  1  0.00000000  0.71944102  0.57732902  1
  Sb  Sb4  1  0.50000000  0.25961101  0.75000002  1
  Sb  Sb5  1  0.50000000  0.74038902  0.25000001  1
  Se  Se6  1  0.50000000  0.00000000  0.50000002  1
  Sb  Sb7  1  0.50000000  0.00000000  -0.00000000  1
  S  S8  1  0.50000000  0.24973301  0.98003803  1
  S  S9  1  0.50000000  0.75026702  0.01996200  1
  S  S10  1  0.50000000  0.24973301  0.51996202  1
  S  S11  1  0.50000000  0.75026702  0.48003802  1
  S  S12  1  0.00000000  0.52517201  0.75000002  1
  S  S13  1  0.00000000  0.47482801  0.25000001  1
  S  S14  1  0.00000000  0.07516300  0.25000001  1
  Br  Br15  1  0.00000000  0.92483702  0.75000002  1
