# generated using pymatgen
data_Li7VO4
_symmetry_space_group_name_H-M   'P 1'
_cell_length_a   5.76851177
_cell_length_b   6.55206871
_cell_length_c   6.07321215
_cell_angle_alpha   117.61044312
_cell_angle_beta   90.00000000
_cell_angle_gamma   116.11698914
_symmetry_Int_Tables_number   1
_chemical_formula_structural   Li7VO4
_chemical_formula_sum   'Li7 V1 O4'
_cell_volume   176.52693717
_cell_formula_units_Z   1
loop_
 _symmetry_equiv_pos_site_id
 _symmetry_equiv_pos_as_xyz
  1  'x, y, z'
loop_
 _atom_site_type_symbol
 _atom_site_label
 _atom_site_symmetry_multiplicity
 _atom_site_fract_x
 _atom_site_fract_y
 _atom_site_fract_z
 _atom_site_occupancy
  Li  Li0  1  0.75000008  1.00000002  0.49999995  1
  Li  Li1  1  0.25000001  0.00000000  0.49999999  1
  Li  Li2  1  1.00000006  0.50000001  0.49999997  1
  Li  Li3  1  0.50000004  0.50000001  0.99999996  1
  Li  Li4  1  0.50000004  0.50000001  0.49999997  1
  Li  Li5  1  0.50000002  0.00000000  -0.00000000  1
  V  V6  1  0.00000000  0.00000000  0.00000000  1
  Li  Li7  1  1.00000006  0.50000001  0.99999996  1
  O  O8  1  0.09623401  0.19246800  0.41438998  1
  O  O9  1  0.59623503  0.19246900  0.77807797  1
  O  O10  1  0.90376607  0.80753201  0.58560996  1
  O  O11  1  0.40376505  0.80753101  0.22192197  1
