# generated using pymatgen
data_Na2AgSbS4
_symmetry_space_group_name_H-M   'P 1'
_cell_length_a   4.23040199
_cell_length_b   7.32662153
_cell_length_c   7.32662153
_cell_angle_alpha   109.45509338
_cell_angle_beta   90.00000000
_cell_angle_gamma   90.00000000
_symmetry_Int_Tables_number   1
_chemical_formula_structural   Na2AgSbS4
_chemical_formula_sum   'Na2 Ag1 Sb1 S4'
_cell_volume   214.11943695
_cell_formula_units_Z   1
loop_
 _symmetry_equiv_pos_site_id
 _symmetry_equiv_pos_as_xyz
  1  'x, y, z'
loop_
 _atom_site_type_symbol
 _atom_site_label
 _atom_site_symmetry_multiplicity
 _atom_site_fract_x
 _atom_site_fract_y
 _atom_site_fract_z
 _atom_site_occupancy
  Na  Na0  1  0.50000000  0.50000002  0.00000003  1
  Na  Na1  1  0.50000000  0.00000000  0.50000001  1
  Ag  Ag2  1  -0.00000000  0.50000002  0.50000004  1
  Sb  Sb3  1  0.00000000  0.00000000  0.00000000  1
  S  S4  1  -0.00000000  0.75463702  0.24536305  1
  S  S5  1  -0.00000000  0.24536301  0.75463702  1
  S  S6  1  0.50000000  0.75915302  0.75915305  1
  S  S7  1  0.50000000  0.24084701  0.24084702  1
