# generated using pymatgen
data_NaAg3SeS9
_symmetry_space_group_name_H-M   'P 1'
_cell_length_a   3.91280794
_cell_length_b   9.36588669
_cell_length_c   9.86234283
_cell_angle_alpha   102.77017212
_cell_angle_beta   101.44172668
_cell_angle_gamma   90.00000000
_symmetry_Int_Tables_number   1
_chemical_formula_structural   NaAg3SeS9
_chemical_formula_sum   'Na1 Ag3 Se1 S9'
_cell_volume   345.11584433
_cell_formula_units_Z   1
loop_
 _symmetry_equiv_pos_site_id
 _symmetry_equiv_pos_as_xyz
  1  'x, y, z'
loop_
 _atom_site_type_symbol
 _atom_site_label
 _atom_site_symmetry_multiplicity
 _atom_site_fract_x
 _atom_site_fract_y
 _atom_site_fract_z
 _atom_site_occupancy
  Na  Na0  1  0.47904604  0.51631600  0.95809200  1
  Ag  Ag1  1  0.00032500  0.00051500  0.00065000  1
  Ag  Ag2  1  0.28631604  0.66247100  0.57263201  1
  Ag  Ag3  1  0.71246204  0.33791200  0.42492402  1
  S  S4  1  0.64480407  0.90808399  0.28960804  1
  S  S5  1  0.35505901  0.09188300  0.71011799  1
  S  S6  1  0.06889804  0.78362199  0.13779603  1
  S  S7  1  0.93092804  0.21616700  0.86185601  1
  S  S8  1  0.41443806  0.87572299  0.82887602  1
  S  S9  1  0.58554102  0.12349800  0.17108201  1
  Se  Se10  1  0.76219707  0.84698599  0.52439404  1
  S  S11  1  0.23790001  0.15306700  0.47580000  1
  S  S12  1  0.83511005  0.52436200  0.67022002  1
  S  S13  1  0.16598403  0.47587300  0.33196801  1
