# generated using pymatgen
data_Li9HN10
_symmetry_space_group_name_H-M   'P 1'
_cell_length_a   5.48893213
_cell_length_b   5.81385422
_cell_length_c   7.74084997
_cell_angle_alpha   90.00000000
_cell_angle_beta   89.72499847
_cell_angle_gamma   90.00000000
_symmetry_Int_Tables_number   1
_chemical_formula_structural   Li9HN10
_chemical_formula_sum   'Li9 H1 N10'
_cell_volume   247.02200735
_cell_formula_units_Z   1
loop_
 _symmetry_equiv_pos_site_id
 _symmetry_equiv_pos_as_xyz
  1  'x, y, z'
loop_
 _atom_site_type_symbol
 _atom_site_label
 _atom_site_symmetry_multiplicity
 _atom_site_fract_x
 _atom_site_fract_y
 _atom_site_fract_z
 _atom_site_occupancy
  Li  Li0  1  0.48458499  0.56496998  0.25020998  1
  Li  Li1  1  0.01541500  0.06497000  0.24979001  1
  Li  Li2  1  0.51541499  0.43502998  0.74979000  1
  Li  Li3  1  0.98458498  0.93502997  0.75020998  1
  Li  Li4  1  0.00000000  0.49999998  -0.00000000  1
  Li  Li5  1  0.49999999  0.99999996  0.49999999  1
  Li  Li6  1  0.00000000  0.49999998  0.50000001  1
  Li  Li7  1  0.49999999  0.99999996  1.00000000  1
  Li  Li8  1  0.78875198  0.18569899  0.94869699  1
  N  N9  1  0.71124798  0.68569897  0.55130298  1
  N  N10  1  0.20444000  0.80361497  0.45274200  1
  N  N11  1  0.29555999  0.30361499  0.04725799  1
  N  N12  1  0.21124799  0.81430097  0.05130299  1
  N  N13  1  0.28875199  0.31430099  0.44869700  1
  N  N14  1  0.79555998  0.19638499  0.54725798  1
  N  N15  1  0.70443998  0.69638497  0.95274199  1
  N  N16  1  0.59372699  0.97388696  0.25411098  1
  N  N17  1  0.90627298  0.47388698  0.24588897  1
  H  H18  1  0.40627299  0.02611300  0.74588900  1
  N  N19  1  0.09372700  0.52611298  0.75411101  1
