# generated using pymatgen
data_Sr5AgBi2(SeS5)2
_symmetry_space_group_name_H-M   'P 1'
_cell_length_a   4.46979380
_cell_length_b   10.13981342
_cell_length_c   11.55934525
_cell_angle_alpha   90.00000000
_cell_angle_beta   90.00000000
_cell_angle_gamma   90.00000000
_symmetry_Int_Tables_number   1
_chemical_formula_structural   Sr5AgBi2(SeS5)2
_chemical_formula_sum   'Sr5 Ag1 Bi2 Se2 S10'
_cell_volume   523.90276122
_cell_formula_units_Z   1
loop_
 _symmetry_equiv_pos_site_id
 _symmetry_equiv_pos_as_xyz
  1  'x, y, z'
loop_
 _atom_site_type_symbol
 _atom_site_label
 _atom_site_symmetry_multiplicity
 _atom_site_fract_x
 _atom_site_fract_y
 _atom_site_fract_z
 _atom_site_occupancy
  Sr  Sr0  1  0.75000003  0.25779999  0.67814799  1
  Sr  Sr1  1  0.25000001  0.74219997  0.32185199  1
  Sr  Sr2  1  0.75000003  0.75779997  0.82185198  1
  Sr  Sr3  1  0.25000001  0.24219999  0.17814800  1
  Sr  Sr4  1  0.25000001  0.57457498  0.04417200  1
  Ag  Ag5  1  0.75000003  0.42542498  0.95582798  1
  Se  Se6  1  0.75000003  0.92542496  0.54417199  1
  Bi  Bi7  1  0.25000001  0.07457500  0.45582799  1
  Bi  Bi8  1  0.75000003  0.44362298  0.38716999  1
  S  S9  1  0.25000001  0.55637698  0.61282999  1
  S  S10  1  0.75000003  0.94362296  0.11283000  1
  S  S11  1  0.25000001  0.05637700  0.88716998  1
  S  S12  1  0.25000001  0.33955999  0.46229099  1
  S  S13  1  0.75000003  0.66043997  0.53770899  1
  S  S14  1  0.75000003  0.16043999  0.96229098  1
  Se  Se15  1  0.25000001  0.83955996  0.03770900  1
  S  S16  1  0.75000003  0.02317400  0.33025399  1
  S  S17  1  0.25000001  0.97682596  0.66974599  1
  S  S18  1  0.75000003  0.52317398  0.16974600  1
  S  S19  1  0.25000001  0.47682598  0.83025398  1
