# generated using pymatgen
data_NaLi3La2(FeO6)2
_symmetry_space_group_name_H-M   'P 1'
_cell_length_a   5.53344488
_cell_length_b   5.71291685
_cell_length_c   7.93263102
_cell_angle_alpha   90.00000000
_cell_angle_beta   90.04019928
_cell_angle_gamma   90.00000000
_symmetry_Int_Tables_number   1
_chemical_formula_structural   NaLi3La2(FeO6)2
_chemical_formula_sum   'Na1 Li3 La2 Fe2 O12'
_cell_volume   250.76714657
_cell_formula_units_Z   1
loop_
 _symmetry_equiv_pos_site_id
 _symmetry_equiv_pos_as_xyz
  1  'x, y, z'
loop_
 _atom_site_type_symbol
 _atom_site_label
 _atom_site_symmetry_multiplicity
 _atom_site_fract_x
 _atom_site_fract_y
 _atom_site_fract_z
 _atom_site_occupancy
  Na  Na0  1  0.98677202  0.44834701  0.24957696  1
  La  La1  1  0.01322800  0.55165301  0.75042299  1
  La  La2  1  0.51322801  0.94834702  0.25042298  1
  Li  Li3  1  0.48677201  0.05165300  0.74957698  1
  Li  Li4  1  0.00000000  0.00000000  0.00000000  1
  Li  Li5  1  0.50000001  0.50000001  0.49999998  1
  Fe  Fe6  1  0.00000000  0.00000000  0.50000000  1
  Fe  Fe7  1  0.50000001  0.50000001  -0.00000002  1
  O  O8  1  0.09797200  0.03291800  0.25719699  1
  O  O9  1  0.90202802  0.96708203  0.74280296  1
  O  O10  1  0.40202801  0.53291801  0.24280298  1
  O  O11  1  0.59797201  0.46708201  0.75719697  1
  O  O12  1  0.79150802  0.69676202  0.05025497  1
  O  O13  1  0.20849200  0.30323801  0.94974499  1
  O  O14  1  0.70849202  0.19676201  0.44974497  1
  O  O15  1  0.29150801  0.80323802  0.55025499  1
  O  O16  1  0.69372601  0.21039901  0.05346498  1
  O  O17  1  0.30627401  0.78960102  0.94653498  1
  O  O18  1  0.80627402  0.71039902  0.44653497  1
  O  O19  1  0.19372600  0.28960101  0.55346499  1
