# generated using pymatgen
data_K3SrCu3S12I
_symmetry_space_group_name_H-M   'P 1'
_cell_length_a   6.88251591
_cell_length_b   7.67421007
_cell_length_c   10.41438866
_cell_angle_alpha   90.00000000
_cell_angle_beta   88.92146301
_cell_angle_gamma   90.00000000
_symmetry_Int_Tables_number   1
_chemical_formula_structural   K3SrCu3S12I
_chemical_formula_sum   'K3 Sr1 Cu3 S12 I1'
_cell_volume   549.96840300
_cell_formula_units_Z   1
loop_
 _symmetry_equiv_pos_site_id
 _symmetry_equiv_pos_as_xyz
  1  'x, y, z'
loop_
 _atom_site_type_symbol
 _atom_site_label
 _atom_site_symmetry_multiplicity
 _atom_site_fract_x
 _atom_site_fract_y
 _atom_site_fract_z
 _atom_site_occupancy
  K  K0  1  0.71676701  0.50310500  0.49778602  1
  K  K1  1  0.28323300  0.00310500  0.50221402  1
  Sr  Sr2  1  0.18486200  0.78072999  0.00758200  1
  K  K3  1  0.81513801  0.28073000  0.99241803  1
  Cu  Cu4  1  0.69024001  0.77284299  0.20561500  1
  Cu  Cu5  1  0.30976000  0.27284300  0.79438503  1
  S  S6  1  0.81303901  0.99103299  0.32611701  1
  Cu  Cu7  1  0.18696100  0.49103300  0.67388303  1
  S  S8  1  0.89956901  0.56221299  0.23337800  1
  S  S9  1  0.10043100  0.06221300  0.76662203  1
  S  S10  1  0.90990701  0.58729699  0.75377402  1
  S  S11  1  0.09009300  0.08729700  0.24622601  1
  S  S12  1  0.43379401  0.69507999  0.33013001  1
  S  S13  1  0.56620601  0.19508000  0.66987002  1
  I  I14  1  0.65364101  0.86514699  0.01163800  1
  S  S15  1  0.34635900  0.36514700  0.98836204  1
  S  S16  1  0.87142701  0.86610399  0.51705302  1
  S  S17  1  0.12857300  0.36610400  0.48294702  1
  S  S18  1  0.57632801  0.19024700  0.33227501  1
  S  S19  1  0.42367201  0.69024699  0.66772502  1
