# generated using pymatgen
data_Li4SiPO8
_symmetry_space_group_name_H-M   'P 1'
_cell_length_a   5.56455183
_cell_length_b   5.60369635
_cell_length_c   6.13408756
_cell_angle_alpha   76.98513031
_cell_angle_beta   63.02663803
_cell_angle_gamma   60.23080826
_symmetry_Int_Tables_number   1
_chemical_formula_structural   Li4SiPO8
_chemical_formula_sum   'Li4 Si1 P1 O8'
_cell_volume   147.97027267
_cell_formula_units_Z   1
loop_
 _symmetry_equiv_pos_site_id
 _symmetry_equiv_pos_as_xyz
  1  'x, y, z'
loop_
 _atom_site_type_symbol
 _atom_site_label
 _atom_site_symmetry_multiplicity
 _atom_site_fract_x
 _atom_site_fract_y
 _atom_site_fract_z
 _atom_site_occupancy
  Li  Li0  1  0.81675303  0.36649401  -0.00000002  1
  Li  Li1  1  0.56675301  0.86649403  0.49999994  1
  Li  Li2  1  0.21899600  0.56200802  0.49999996  1
  Li  Li3  1  0.46899602  0.06200800  0.99999996  1
  P  P4  1  0.11705400  0.76589202  -0.00000003  1
  Si  Si5  1  0.86705403  0.26589201  0.49999996  1
  O  O6  1  0.19550201  0.06870900  0.33442398  1
  O  O7  1  0.73578903  0.06870900  0.66557597  1
  O  O8  1  0.15136500  0.56870902  0.83442395  1
  O  O9  1  0.27992601  0.56870902  0.16557597  1
  O  O10  1  0.67275402  0.45898801  0.35287096  1
  O  O11  1  0.26538700  0.95898803  0.85287093  1
  O  O12  1  0.77562502  0.95898803  0.14712895  1
  O  O13  1  0.86825803  0.45898801  0.64712895  1
