# generated using pymatgen
data_NaSrLaYAg2(SeS3)2
_symmetry_space_group_name_H-M   'P 1'
_cell_length_a   7.70827532
_cell_length_b   7.70827532
_cell_length_c   7.70827532
_cell_angle_alpha   106.58328247
_cell_angle_beta   110.93420410
_cell_angle_gamma   110.93420410
_symmetry_Int_Tables_number   1
_chemical_formula_structural   NaSrLaYAg2(SeS3)2
_chemical_formula_sum   'Na1 Sr1 La1 Y1 Ag2 Se2 S6'
_cell_volume   351.90606662
_cell_formula_units_Z   1
loop_
 _symmetry_equiv_pos_site_id
 _symmetry_equiv_pos_as_xyz
  1  'x, y, z'
loop_
 _atom_site_type_symbol
 _atom_site_label
 _atom_site_symmetry_multiplicity
 _atom_site_fract_x
 _atom_site_fract_y
 _atom_site_fract_z
 _atom_site_occupancy
  Sr  Sr0  1  0.62057800  0.37500001  0.49557801  1
  Na  Na1  1  0.12057800  0.24557801  0.62500002  1
  La  La2  1  0.37942199  0.87500002  0.75442205  1
  Y  Y3  1  0.87942200  0.50442201  0.12500000  1
  Ag  Ag4  1  0.00000000  0.00000000  0.00000000  1
  Ag  Ag5  1  0.49999999  0.75000002  0.25000003  1
  Se  Se6  1  0.73367700  0.10994900  0.24023399  1
  Se  Se7  1  0.13028499  0.62372802  0.89005104  1
  S  S8  1  0.26632299  0.50655701  0.37627202  1
  S  S9  1  0.86971499  0.75976602  0.49344302  1
  S  S10  1  0.63028499  0.64005102  0.87372803  1
  S  S11  1  0.76632300  0.12627200  0.75655700  1
  S  S12  1  0.36971500  0.24344301  0.00976600  1
  S  S13  1  0.23367699  0.99023403  0.35994905  1
