# generated using pymatgen
data_Rb2SbI7
_symmetry_space_group_name_H-M   'P 1'
_cell_length_a   7.08341122
_cell_length_b   7.08485317
_cell_length_c   13.90035915
_cell_angle_alpha   94.92691803
_cell_angle_beta   94.96444702
_cell_angle_gamma   119.19563293
_symmetry_Int_Tables_number   1
_chemical_formula_structural   Rb2SbI7
_chemical_formula_sum   'Rb4 Sb2 I14'
_cell_volume   600.06484728
_cell_formula_units_Z   2
loop_
 _symmetry_equiv_pos_site_id
 _symmetry_equiv_pos_as_xyz
  1  'x, y, z'
loop_
 _atom_site_type_symbol
 _atom_site_label
 _atom_site_symmetry_multiplicity
 _atom_site_fract_x
 _atom_site_fract_y
 _atom_site_fract_z
 _atom_site_occupancy
  Rb  Rb0  1  0.00000000  0.00000000  0.00000000  1
  Rb  Rb1  1  0.66971096  0.33458499  0.99995402  1
  Rb  Rb2  1  0.33028896  0.66541499  0.00004602  1
  Rb  Rb3  1  0.08219796  0.74848199  0.24629302  1
  I  I4  1  0.16789296  0.83452999  0.50371103  1
  Sb  Sb5  1  0.83210697  0.16547000  0.49628902  1
  I  I6  1  0.91780196  0.25151800  0.75370702  1
  Sb  Sb7  1  0.49999996  0.49999999  0.50000002  1
  I  I8  1  0.12686899  0.12473100  0.37399301  1
  I  I9  1  0.29281498  0.29057300  0.87506302  1
  I  I10  1  0.79317896  0.46192699  0.37372503  1
  I  I11  1  0.95683994  0.62566999  0.87385503  1
  I  I12  1  0.45623095  0.78938399  0.37405703  1
  I  I13  1  0.62382494  0.95704098  0.87457604  1
  I  I14  1  0.37617499  0.04295900  0.12542401  1
  I  I15  1  0.54376897  0.21061600  0.62594302  1
  I  I16  1  0.04315998  0.37432999  0.12614501  1
  I  I17  1  0.20682097  0.53807299  0.62627502  1
  I  I18  1  0.70718495  0.70942699  0.12493703  1
  I  I19  1  0.87313093  0.87526898  0.62600704  1
