# generated using pymatgen
data_SrPr3(AgS3)4
_symmetry_space_group_name_H-M   'P 1'
_cell_length_a   6.95325041
_cell_length_b   6.95325041
_cell_length_c   12.71351051
_cell_angle_alpha   100.63583374
_cell_angle_beta   100.63583374
_cell_angle_gamma   108.96975708
_symmetry_Int_Tables_number   1
_chemical_formula_structural   SrPr3(AgS3)4
_chemical_formula_sum   'Sr1 Pr3 Ag4 S12'
_cell_volume   551.16784953
_cell_formula_units_Z   1
loop_
 _symmetry_equiv_pos_site_id
 _symmetry_equiv_pos_as_xyz
  1  'x, y, z'
loop_
 _atom_site_type_symbol
 _atom_site_label
 _atom_site_symmetry_multiplicity
 _atom_site_fract_x
 _atom_site_fract_y
 _atom_site_fract_z
 _atom_site_occupancy
  Sr  Sr0  1  0.33387207  0.83387202  0.66774403  1
  Pr  Pr1  1  0.16612805  0.66612801  0.33225602  1
  Pr  Pr2  1  0.91612807  0.91612802  0.83225604  1
  Ag  Ag3  1  0.08387201  0.08387200  0.16774400  1
  Pr  Pr4  1  0.99718803  0.49718801  0.99437603  1
  Ag  Ag5  1  0.50281199  0.00281200  0.00562401  1
  Ag  Ag6  1  0.25281202  0.25281200  0.50562401  1
  Ag  Ag7  1  0.74718805  0.74718801  0.49437603  1
  S  S8  1  0.00513404  0.50513401  0.50000002  1
  S  S9  1  0.49486608  0.99486602  0.50000004  1
  S  S10  1  0.24486602  0.24486600  1.00000001  1
  S  S11  1  0.75513405  0.75513401  1.00000004  1
  S  S12  1  0.66357201  0.16032700  0.83732502  1
  S  S13  1  0.83967302  0.33642801  0.16267502  1
  S  S14  1  0.32300207  0.82624702  0.16267503  1
  S  S15  1  0.17375305  0.67699801  0.83732502  1
  S  S16  1  0.58642804  0.58967301  0.66267503  1
  S  S17  1  0.41032703  0.41357201  0.33732502  1
  S  S18  1  0.92699807  0.92375302  0.33732504  1
  S  S19  1  0.07624701  0.07300200  0.66267501  1
