# generated using pymatgen
data_Li7NF8
_symmetry_space_group_name_H-M   'P 1'
_cell_length_a   5.83178806
_cell_length_b   5.83178806
_cell_length_c   5.83178806
_cell_angle_alpha   90.00000000
_cell_angle_beta   90.00000000
_cell_angle_gamma   90.00000000
_symmetry_Int_Tables_number   1
_chemical_formula_structural   Li7NF8
_chemical_formula_sum   'Li7 N1 F8'
_cell_volume   198.33766581
_cell_formula_units_Z   1
loop_
 _symmetry_equiv_pos_site_id
 _symmetry_equiv_pos_as_xyz
  1  'x, y, z'
loop_
 _atom_site_type_symbol
 _atom_site_label
 _atom_site_symmetry_multiplicity
 _atom_site_fract_x
 _atom_site_fract_y
 _atom_site_fract_z
 _atom_site_occupancy
  Li  Li0  1  0.49999999  0.49999999  0.49999999  1
  Li  Li1  1  0.00000000  0.00000000  0.00000000  1
  Li  Li2  1  0.25180200  0.00000000  0.49999999  1
  Li  Li3  1  0.74819799  0.00000000  0.49999999  1
  F  F4  1  0.49999999  0.25180200  -0.00000000  1
  Li  Li5  1  0.49999999  0.74819799  -0.00000000  1
  Li  Li6  1  0.00000000  0.49999999  0.25180200  1
  Li  Li7  1  0.00000000  0.49999999  0.74819799  1
  F  F8  1  0.24187700  0.24187700  0.24187700  1
  F  F9  1  0.75812299  0.75812299  0.75812299  1
  F  F10  1  0.75812299  0.75812299  0.24187700  1
  F  F11  1  0.75812299  0.24187700  0.75812299  1
  F  F12  1  0.24187700  0.24187700  0.75812299  1
  F  F13  1  0.24187700  0.75812299  0.24187700  1
  N  N14  1  0.24187700  0.75812299  0.75812299  1
  F  F15  1  0.75812299  0.24187700  0.24187700  1
