# generated using pymatgen
data_Li8NO7
_symmetry_space_group_name_H-M   'P 1'
_cell_length_a   5.33561087
_cell_length_b   5.57139397
_cell_length_c   7.04508114
_cell_angle_alpha   90.00000000
_cell_angle_beta   89.81681824
_cell_angle_gamma   90.00000000
_symmetry_Int_Tables_number   1
_chemical_formula_structural   Li8NO7
_chemical_formula_sum   'Li8 N1 O7'
_cell_volume   209.42657854
_cell_formula_units_Z   1
loop_
 _symmetry_equiv_pos_site_id
 _symmetry_equiv_pos_as_xyz
  1  'x, y, z'
loop_
 _atom_site_type_symbol
 _atom_site_label
 _atom_site_symmetry_multiplicity
 _atom_site_fract_x
 _atom_site_fract_y
 _atom_site_fract_z
 _atom_site_occupancy
  Li  Li0  1  0.48838501  0.33285100  0.24955300  1
  Li  Li1  1  0.99170702  0.18301500  0.49457499  1
  Li  Li2  1  0.98838502  0.66714900  0.74955299  1
  Li  Li3  1  0.49170701  0.81698500  0.99457498  1
  Li  Li4  1  0.00120600  0.18593000  0.00035300  1
  Li  Li5  1  0.50120601  0.81407000  0.50035299  1
  Li  Li6  1  0.50508901  0.31259300  0.74762399  1
  Li  Li7  1  0.00508900  0.68740700  0.24762400  1
  O  O8  1  0.86178102  0.78970100  0.43986499  1
  O  O9  1  0.36178101  0.21029900  0.93986498  1
  O  O10  1  0.92545202  0.84510001  0.05691600  1
  O  O11  1  0.42545201  0.15490000  0.55691599  1
  O  O12  1  0.81113602  0.28735200  0.77762499  1
  O  O13  1  0.43117401  0.59932100  0.71703899  1
  N  N14  1  0.93117402  0.40067900  0.21703900  1
  O  O15  1  0.31113601  0.71264800  0.27762500  1
