# generated using pymatgen
data_Li6MnFeO12
_symmetry_space_group_name_H-M   'P 1'
_cell_length_a   5.23728228
_cell_length_b   5.74594307
_cell_length_c   7.48923588
_cell_angle_alpha   89.35597229
_cell_angle_beta   89.99110413
_cell_angle_gamma   89.90009308
_symmetry_Int_Tables_number   1
_chemical_formula_structural   Li6MnFeO12
_chemical_formula_sum   'Li6 Mn1 Fe1 O12'
_cell_volume   225.35993521
_cell_formula_units_Z   1
loop_
 _symmetry_equiv_pos_site_id
 _symmetry_equiv_pos_as_xyz
  1  'x, y, z'
loop_
 _atom_site_type_symbol
 _atom_site_label
 _atom_site_symmetry_multiplicity
 _atom_site_fract_x
 _atom_site_fract_y
 _atom_site_fract_z
 _atom_site_occupancy
  Li  Li0  1  0.97841547  0.91657678  0.25334773  1
  Li  Li1  1  0.52224100  0.41635956  0.25335180  1
  Li  Li2  1  0.47775887  0.58364063  0.74664809  1
  Li  Li3  1  0.02158453  0.08342319  0.74665233  1
  Li  Li4  1  0.49999993  0.00000001  0.49999996  1
  Li  Li5  1  0.00000007  0.50000004  0.49999995  1
  Fe  Fe6  1  0.49999999  0.00000000  0.99999997  1
  Mn  Mn7  1  0.00000003  0.50000000  0.99999993  1
  O  O8  1  0.19327951  0.81416254  0.94740560  1
  O  O9  1  0.69369725  0.68542599  0.05242481  1
  O  O10  1  0.70105635  0.67988746  0.44543833  1
  O  O11  1  0.39144446  0.03126053  0.25280911  1
  O  O12  1  0.20133175  0.82043690  0.55441810  1
  O  O13  1  0.89111767  0.46853254  0.74660692  1
  O  O14  1  0.79866831  0.17956315  0.44558184  1
  O  O15  1  0.60855552  0.96873944  0.74719078  1
  O  O16  1  0.29894362  0.32011256  0.55456154  1
  O  O17  1  0.30630307  0.31457402  0.94757516  1
  O  O18  1  0.10888253  0.53146745  0.25339301  1
  O  O19  1  0.80672069  0.18583735  0.05259435  1
