# generated using pymatgen
data_NaSrCu2O11
_symmetry_space_group_name_H-M   'P 1'
_cell_length_a   5.59570456
_cell_length_b   5.59570456
_cell_length_c   7.70486355
_cell_angle_alpha   99.72542572
_cell_angle_beta   105.74227905
_cell_angle_gamma   113.19277954
_symmetry_Int_Tables_number   1
_chemical_formula_structural   NaSrCu2O11
_chemical_formula_sum   'Na1 Sr1 Cu2 O11'
_cell_volume   202.80491745
_cell_formula_units_Z   1
loop_
 _symmetry_equiv_pos_site_id
 _symmetry_equiv_pos_as_xyz
  1  'x, y, z'
loop_
 _atom_site_type_symbol
 _atom_site_label
 _atom_site_symmetry_multiplicity
 _atom_site_fract_x
 _atom_site_fract_y
 _atom_site_fract_z
 _atom_site_occupancy
  Na  Na0  1  0.50000000  0.00000000  -0.00000002  1
  Sr  Sr1  1  -0.00000001  0.50000001  0.00000001  1
  Cu  Cu2  1  1.00000000  0.50000001  0.49999996  1
  Cu  Cu3  1  0.78894300  0.91760202  0.70654497  1
  O  O4  1  0.21105700  0.08239800  0.29345499  1
  O  O5  1  0.00927699  0.82145002  0.83072700  1
  O  O6  1  0.99072301  0.17855000  0.16927296  1
  O  O7  1  0.69385000  0.78329602  0.47714598  1
  O  O8  1  0.30615000  0.21670400  0.52285398  1
  O  O9  1  0.94701001  0.27089601  0.75990896  1
  O  O10  1  0.48901299  0.81289902  0.75990898  1
  O  O11  1  0.05298999  0.72910402  0.24009100  1
  O  O12  1  0.51098700  0.18710100  0.24009098  1
  O  O13  1  0.62897100  0.32192401  0.95089497  1
  O  O14  1  0.37102900  0.67807601  0.04910500  1
