# generated using pymatgen
data_Cs2RbInBrCl5
_symmetry_space_group_name_H-M   'P 1'
_cell_length_a   8.22062016
_cell_length_b   8.22062016
_cell_length_c   8.22062016
_cell_angle_alpha   60.00000000
_cell_angle_beta   60.00000000
_cell_angle_gamma   60.00000000
_symmetry_Int_Tables_number   1
_chemical_formula_structural   Cs2RbInBrCl5
_chemical_formula_sum   'Cs2 Rb1 In1 Br1 Cl5'
_cell_volume   392.82466310
_cell_formula_units_Z   1
loop_
 _symmetry_equiv_pos_site_id
 _symmetry_equiv_pos_as_xyz
  1  'x, y, z'
loop_
 _atom_site_type_symbol
 _atom_site_label
 _atom_site_symmetry_multiplicity
 _atom_site_fract_x
 _atom_site_fract_y
 _atom_site_fract_z
 _atom_site_occupancy
  Rb  Rb0  1  0.24999999  0.24999999  0.24999999  1
  Cs  Cs1  1  0.74999997  0.74999997  0.74999997  1
  Cs  Cs2  1  0.00000000  0.00000000  0.00000000  1
  In  In3  1  0.49999998  0.49999998  0.49999998  1
  Br  Br4  1  0.22931099  0.77068897  0.22931099  1
  Cl  Cl5  1  0.22931099  0.22931099  0.77068897  1
  Cl  Cl6  1  0.77068897  0.22931099  0.77068897  1
  Cl  Cl7  1  0.22931099  0.77068897  0.77068897  1
  Cl  Cl8  1  0.77068897  0.22931099  0.22931099  1
  Cl  Cl9  1  0.77068897  0.77068897  0.22931099  1
