# generated using pymatgen
data_K2AgSbSeSCl6
_symmetry_space_group_name_H-M   'P 1'
_cell_length_a   6.00833607
_cell_length_b   7.57321596
_cell_length_c   7.57321548
_cell_angle_alpha   120.00000000
_cell_angle_beta   90.00000000
_cell_angle_gamma   90.00000000
_symmetry_Int_Tables_number   1
_chemical_formula_structural   K2AgSbSeSCl6
_chemical_formula_sum   'K2 Ag1 Sb1 Se1 S1 Cl6'
_cell_volume   298.43207854
_cell_formula_units_Z   1
loop_
 _symmetry_equiv_pos_site_id
 _symmetry_equiv_pos_as_xyz
  1  'x, y, z'
loop_
 _atom_site_type_symbol
 _atom_site_label
 _atom_site_symmetry_multiplicity
 _atom_site_fract_x
 _atom_site_fract_y
 _atom_site_fract_z
 _atom_site_occupancy
  K  K0  1  0.65187199  0.66666666  0.33333332  1
  K  K1  1  0.34812800  0.33333333  0.66666667  1
  Sb  Sb2  1  0.00000000  0.00000000  0.00000000  1
  Ag  Ag3  1  -0.00000000  0.49999999  0.49999999  1
  Se  Se4  1  -0.00000000  0.99999999  0.49999998  1
  S  S5  1  -0.00000000  0.49999999  -0.00000002  1
  Cl  Cl6  1  0.20704100  0.83017299  0.66034598  1
  Cl  Cl7  1  0.20704100  0.83017299  0.16982697  1
  Cl  Cl8  1  0.20704100  0.33965400  0.16982699  1
  Cl  Cl9  1  0.79295899  0.66034599  0.83017299  1
  Cl  Cl10  1  0.79295899  0.16982700  0.83017301  1
  Cl  Cl11  1  0.79295899  0.16982700  0.33965400  1
