# generated using pymatgen
data_CsKPWO4
_symmetry_space_group_name_H-M   'P 1'
_cell_length_a   5.55936956
_cell_length_b   5.55936956
_cell_length_c   5.90350962
_cell_angle_alpha   101.68908691
_cell_angle_beta   101.68908691
_cell_angle_gamma   103.98225403
_symmetry_Int_Tables_number   1
_chemical_formula_structural   CsKPWO4
_chemical_formula_sum   'Cs1 K1 P1 W1 O4'
_cell_volume   167.19399156
_cell_formula_units_Z   1
loop_
 _symmetry_equiv_pos_site_id
 _symmetry_equiv_pos_as_xyz
  1  'x, y, z'
loop_
 _atom_site_type_symbol
 _atom_site_label
 _atom_site_symmetry_multiplicity
 _atom_site_fract_x
 _atom_site_fract_y
 _atom_site_fract_z
 _atom_site_occupancy
  K  K0  1  0.14069994  0.85929998  0.24999994  1
  Cs  Cs1  1  0.85929999  0.14070000  0.74999997  1
  W  W2  1  0.49999996  0.49999999  0.99999997  1
  P  P3  1  0.49999996  0.49999999  0.49999996  1
  O  O4  1  0.75799995  0.65411998  0.82860994  1
  O  O5  1  0.24199997  0.34587999  0.17138997  1
  O  O6  1  0.34587998  0.24199999  0.67138999  1
  O  O7  1  0.65411994  0.75799998  0.32860993  1
