# generated using pymatgen
data_NaZn2SiO7
_symmetry_space_group_name_H-M   'P 1'
_cell_length_a   4.98852444
_cell_length_b   5.92819738
_cell_length_c   5.92819738
_cell_angle_alpha   74.32066345
_cell_angle_beta   82.96200562
_cell_angle_gamma   97.03799438
_symmetry_Int_Tables_number   1
_chemical_formula_structural   NaZn2SiO7
_chemical_formula_sum   'Na1 Zn2 Si1 O7'
_cell_volume   165.28177091
_cell_formula_units_Z   1
loop_
 _symmetry_equiv_pos_site_id
 _symmetry_equiv_pos_as_xyz
  1  'x, y, z'
loop_
 _atom_site_type_symbol
 _atom_site_label
 _atom_site_symmetry_multiplicity
 _atom_site_fract_x
 _atom_site_fract_y
 _atom_site_fract_z
 _atom_site_occupancy
  Na  Na0  1  0.49999998  0.69291303  0.69291300  1
  Zn  Zn1  1  0.49999998  0.30708701  0.30708700  1
  Zn  Zn2  1  0.90803397  0.22630101  0.77369902  1
  Si  Si3  1  0.09196599  0.77369903  0.22630098  1
  O  O4  1  0.72186197  0.38416602  0.91646002  1
  O  O5  1  0.27813798  0.91646004  0.38416598  1
  O  O6  1  0.27813799  0.61583402  0.08353998  1
  O  O7  1  0.72186197  0.08354000  0.61583402  1
  O  O8  1  0.00000000  0.00000000  0.00000000  1
  O  O9  1  0.21404799  0.38266502  0.61733501  1
  O  O10  1  0.78595197  0.61733502  0.38266499  1
