# generated using pymatgen
data_TeMo3Se5
_symmetry_space_group_name_H-M   'P 1'
_cell_length_a   3.23290396
_cell_length_b   3.23290324
_cell_length_c   29.68301964
_cell_angle_alpha   90.00000000
_cell_angle_beta   90.00000000
_cell_angle_gamma   120.00000763
_symmetry_Int_Tables_number   1
_chemical_formula_structural   TeMo3Se5
_chemical_formula_sum   'Te1 Mo3 Se5'
_cell_volume   268.67310062
_cell_formula_units_Z   1
loop_
 _symmetry_equiv_pos_site_id
 _symmetry_equiv_pos_as_xyz
  1  'x, y, z'
loop_
 _atom_site_type_symbol
 _atom_site_label
 _atom_site_symmetry_multiplicity
 _atom_site_fract_x
 _atom_site_fract_y
 _atom_site_fract_z
 _atom_site_occupancy
  Te  Te0  1  0.00000000  0.00000000  0.88436201  1
  Mo  Mo1  1  0.00000000  0.00000000  0.42165401  1
  Mo  Mo2  1  0.66666667  0.33333332  0.65301001  1
  Mo  Mo3  1  0.00000000  0.00000000  0.59521801  1
  Se  Se4  1  0.00000000  0.00000000  0.71085601  1
  Se  Se5  1  0.66666667  0.33333332  0.93666001  1
  Se  Se6  1  0.66666667  0.33333332  0.47412601  1
  Se  Se7  1  0.66666667  0.33333332  0.83206901  1
  Se  Se8  1  0.66666667  0.33333332  0.36920400  1
