# generated using pymatgen
data_K3SrLi2Cu2Se4S7N
_symmetry_space_group_name_H-M   'P 1'
_cell_length_a   7.23036814
_cell_length_b   7.37316179
_cell_length_c   8.70065880
_cell_angle_alpha   90.00000000
_cell_angle_beta   81.45404053
_cell_angle_gamma   90.00000000
_symmetry_Int_Tables_number   1
_chemical_formula_structural   K3SrLi2Cu2Se4S7N
_chemical_formula_sum   'K3 Sr1 Li2 Cu2 Se4 S7 N1'
_cell_volume   458.68798354
_cell_formula_units_Z   1
loop_
 _symmetry_equiv_pos_site_id
 _symmetry_equiv_pos_as_xyz
  1  'x, y, z'
loop_
 _atom_site_type_symbol
 _atom_site_label
 _atom_site_symmetry_multiplicity
 _atom_site_fract_x
 _atom_site_fract_y
 _atom_site_fract_z
 _atom_site_occupancy
  Sr  Sr0  1  0.75202799  0.55578602  0.86320095  1
  K  K1  1  0.25202800  0.94421403  0.86320097  1
  Li  Li2  1  0.68737999  0.13704900  0.58034896  1
  Li  Li3  1  0.18738000  0.36295101  0.58034898  1
  K  K4  1  0.81261999  0.63704902  0.41965096  1
  K  K5  1  0.31262000  0.86295102  0.41965098  1
  Cu  Cu6  1  0.74797199  0.05578600  0.13679897  1
  Cu  Cu7  1  0.24797200  0.44421401  0.13679899  1
  S  S8  1  0.52748899  0.22574401  0.92076896  1
  S  S9  1  0.02748900  0.27425601  0.92076897  1
  S  S10  1  0.93706199  0.85536302  0.67659995  1
  S  S11  1  0.43706199  0.64463702  0.67659997  1
  Se  Se12  1  0.56293799  0.35536301  0.32339997  1
  Se  Se13  1  0.06293800  0.14463700  0.32339999  1
  S  S14  1  0.97251099  0.72574402  0.07923097  1
  S  S15  1  0.47251099  0.77425602  0.07923098  1
  N  N16  1  0.85045399  0.41515401  0.61736295  1
  Se  Se17  1  0.35045400  0.08484600  0.61736297  1
  Se  Se18  1  0.64954599  0.91515403  0.38263697  1
  S  S19  1  0.14954600  0.58484602  0.38263698  1
