# generated using pymatgen
data_K2Ca2CuAg3S8
_symmetry_space_group_name_H-M   'P 1'
_cell_length_a   7.11189413
_cell_length_b   8.59493160
_cell_length_c   9.14175224
_cell_angle_alpha   61.95972061
_cell_angle_beta   73.26785278
_cell_angle_gamma   90.00000000
_symmetry_Int_Tables_number   1
_chemical_formula_structural   K2Ca2CuAg3S8
_chemical_formula_sum   'K2 Ca2 Cu1 Ag3 S8'
_cell_volume   466.23165549
_cell_formula_units_Z   1
loop_
 _symmetry_equiv_pos_site_id
 _symmetry_equiv_pos_as_xyz
  1  'x, y, z'
loop_
 _atom_site_type_symbol
 _atom_site_label
 _atom_site_symmetry_multiplicity
 _atom_site_fract_x
 _atom_site_fract_y
 _atom_site_fract_z
 _atom_site_occupancy
  K  K0  1  0.74999999  0.12383101  -0.00000000  1
  Ca  Ca1  1  0.25000000  0.87616905  -0.00000001  1
  Ca  Ca2  1  0.72936599  0.62204403  0.50352399  1
  K  K3  1  0.77063399  0.12556801  0.49647600  1
  Ag  Ag4  1  0.27063400  0.37795602  0.49647599  1
  Ag  Ag5  1  0.22936600  0.87443205  0.50352399  1
  Ag  Ag6  1  0.74999999  0.62329403  0.99999999  1
  Cu  Cu7  1  0.25000000  0.37670602  -0.00000001  1
  S  S8  1  0.50387299  0.19892201  0.80540399  1
  S  S9  1  0.99612698  0.00432600  0.19459600  1
  S  S10  1  0.49612700  0.80107804  0.19459599  1
  S  S11  1  0.00387301  0.99567405  0.80540398  1
  S  S12  1  0.96448699  0.44803702  0.78511599  1
  S  S13  1  0.53551299  0.23315301  0.21488400  1
  S  S14  1  0.03551300  0.55196303  0.21488399  1
  S  S15  1  0.46448700  0.76684704  0.78511599  1
