# generated using pymatgen
data_Li3ZnPO9
_symmetry_space_group_name_H-M   'P 1'
_cell_length_a   5.99243832
_cell_length_b   5.99243832
_cell_length_c   5.99243832
_cell_angle_alpha   107.39011383
_cell_angle_beta   107.39011383
_cell_angle_gamma   113.71876526
_symmetry_Int_Tables_number   1
_chemical_formula_structural   Li3ZnPO9
_chemical_formula_sum   'Li3 Zn1 P1 O9'
_cell_volume   164.96093509
_cell_formula_units_Z   1
loop_
 _symmetry_equiv_pos_site_id
 _symmetry_equiv_pos_as_xyz
  1  'x, y, z'
loop_
 _atom_site_type_symbol
 _atom_site_label
 _atom_site_symmetry_multiplicity
 _atom_site_fract_x
 _atom_site_fract_y
 _atom_site_fract_z
 _atom_site_occupancy
  Li  Li0  1  0.03274294  0.62499995  0.90774295  1
  Li  Li1  1  0.71725697  0.12499999  0.09225698  1
  Zn  Zn2  1  0.37499996  0.28274298  0.40774297  1
  Li  Li3  1  0.87499989  0.96725693  0.59225692  1
  P  P4  1  0.49999994  0.49999996  -0.00000004  1
  O  O5  1  0.24999992  0.74999994  0.49999994  1
  O  O6  1  0.58394690  0.90291993  0.70582492  1
  O  O7  1  0.12187796  0.41605297  0.31897297  1
  O  O8  1  0.55290495  0.34707997  0.18102697  1
  O  O9  1  0.62812194  0.44709497  0.79417495  1
  O  O10  1  0.65291991  0.83394694  0.20582494  1
  O  O11  1  0.09707992  0.80290494  0.68102694  1
  O  O12  1  0.19709491  0.87812194  0.29417494  1
  O  O13  1  0.16605296  0.37187797  0.81897296  1
