# generated using pymatgen
data_Na2Ag2S5Cl
_symmetry_space_group_name_H-M   'P 1'
_cell_length_a   3.39209604
_cell_length_b   7.37772226
_cell_length_c   7.78599501
_cell_angle_alpha   90.00000000
_cell_angle_beta   90.00000000
_cell_angle_gamma   103.29046631
_symmetry_Int_Tables_number   1
_chemical_formula_structural   Na2Ag2S5Cl
_chemical_formula_sum   'Na2 Ag2 S5 Cl1'
_cell_volume   189.63317277
_cell_formula_units_Z   1
loop_
 _symmetry_equiv_pos_site_id
 _symmetry_equiv_pos_as_xyz
  1  'x, y, z'
loop_
 _atom_site_type_symbol
 _atom_site_label
 _atom_site_symmetry_multiplicity
 _atom_site_fract_x
 _atom_site_fract_y
 _atom_site_fract_z
 _atom_site_occupancy
  Na  Na0  1  0.26301006  0.52602002  0.25000000  1
  Na  Na1  1  0.73699005  0.47398002  0.75000000  1
  Ag  Ag2  1  0.00000000  0.00000000  0.50000000  1
  Ag  Ag3  1  0.00000000  0.00000000  0.00000000  1
  S  S4  1  0.67460204  0.34920401  0.07035200  1
  S  S5  1  0.32539808  0.65079602  0.92964800  1
  S  S6  1  0.32539808  0.65079602  0.57035200  1
  S  S7  1  0.67460204  0.34920401  0.42964800  1
  S  S8  1  0.89569609  0.79139203  0.25000000  1
  Cl  Cl9  1  0.10430402  0.20860801  0.75000000  1
