# generated using pymatgen
data_Cs2RbIF6
_symmetry_space_group_name_H-M   'P 1'
_cell_length_a   6.89093924
_cell_length_b   6.89093924
_cell_length_c   6.89093924
_cell_angle_alpha   60.00000000
_cell_angle_beta   60.00000000
_cell_angle_gamma   60.00000000
_symmetry_Int_Tables_number   1
_chemical_formula_structural   Cs2RbIF6
_chemical_formula_sum   'Cs2 Rb1 I1 F6'
_cell_volume   231.37704121
_cell_formula_units_Z   1
loop_
 _symmetry_equiv_pos_site_id
 _symmetry_equiv_pos_as_xyz
  1  'x, y, z'
loop_
 _atom_site_type_symbol
 _atom_site_label
 _atom_site_symmetry_multiplicity
 _atom_site_fract_x
 _atom_site_fract_y
 _atom_site_fract_z
 _atom_site_occupancy
  Rb  Rb0  1  0.50000001  0.50000001  0.50000001  1
  Cs  Cs1  1  0.25000001  0.25000001  0.25000001  1
  Cs  Cs2  1  0.75000002  0.75000002  0.75000002  1
  I  I3  1  0.00000000  0.00000000  0.00000000  1
  F  F4  1  0.21266601  0.78733402  0.21266601  1
  F  F5  1  0.21266601  0.21266601  0.78733402  1
  F  F6  1  0.78733402  0.21266601  0.78733402  1
  F  F7  1  0.21266601  0.78733402  0.78733402  1
  F  F8  1  0.78733402  0.21266601  0.21266601  1
  F  F9  1  0.78733402  0.78733402  0.21266601  1
