# generated using pymatgen
data_Li2O2
_symmetry_space_group_name_H-M   'P 1'
_cell_length_a   5.12048006
_cell_length_b   5.21169853
_cell_length_c   6.35379171
_cell_angle_alpha   113.05271912
_cell_angle_beta   112.58597565
_cell_angle_gamma   92.63818359
_symmetry_Int_Tables_number   1
_chemical_formula_structural   Li2O2
_chemical_formula_sum   'Li6 O6'
_cell_volume   140.15060169
_cell_formula_units_Z   3
loop_
 _symmetry_equiv_pos_site_id
 _symmetry_equiv_pos_as_xyz
  1  'x, y, z'
loop_
 _atom_site_type_symbol
 _atom_site_label
 _atom_site_symmetry_multiplicity
 _atom_site_fract_x
 _atom_site_fract_y
 _atom_site_fract_z
 _atom_site_occupancy
  Li  Li0  1  0.85995804  0.10995800  0.21991605  1
  Li  Li1  1  0.14004207  0.89004199  0.78008404  1
  Li  Li2  1  0.62257905  0.37257900  0.74515805  1
  Li  Li3  1  0.37742106  0.62742099  0.25484204  1
  Li  Li4  1  0.75972807  0.63419999  0.58868406  1
  O  O5  1  0.97578509  0.75698799  0.08280107  1
  O  O6  1  0.60701605  0.32581300  0.08280104  1
  O  O7  1  0.24027204  0.36580000  0.41131603  1
  O  O8  1  0.39298406  0.67418699  0.91719905  1
  O  O9  1  0.02421502  0.24301200  0.91719902  1
  O  O10  1  0.67104403  0.04551600  0.41131604  1
  Li  Li11  1  0.32895608  0.95448399  0.58868405  1
