# generated using pymatgen
data_Li8H2(NO)3
_symmetry_space_group_name_H-M   'P 1'
_cell_length_a   3.99381804
_cell_length_b   3.99381804
_cell_length_c   13.95710468
_cell_angle_alpha   98.21052551
_cell_angle_beta   98.20960236
_cell_angle_gamma   90.10888672
_symmetry_Int_Tables_number   1
_chemical_formula_structural   Li8H2(NO)3
_chemical_formula_sum   'Li8 H2 N3 O3'
_cell_volume   218.02758287
_cell_formula_units_Z   1
loop_
 _symmetry_equiv_pos_site_id
 _symmetry_equiv_pos_as_xyz
  1  'x, y, z'
loop_
 _atom_site_type_symbol
 _atom_site_label
 _atom_site_symmetry_multiplicity
 _atom_site_fract_x
 _atom_site_fract_y
 _atom_site_fract_z
 _atom_site_occupancy
  Li  Li0  1  0.58635098  0.08635900  0.66707398  1
  Li  Li1  1  0.41928495  0.91927698  0.33292598  1
  Li  Li2  1  0.74995995  0.74995998  -0.00000002  1
  Li  Li3  1  0.99412996  0.49412999  0.49999997  1
  Li  Li4  1  0.83882797  0.33879299  0.17682298  1
  Li  Li5  1  0.16196997  0.66200499  0.82317698  1
  Li  Li6  1  0.92501796  0.42496299  0.35432198  1
  Li  Li7  1  0.35400898  0.35377699  0.20828999  1
  H  H8  1  0.77264197  0.27263599  0.04523198  1
  N  N9  1  0.14548699  0.14571900  0.79170999  1
  H  H10  1  0.22740397  0.72740998  0.95476798  1
  N  N11  1  0.07064098  0.57069599  0.64567798  1
  O  O12  1  0.48382097  0.45607299  0.50025098  1
  O  O13  1  0.85156195  0.85178598  0.20383098  1
  O  O14  1  0.95582194  0.98356998  0.49974897  1
  N  N15  1  0.64795496  0.64773099  0.79616897  1
