# generated using pymatgen
data_LiBH3N4O
_symmetry_space_group_name_H-M   'P 1'
_cell_length_a   3.16460705
_cell_length_b   3.16460729
_cell_length_c   9.35372829
_cell_angle_alpha   90.49195099
_cell_angle_beta   90.49197388
_cell_angle_gamma   60.03675461
_symmetry_Int_Tables_number   1
_chemical_formula_structural   LiBH3N4O
_chemical_formula_sum   'Li1 B1 H3 N4 O1'
_cell_volume   81.15109242
_cell_formula_units_Z   1
loop_
 _symmetry_equiv_pos_site_id
 _symmetry_equiv_pos_as_xyz
  1  'x, y, z'
loop_
 _atom_site_type_symbol
 _atom_site_label
 _atom_site_symmetry_multiplicity
 _atom_site_fract_x
 _atom_site_fract_y
 _atom_site_fract_z
 _atom_site_occupancy
  Li  Li0  1  0.10522297  0.89477701  0.00000001  1
  B  B1  1  0.10524397  0.89475501  0.50000001  1
  H  H2  1  0.77285999  0.56110201  0.71332701  1
  H  H3  1  0.77283999  0.56111001  0.21332502  1
  N  N4  1  0.43889100  0.22715900  0.78667500  1
  H  H5  1  0.43890000  0.22714000  0.28667201  1
  N  N6  1  0.77336899  0.56281301  0.60931601  1
  N  N7  1  0.77334199  0.56283301  0.10930502  1
  O  O8  1  0.43716700  0.22665800  0.89069500  1
  N  N9  1  0.43718600  0.22663000  0.39068400  1
