# generated using pymatgen
data_K2NaLiSiH
_symmetry_space_group_name_H-M   'P 1'
_cell_length_a   4.30999804
_cell_length_b   4.30999804
_cell_length_c   7.59392214
_cell_angle_alpha   90.00000000
_cell_angle_beta   90.00000000
_cell_angle_gamma   120.00000000
_symmetry_Int_Tables_number   1
_chemical_formula_structural   K2NaLiSiH
_chemical_formula_sum   'K2 Na1 Li1 Si1 H1'
_cell_volume   122.16615802
_cell_formula_units_Z   1
loop_
 _symmetry_equiv_pos_site_id
 _symmetry_equiv_pos_as_xyz
  1  'x, y, z'
loop_
 _atom_site_type_symbol
 _atom_site_label
 _atom_site_symmetry_multiplicity
 _atom_site_fract_x
 _atom_site_fract_y
 _atom_site_fract_z
 _atom_site_occupancy
  Li  Li0  1  0.00000000  0.00000000  0.49999999  1
  K  K1  1  0.00000000  0.00000000  0.00000000  1
  K  K2  1  0.66666667  0.33333335  0.74999999  1
  Na  Na3  1  0.33333335  0.66666670  0.25000000  1
  H  H4  1  0.66666667  0.33333335  0.25000000  1
  Si  Si5  1  0.33333335  0.66666670  0.74999999  1
