# generated using pymatgen
data_CsRb5BiTeI12
_symmetry_space_group_name_H-M   'P 1'
_cell_length_a   4.59912920
_cell_length_b   10.41364574
_cell_length_c   17.19098091
_cell_angle_alpha   90.00000000
_cell_angle_beta   90.00000000
_cell_angle_gamma   90.00000000
_symmetry_Int_Tables_number   1
_chemical_formula_structural   CsRb5BiTeI12
_chemical_formula_sum   'Cs1 Rb5 Bi1 Te1 I12'
_cell_volume   823.33972065
_cell_formula_units_Z   1
loop_
 _symmetry_equiv_pos_site_id
 _symmetry_equiv_pos_as_xyz
  1  'x, y, z'
loop_
 _atom_site_type_symbol
 _atom_site_label
 _atom_site_symmetry_multiplicity
 _atom_site_fract_x
 _atom_site_fract_y
 _atom_site_fract_z
 _atom_site_occupancy
  Rb  Rb0  1  0.99471296  0.67011102  0.16999099  1
  Rb  Rb1  1  0.00528700  0.17011100  0.33000898  1
  Cs  Cs2  1  0.50528698  0.32988901  0.66999096  1
  Rb  Rb3  1  0.49471298  0.82988902  0.83000896  1
  Rb  Rb4  1  0.03401100  0.40881901  0.93734895  1
  Rb  Rb5  1  0.46598898  0.59118101  0.43734898  1
  Bi  Bi6  1  0.53401098  0.09118100  0.06265100  1
  Te  Te7  1  0.96598896  0.90881902  0.56265097  1
  I  I8  1  0.01176700  0.77165202  0.38916298  1
  I  I9  1  0.98286196  0.92014102  0.00011700  1
  I  I10  1  0.01713800  0.42014101  0.49988297  1
  I  I11  1  0.51176698  0.72834802  0.61083697  1
  I  I12  1  0.51713798  0.07985900  0.50011697  1
  I  I13  1  0.99200696  0.04016700  0.70852596  1
  I  I14  1  0.48823298  0.22834801  0.88916295  1
  I  I15  1  0.00799300  0.54016701  0.79147396  1
  I  I16  1  0.98823296  0.27165201  0.11083699  1
  I  I17  1  0.48286198  0.57985901  0.99988295  1
  I  I18  1  0.50799298  0.95983302  0.20852599  1
  I  I19  1  0.49200698  0.45983301  0.29147398  1
