# generated using pymatgen
data_LiSi3GeO11
_symmetry_space_group_name_H-M   'P 1'
_cell_length_a   5.89836216
_cell_length_b   6.99528122
_cell_length_c   7.48924208
_cell_angle_alpha   105.29369354
_cell_angle_beta   90.00000000
_cell_angle_gamma   114.93537903
_symmetry_Int_Tables_number   1
_chemical_formula_structural   LiSi3GeO11
_chemical_formula_sum   'Li1 Si3 Ge1 O11'
_cell_volume   268.09012933
_cell_formula_units_Z   1
loop_
 _symmetry_equiv_pos_site_id
 _symmetry_equiv_pos_as_xyz
  1  'x, y, z'
loop_
 _atom_site_type_symbol
 _atom_site_label
 _atom_site_symmetry_multiplicity
 _atom_site_fract_x
 _atom_site_fract_y
 _atom_site_fract_z
 _atom_site_occupancy
  Ge  Ge0  1  0.00000000  0.00000000  0.50000001  1
  Li  Li1  1  0.00000000  0.00000000  0.00000000  1
  Si  Si2  1  0.47791402  0.73169399  0.68463701  1
  Si  Si3  1  0.74621999  0.26830599  0.81536302  1
  O  O4  1  0.25378002  0.73169399  0.18463700  1
  Si  Si5  1  0.52208600  0.26830599  0.31536301  1
  O  O6  1  0.09233403  0.74986499  0.37272700  1
  O  O7  1  0.34246900  0.25013500  0.12727300  1
  O  O8  1  0.90766598  0.25013500  0.62727301  1
  O  O9  1  0.65753101  0.74986499  0.87272702  1
  O  O10  1  0.53085699  0.00000000  0.25000001  1
  O  O11  1  0.46914299  0.00000000  0.75000002  1
  O  O12  1  0.65501301  0.75042099  0.50255301  1
  O  O13  1  0.90459198  0.24957900  0.99744702  1
  O  O14  1  0.34498700  0.24957900  0.49744701  1
  O  O15  1  0.09540803  0.75042099  0.00255299  1
