# generated using pymatgen
data_LiLuN2
_symmetry_space_group_name_H-M   'P 1'
_cell_length_a   3.50817609
_cell_length_b   3.50817633
_cell_length_c   5.97929478
_cell_angle_alpha   90.00000000
_cell_angle_beta   90.00000000
_cell_angle_gamma   120.00000000
_symmetry_Int_Tables_number   1
_chemical_formula_structural   LiLuN2
_chemical_formula_sum   'Li1 Lu1 N2'
_cell_volume   63.72992302
_cell_formula_units_Z   1
loop_
 _symmetry_equiv_pos_site_id
 _symmetry_equiv_pos_as_xyz
  1  'x, y, z'
loop_
 _atom_site_type_symbol
 _atom_site_label
 _atom_site_symmetry_multiplicity
 _atom_site_fract_x
 _atom_site_fract_y
 _atom_site_fract_z
 _atom_site_occupancy
  Li  Li0  1  0.00000000  0.00000000  0.50000002  1
  Lu  Lu1  1  0.00000000  0.00000000  0.00000000  1
  N  N2  1  0.33333338  0.66666671  0.22162301  1
  N  N3  1  0.66666668  0.33333335  0.77837703  1
