# generated using pymatgen
data_Li3ZrCu2Ag2SeS7
_symmetry_space_group_name_H-M   'P 1'
_cell_length_a   6.71201944
_cell_length_b   7.02116489
_cell_length_c   8.15470123
_cell_angle_alpha   90.00000000
_cell_angle_beta   89.88363647
_cell_angle_gamma   90.00000000
_symmetry_Int_Tables_number   1
_chemical_formula_structural   Li3ZrCu2Ag2SeS7
_chemical_formula_sum   'Li3 Zr1 Cu2 Ag2 Se1 S7'
_cell_volume   384.29925024
_cell_formula_units_Z   1
loop_
 _symmetry_equiv_pos_site_id
 _symmetry_equiv_pos_as_xyz
  1  'x, y, z'
loop_
 _atom_site_type_symbol
 _atom_site_label
 _atom_site_symmetry_multiplicity
 _atom_site_fract_x
 _atom_site_fract_y
 _atom_site_fract_z
 _atom_site_occupancy
  Li  Li0  1  0.97320900  0.18821600  0.24530396  1
  Zr  Zr1  1  0.47320900  0.81178401  0.74530398  1
  Li  Li2  1  0.95477600  0.65271001  0.49994796  1
  Li  Li3  1  0.45477600  0.34729001  0.99994798  1
  Cu  Cu4  1  0.97157500  0.18875200  0.75513296  1
  Ag  Ag5  1  0.47157500  0.81124801  0.25513298  1
  Cu  Cu6  1  0.45746700  0.31770200  0.49967398  1
  Ag  Ag7  1  0.95746700  0.68229801  0.99967396  1
  S  S8  1  0.33767000  0.61854201  0.50311898  1
  Se  Se9  1  0.83767000  0.38145801  0.00311896  1
  S  S10  1  0.35070000  0.16903900  0.26980098  1
  S  S11  1  0.35482300  0.16641000  0.73018598  1
  S  S12  1  0.85482300  0.83359001  0.23018596  1
  S  S13  1  0.85070000  0.83096101  0.76980096  1
  S  S14  1  0.79378000  0.32148400  0.49683496  1
  S  S15  1  0.29378000  0.67851601  0.99683499  1
