# generated using pymatgen
data_InSbTe2
_symmetry_space_group_name_H-M   'P 1'
_cell_length_a   4.72374249
_cell_length_b   4.72374249
_cell_length_c   8.65914249
_cell_angle_alpha   74.17140198
_cell_angle_beta   74.17140198
_cell_angle_gamma   59.99999619
_symmetry_Int_Tables_number   1
_chemical_formula_structural   InSbTe2
_chemical_formula_sum   'In1 Sb1 Te2'
_cell_volume   158.81542141
_cell_formula_units_Z   1
loop_
 _symmetry_equiv_pos_site_id
 _symmetry_equiv_pos_as_xyz
  1  'x, y, z'
loop_
 _atom_site_type_symbol
 _atom_site_label
 _atom_site_symmetry_multiplicity
 _atom_site_fract_x
 _atom_site_fract_y
 _atom_site_fract_z
 _atom_site_occupancy
  In  In0  1  0.49999999  0.49999998  0.50000003  1
  Sb  Sb1  1  0.00000000  0.00000000  0.00000000  1
  Te  Te2  1  0.26145900  0.26145899  0.21562301  1
  Te  Te3  1  0.73854099  0.73854097  0.78437704  1
