# generated using pymatgen
data_NdAg4BiS11Cl
_symmetry_space_group_name_H-M   'P 1'
_cell_length_a   3.89306211
_cell_length_b   10.49577427
_cell_length_c   11.85906506
_cell_angle_alpha   71.05713654
_cell_angle_beta   80.55280304
_cell_angle_gamma   79.31213379
_symmetry_Int_Tables_number   1
_chemical_formula_structural   NdAg4BiS11Cl
_chemical_formula_sum   'Nd1 Ag4 Bi1 S11 Cl1'
_cell_volume   447.55094956
_cell_formula_units_Z   1
loop_
 _symmetry_equiv_pos_site_id
 _symmetry_equiv_pos_as_xyz
  1  'x, y, z'
loop_
 _atom_site_type_symbol
 _atom_site_label
 _atom_site_symmetry_multiplicity
 _atom_site_fract_x
 _atom_site_fract_y
 _atom_site_fract_z
 _atom_site_occupancy
  Bi  Bi0  1  0.23901198  0.32643801  0.19553802  1
  Nd  Nd1  1  0.76098795  0.67356202  0.80446206  1
  Ag  Ag2  1  0.33712696  0.92408203  0.40166406  1
  Ag  Ag3  1  0.54724496  0.71101702  0.19449305  1
  Ag  Ag4  1  0.45275497  0.28898301  0.80550704  1
  Ag  Ag5  1  0.66287297  0.07591800  0.59833603  1
  S  S6  1  -0.00000001  0.50000002  0.50000003  1
  S  S7  1  0.00000000  0.00000000  0.00000000  1
  S  S8  1  0.56378798  0.02822800  0.84419603  1
  S  S9  1  0.07126799  0.24384901  0.61361503  1
  S  S10  1  0.76058497  0.10797500  0.37085503  1
  S  S11  1  0.58842096  0.47887901  0.34427904  1
  S  S12  1  0.23941497  0.89202503  0.62914506  1
  Cl  Cl13  1  0.41157897  0.52112102  0.65572105  1
  S  S14  1  0.92873194  0.75615102  0.38638506  1
  S  S15  1  0.88543696  0.27945801  0.94966805  1
  S  S16  1  0.43621196  0.97177203  0.15580405  1
  S  S17  1  0.11456298  0.72054202  0.05033203  1
