# generated using pymatgen
data_Sr2PrAg4SeS9
_symmetry_space_group_name_H-M   'P 1'
_cell_length_a   5.04887009
_cell_length_b   5.04887009
_cell_length_c   18.31442642
_cell_angle_alpha   97.92279816
_cell_angle_beta   97.92279816
_cell_angle_gamma   90.00000000
_symmetry_Int_Tables_number   1
_chemical_formula_structural   Sr2PrAg4SeS9
_chemical_formula_sum   'Sr2 Pr1 Ag4 Se1 S9'
_cell_volume   457.89877000
_cell_formula_units_Z   1
loop_
 _symmetry_equiv_pos_site_id
 _symmetry_equiv_pos_as_xyz
  1  'x, y, z'
loop_
 _atom_site_type_symbol
 _atom_site_label
 _atom_site_symmetry_multiplicity
 _atom_site_fract_x
 _atom_site_fract_y
 _atom_site_fract_z
 _atom_site_occupancy
  Sr  Sr0  1  0.43263600  0.43263600  0.86527202  1
  Sr  Sr1  1  0.56736400  0.56736399  0.13472802  1
  Pr  Pr2  1  0.30028100  0.30028100  0.60056201  1
  Ag  Ag3  1  0.69971900  0.69971899  0.39943802  1
  Ag  Ag4  1  0.00000000  0.00000000  0.00000000  1
  Ag  Ag5  1  0.85682901  0.85682899  0.71365803  1
  Ag  Ag6  1  0.14317100  0.14317100  0.28634201  1
  Se  Se7  1  0.36059601  0.86059599  0.72119202  1
  S  S8  1  0.13940401  0.63940399  0.27880801  1
  S  S9  1  0.63940400  0.13940400  0.27880801  1
  S  S10  1  0.86059600  0.36059600  0.72119202  1
  S  S11  1  0.50000000  0.00000000  0.00000001  1
  S  S12  1  0.00000001  0.50000000  0.00000001  1
  S  S13  1  0.21310900  0.21310900  0.42621801  1
  S  S14  1  0.92950301  0.92950299  0.85900603  1
  S  S15  1  0.07049700  0.07049700  0.14099400  1
  S  S16  1  0.78689101  0.78689099  0.57378203  1
