# generated using pymatgen
data_RbI2Cl15
_symmetry_space_group_name_H-M   'P 1'
_cell_length_a   8.03238201
_cell_length_b   8.03238201
_cell_length_c   8.03238201
_cell_angle_alpha   85.29810333
_cell_angle_beta   85.29810333
_cell_angle_gamma   85.29810333
_symmetry_Int_Tables_number   1
_chemical_formula_structural   RbI2Cl15
_chemical_formula_sum   'Rb1 I2 Cl15'
_cell_volume   513.28087776
_cell_formula_units_Z   1
loop_
 _symmetry_equiv_pos_site_id
 _symmetry_equiv_pos_as_xyz
  1  'x, y, z'
loop_
 _atom_site_type_symbol
 _atom_site_label
 _atom_site_symmetry_multiplicity
 _atom_site_fract_x
 _atom_site_fract_y
 _atom_site_fract_z
 _atom_site_occupancy
  Rb  Rb0  1  0.62407398  0.62407398  0.62407398  1
  I  I1  1  0.41401999  0.49247598  0.91500199  1
  Cl  Cl2  1  0.49247599  0.91500196  0.41401998  1
  Cl  Cl3  1  0.91500197  0.41401998  0.49247598  1
  Cl  Cl4  1  0.74907098  0.52836598  0.49113298  1
  Cl  Cl5  1  0.52836598  0.49113298  0.74907099  1
  Cl  Cl6  1  0.49113299  0.74907097  0.52836598  1
  Cl  Cl7  1  0.76006198  0.76006197  0.76006198  1
  Cl  Cl8  1  0.28784300  0.94531796  0.28666098  1
  Cl  Cl9  1  0.94531797  0.28666099  0.28784298  1
  Cl  Cl10  1  0.28666099  0.28784299  0.94531800  1
  Cl  Cl11  1  0.68827598  0.93931096  0.24447598  1
  Cl  Cl12  1  0.93931097  0.24447599  0.68827599  1
  Cl  Cl13  1  0.24447600  0.68827597  0.93931099  1
  Cl  Cl14  1  0.48507698  0.12014300  0.54394499  1
  Cl  Cl15  1  0.12014300  0.54394498  0.48507699  1
  I  I16  1  0.54394498  0.48507698  0.12014299  1
  Cl  Cl17  1  0.01137500  0.01137500  0.01137500  1
