# generated using pymatgen
data_Li4FeO8
_symmetry_space_group_name_H-M   'P 1'
_cell_length_a   3.80016208
_cell_length_b   6.40278292
_cell_length_c   6.50988340
_cell_angle_alpha   107.37252808
_cell_angle_beta   90.00000000
_cell_angle_gamma   107.26302338
_symmetry_Int_Tables_number   1
_chemical_formula_structural   Li4FeO8
_chemical_formula_sum   'Li4 Fe1 O8'
_cell_volume   143.67678289
_cell_formula_units_Z   1
loop_
 _symmetry_equiv_pos_site_id
 _symmetry_equiv_pos_as_xyz
  1  'x, y, z'
loop_
 _atom_site_type_symbol
 _atom_site_label
 _atom_site_symmetry_multiplicity
 _atom_site_fract_x
 _atom_site_fract_y
 _atom_site_fract_z
 _atom_site_occupancy
  Li  Li0  1  0.99289403  0.98578701  0.98205494  1
  Li  Li1  1  0.39572103  0.79144301  0.28065996  1
  Li  Li2  1  0.60178600  0.20357200  0.70390598  1
  Li  Li3  1  0.70292201  0.40584400  0.30224398  1
  Fe  Fe4  1  0.29728502  0.59456900  0.69558896  1
  O  O5  1  0.44386404  0.88772801  0.64479695  1
  O  O6  1  0.55711199  0.11422400  0.36715299  1
  O  O7  1  0.36915003  0.73830101  0.99283495  1
  O  O8  1  0.62929900  0.25859800  0.01403599  1
  O  O9  1  0.23619702  0.47239500  0.35879797  1
  O  O10  1  0.76907001  0.53813900  0.65474597  1
  O  O11  1  0.14171201  0.28342500  0.71080398  1
  O  O12  1  0.86298802  0.72597501  0.29237596  1
