# generated using pymatgen
data_CsRbBiSbTeSI2Br7Cl3
_symmetry_space_group_name_H-M   'P 1'
_cell_length_a   7.88910389
_cell_length_b   7.88910341
_cell_length_c   10.69636917
_cell_angle_alpha   90.00000000
_cell_angle_beta   90.00000000
_cell_angle_gamma   120.00000000
_symmetry_Int_Tables_number   1
_chemical_formula_structural   CsRbBiSbTeSI2Br7Cl3
_chemical_formula_sum   'Cs1 Rb1 Bi1 Sb1 Te1 S1 I2 Br7 Cl3'
_cell_volume   576.53056889
_cell_formula_units_Z   1
loop_
 _symmetry_equiv_pos_site_id
 _symmetry_equiv_pos_as_xyz
  1  'x, y, z'
loop_
 _atom_site_type_symbol
 _atom_site_label
 _atom_site_symmetry_multiplicity
 _atom_site_fract_x
 _atom_site_fract_y
 _atom_site_fract_z
 _atom_site_occupancy
  Bi  Bi0  1  0.50188499  0.49811600  0.75861299  1
  Cs  Cs1  1  0.49811499  0.50188400  0.25861300  1
  Rb  Rb2  1  0.99623100  0.49811600  0.75861299  1
  Sb  Sb3  1  0.00376898  0.50188400  0.25861300  1
  Te  Te4  1  0.50188501  0.00377000  0.75861299  1
  Br  Br5  1  0.49811497  0.99623001  0.25861300  1
  Br  Br6  1  0.00000000  0.00000000  0.76273899  1
  Br  Br7  1  0.00000000  0.00000000  0.26273900  1
  I  I8  1  0.69730098  0.84865000  0.64088199  1
  Br  Br9  1  0.15134897  0.84865000  0.64088199  1
  I  I10  1  0.15134899  0.30269800  0.64088199  1
  Br  Br11  1  0.84865101  0.15135000  0.14088200  1
  S  S12  1  0.66666666  0.33333334  0.88513199  1
  Br  Br13  1  0.84865099  0.69730200  0.14088200  1
  Cl  Cl14  1  0.33333331  0.66666667  0.38513199  1
  Cl  Cl15  1  0.30269900  0.15135000  0.14088200  1
  Br  Br16  1  0.66666666  0.33333334  0.46902199  1
  Cl  Cl17  1  0.33333331  0.66666667  0.96902198  1
