# generated using pymatgen
data_SrNdLuAg2S9
_symmetry_space_group_name_H-M   'P 1'
_cell_length_a   7.22599983
_cell_length_b   7.22599983
_cell_length_c   7.22599983
_cell_angle_alpha   109.82353210
_cell_angle_beta   109.29535675
_cell_angle_gamma   109.29535675
_symmetry_Int_Tables_number   1
_chemical_formula_structural   SrNdLuAg2S9
_chemical_formula_sum   'Sr1 Nd1 Lu1 Ag2 S9'
_cell_volume   290.44210937
_cell_formula_units_Z   1
loop_
 _symmetry_equiv_pos_site_id
 _symmetry_equiv_pos_as_xyz
  1  'x, y, z'
loop_
 _atom_site_type_symbol
 _atom_site_label
 _atom_site_symmetry_multiplicity
 _atom_site_fract_x
 _atom_site_fract_y
 _atom_site_fract_z
 _atom_site_occupancy
  Sr  Sr0  1  0.50000005  0.25000003  0.75000007  1
  Nd  Nd1  1  0.00000000  0.00000000  0.00000000  1
  Lu  Lu2  1  0.86853005  0.12500001  0.49353007  1
  Ag  Ag3  1  0.36853011  0.74353008  0.87500014  1
  Ag  Ag4  1  0.13147009  0.62500007  0.25647009  1
  S  S5  1  0.63147009  0.50647006  0.37500010  1
  S  S6  1  0.25425606  0.39134504  0.99374209  1
  S  S7  1  0.89760310  0.51051406  0.75625812  1
  S  S8  1  0.60239714  0.86291110  0.60865415  1
  S  S9  1  0.39760302  0.00625800  0.26051402  1
  S  S10  1  0.75425606  0.24374203  0.14134507  1
  S  S11  1  0.10239712  0.85865410  0.61291113  1
  S  S12  1  0.74574412  0.73948708  0.13708913  1
  S  S13  1  0.24574406  0.38708904  0.48948707  1
