# generated using pymatgen
data_LiSiB2HC3O4
_symmetry_space_group_name_H-M   'P 1'
_cell_length_a   5.00549650
_cell_length_b   5.00549650
_cell_length_c   7.00209808
_cell_angle_alpha   90.00000000
_cell_angle_beta   90.00000000
_cell_angle_gamma   89.90907288
_symmetry_Int_Tables_number   1
_chemical_formula_structural   LiSiB2HC3O4
_chemical_formula_sum   'Li1 Si1 B2 H1 C3 O4'
_cell_volume   175.43731317
_cell_formula_units_Z   1
loop_
 _symmetry_equiv_pos_site_id
 _symmetry_equiv_pos_as_xyz
  1  'x, y, z'
loop_
 _atom_site_type_symbol
 _atom_site_label
 _atom_site_symmetry_multiplicity
 _atom_site_fract_x
 _atom_site_fract_y
 _atom_site_fract_z
 _atom_site_occupancy
  B  B0  1  0.18713101  0.81286902  0.99999999  1
  Li  Li1  1  0.81286902  0.18713101  0.49999999  1
  Si  Si2  1  0.31638701  0.31638701  0.25000000  1
  B  B3  1  0.68361302  0.68361302  0.74999999  1
  H  H4  1  0.77392303  0.83363302  0.56816299  1
  C  C5  1  0.22607701  0.16636700  0.06816300  1
  C  C6  1  0.83363303  0.77392302  0.93183699  1
  C  C7  1  0.38220101  0.73277502  0.78488399  1
  O  O8  1  0.16636701  0.22607701  0.43183699  1
  O  O9  1  0.26722501  0.61779902  0.21511600  1
  O  O10  1  0.73277502  0.38220101  0.71511599  1
  O  O11  1  0.61779902  0.26722501  0.28488400  1
