# generated using pymatgen
data_KNaLi3H3N2
_symmetry_space_group_name_H-M   'P 1'
_cell_length_a   6.43178368
_cell_length_b   6.43178368
_cell_length_c   6.43178368
_cell_angle_alpha   60.00000000
_cell_angle_beta   60.00000000
_cell_angle_gamma   60.00000000
_symmetry_Int_Tables_number   1
_chemical_formula_structural   KNaLi3H3N2
_chemical_formula_sum   'K1 Na1 Li3 H3 N2'
_cell_volume   188.13919849
_cell_formula_units_Z   1
loop_
 _symmetry_equiv_pos_site_id
 _symmetry_equiv_pos_as_xyz
  1  'x, y, z'
loop_
 _atom_site_type_symbol
 _atom_site_label
 _atom_site_symmetry_multiplicity
 _atom_site_fract_x
 _atom_site_fract_y
 _atom_site_fract_z
 _atom_site_occupancy
  Li  Li0  1  0.75000002  0.75000002  0.75000002  1
  K  K1  1  0.25000001  0.25000001  0.25000001  1
  Li  Li2  1  0.00000000  0.00000000  0.00000000  1
  Li  Li3  1  0.50000002  0.50000002  0.50000002  1
  H  H4  1  0.71305302  0.28694701  0.71305302  1
  Na  Na5  1  0.28694701  0.71305302  0.71305302  1
  N  N6  1  0.71305302  0.28694701  0.28694701  1
  N  N7  1  0.71305302  0.71305302  0.28694701  1
  H  H8  1  0.28694701  0.28694701  0.71305302  1
  H  H9  1  0.28694701  0.71305302  0.28694701  1
