# generated using pymatgen
data_Li3V2TeO10
_symmetry_space_group_name_H-M   'P 1'
_cell_length_a   5.23445177
_cell_length_b   5.39858198
_cell_length_c   7.53548193
_cell_angle_alpha   90.00000000
_cell_angle_beta   89.55239868
_cell_angle_gamma   90.00000000
_symmetry_Int_Tables_number   1
_chemical_formula_structural   Li3V2TeO10
_chemical_formula_sum   'Li3 V2 Te1 O10'
_cell_volume   212.93580005
_cell_formula_units_Z   1
loop_
 _symmetry_equiv_pos_site_id
 _symmetry_equiv_pos_as_xyz
  1  'x, y, z'
loop_
 _atom_site_type_symbol
 _atom_site_label
 _atom_site_symmetry_multiplicity
 _atom_site_fract_x
 _atom_site_fract_y
 _atom_site_fract_z
 _atom_site_occupancy
  Li  Li0  1  0.00000000  0.00000000  0.50000000  1
  Te  Te1  1  0.50000002  0.50000000  -0.00000002  1
  Li  Li2  1  0.00000000  0.00000000  0.00000000  1
  Li  Li3  1  0.50000002  0.50000000  0.49999998  1
  V  V4  1  0.91218804  0.01945700  0.23223196  1
  V  V5  1  0.81377804  0.27740300  0.95475697  1
  O  O6  1  0.78078503  0.30988100  0.54214497  1
  O  O7  1  0.71921503  0.80988100  0.95785497  1
  O  O8  1  0.68622203  0.77740300  0.54524297  1
  O  O9  1  0.58781203  0.51945700  0.26776798  1
  O  O10  1  0.41218802  0.48054300  0.73223198  1
  O  O11  1  0.31377801  0.22259700  0.45475699  1
  O  O12  1  0.28078501  0.19011900  0.04214499  1
  O  O13  1  0.21921501  0.69011900  0.45785499  1
  O  O14  1  0.18622201  0.72259700  0.04524299  1
  O  O15  1  0.08781200  0.98054300  0.76776800  1
