# generated using pymatgen
data_Li3VTeO11
_symmetry_space_group_name_H-M   'P 1'
_cell_length_a   5.17904902
_cell_length_b   5.33616877
_cell_length_c   7.44346523
_cell_angle_alpha   90.00000000
_cell_angle_beta   89.98718262
_cell_angle_gamma   90.00000000
_symmetry_Int_Tables_number   1
_chemical_formula_structural   Li3VTeO11
_chemical_formula_sum   'Li3 V1 Te1 O11'
_cell_volume   205.70968116
_cell_formula_units_Z   1
loop_
 _symmetry_equiv_pos_site_id
 _symmetry_equiv_pos_as_xyz
  1  'x, y, z'
loop_
 _atom_site_type_symbol
 _atom_site_label
 _atom_site_symmetry_multiplicity
 _atom_site_fract_x
 _atom_site_fract_y
 _atom_site_fract_z
 _atom_site_occupancy
  Li  Li0  1  0.50000000  0.00000000  -0.00000001  1
  Te  Te1  1  0.00000000  0.50000002  0.50000000  1
  Li  Li2  1  0.50000000  0.00000000  0.49999999  1
  Li  Li3  1  0.00000000  0.50000002  -0.00000000  1
  V  V4  1  0.29990000  0.29731301  0.45010199  1
  O  O5  1  0.20010000  0.79731303  0.04989800  1
  O  O6  1  0.70010000  0.70268703  0.54989799  1
  O  O7  1  0.79990000  0.20268701  0.95010198  1
  O  O8  1  0.80220900  0.20265201  0.54889499  1
  O  O9  1  0.69779100  0.70265203  0.95110498  1
  O  O10  1  0.19779100  0.79734803  0.45110499  1
  O  O11  1  0.30220900  0.29734801  0.04889500  1
  O  O12  1  0.90094300  0.48318702  0.25066299  1
  O  O13  1  0.59905700  0.98318704  0.24933699  1
  O  O14  1  0.40094300  0.01681300  0.75066299  1
  O  O15  1  0.09905700  0.51681302  0.74933699  1
