# generated using pymatgen
data_Li2O2
_symmetry_space_group_name_H-M   'P 1'
_cell_length_a   5.09165812
_cell_length_b   5.55182791
_cell_length_c   6.35494280
_cell_angle_alpha   90.00000000
_cell_angle_beta   90.00000000
_cell_angle_gamma   90.00000000
_symmetry_Int_Tables_number   1
_chemical_formula_structural   Li2O2
_chemical_formula_sum   'Li8 O8'
_cell_volume   179.64158417
_cell_formula_units_Z   4
loop_
 _symmetry_equiv_pos_site_id
 _symmetry_equiv_pos_as_xyz
  1  'x, y, z'
loop_
 _atom_site_type_symbol
 _atom_site_label
 _atom_site_symmetry_multiplicity
 _atom_site_fract_x
 _atom_site_fract_y
 _atom_site_fract_z
 _atom_site_occupancy
  Li  Li0  1  0.50233599  0.83300901  0.25052201  1
  Li  Li1  1  0.00233600  0.16699100  0.24947801  1
  Li  Li2  1  0.00233600  0.16699100  0.75052202  1
  Li  Li3  1  0.50233599  0.83300901  0.74947802  1
  Li  Li4  1  0.50052399  0.33625101  0.00000000  1
  Li  Li5  1  0.00052400  0.66374901  0.50000002  1
  Li  Li6  1  0.00679000  0.67423301  -0.00000000  1
  Li  Li7  1  0.50678999  0.32576701  0.50000002  1
  O  O8  1  0.89186598  0.36904401  0.00000000  1
  O  O9  1  0.39186599  0.63095601  0.50000002  1
  O  O10  1  0.89577398  0.82382301  0.23174901  1
  O  O11  1  0.39577399  0.17617700  0.26825101  1
  O  O12  1  0.39577399  0.17617700  0.73174902  1
  O  O13  1  0.89577398  0.82382301  0.76825102  1
  O  O14  1  0.35709999  0.66977501  -0.00000000  1
  O  O15  1  0.85709998  0.33022501  0.50000002  1
