# generated using pymatgen
data_KSr2Bi2Sb3(SeS3)3
_symmetry_space_group_name_H-M   'P 1'
_cell_length_a   3.96888494
_cell_length_b   11.20558357
_cell_length_c   11.86769199
_cell_angle_alpha   90.00000000
_cell_angle_beta   90.00000000
_cell_angle_gamma   90.00000000
_symmetry_Int_Tables_number   1
_chemical_formula_structural   KSr2Bi2Sb3(SeS3)3
_chemical_formula_sum   'K1 Sr2 Bi2 Sb3 Se3 S9'
_cell_volume   527.79984041
_cell_formula_units_Z   1
loop_
 _symmetry_equiv_pos_site_id
 _symmetry_equiv_pos_as_xyz
  1  'x, y, z'
loop_
 _atom_site_type_symbol
 _atom_site_label
 _atom_site_symmetry_multiplicity
 _atom_site_fract_x
 _atom_site_fract_y
 _atom_site_fract_z
 _atom_site_occupancy
  K  K0  1  0.25000000  0.16977101  0.51571600  1
  Sr  Sr1  1  0.25000000  0.33022901  0.01571600  1
  Sr  Sr2  1  0.75000001  0.83022903  0.48428400  1
  Sb  Sb3  1  0.75000001  0.66977103  0.98428400  1
  Bi  Bi4  1  0.75000001  0.46180702  0.64622200  1
  Bi  Bi5  1  0.75000001  0.03819300  0.14622200  1
  Sb  Sb6  1  0.25000000  0.53819302  0.35377800  1
  Sb  Sb7  1  0.25000000  0.96180704  0.85377800  1
  Se  Se8  1  0.25000000  0.62542802  0.54627700  1
  Se  Se9  1  0.25000000  0.87457203  0.04627700  1
  S  S10  1  0.75000001  0.37457201  0.45372300  1
  S  S11  1  0.75000001  0.12542800  0.95372300  1
  Se  Se12  1  0.75000001  0.05615200  0.62245500  1
  S  S13  1  0.75000001  0.44384802  0.12245500  1
  S  S14  1  0.25000000  0.94384804  0.37754500  1
  S  S15  1  0.25000000  0.55615202  0.87754500  1
  S  S16  1  0.25000000  0.31318201  0.70233400  1
  S  S17  1  0.25000000  0.18681801  0.20233400  1
  S  S18  1  0.75000001  0.68681803  0.29766600  1
  S  S19  1  0.75000001  0.81318203  0.79766600  1
