# generated using pymatgen
data_Li4Si3O13
_symmetry_space_group_name_H-M   'P 1'
_cell_length_a   5.29239750
_cell_length_b   6.45333052
_cell_length_c   6.45333052
_cell_angle_alpha   84.36753082
_cell_angle_beta   76.92286682
_cell_angle_gamma   76.92286682
_symmetry_Int_Tables_number   1
_chemical_formula_structural   Li4Si3O13
_chemical_formula_sum   'Li4 Si3 O13'
_cell_volume   208.86465115
_cell_formula_units_Z   1
loop_
 _symmetry_equiv_pos_site_id
 _symmetry_equiv_pos_as_xyz
  1  'x, y, z'
loop_
 _atom_site_type_symbol
 _atom_site_label
 _atom_site_symmetry_multiplicity
 _atom_site_fract_x
 _atom_site_fract_y
 _atom_site_fract_z
 _atom_site_occupancy
  Li  Li0  1  0.74999998  0.70004598  0.29995404  1
  Li  Li1  1  0.24999999  0.29995399  0.70004600  1
  Li  Li2  1  0.74999998  0.09502000  0.90497999  1
  Li  Li3  1  0.24999999  0.90497998  0.09502005  1
  Si  Si4  1  0.77445698  0.19655400  0.38310701  1
  Si  Si5  1  0.72554298  0.61689299  0.80344602  1
  Si  Si6  1  0.22554299  0.80344598  0.61689303  1
  O  O7  1  0.27445699  0.38310699  0.19655402  1
  O  O8  1  0.49444999  0.35825199  0.34666002  1
  O  O9  1  0.00555000  0.65333998  0.64174802  1
  O  O10  1  0.50554999  0.64174798  0.65334003  1
  O  O11  1  0.99444998  0.34665999  0.35825202  1
  O  O12  1  0.20899499  0.62398699  0.09898203  1
  O  O13  1  0.29100499  0.90101798  0.37601304  1
  O  O14  1  0.79100498  0.37601299  0.90101801  1
  O  O15  1  0.70899498  0.09898200  0.62398700  1
  O  O16  1  0.87318098  0.03284800  0.18447800  1
  O  O17  1  0.62681898  0.81552198  0.96715203  1
  O  O18  1  0.12681899  0.96715198  0.81552204  1
  O  O19  1  0.37318099  0.18447800  0.03284801  1
