# generated using pymatgen
data_LiMnAlCrO8
_symmetry_space_group_name_H-M   'P 1'
_cell_length_a   3.65469003
_cell_length_b   5.59712505
_cell_length_c   8.77304745
_cell_angle_alpha   90.00000000
_cell_angle_beta   90.00000000
_cell_angle_gamma   90.00000000
_symmetry_Int_Tables_number   1
_chemical_formula_structural   LiMnAlCrO8
_chemical_formula_sum   'Li1 Mn1 Al1 Cr1 O8'
_cell_volume   179.45932773
_cell_formula_units_Z   1
loop_
 _symmetry_equiv_pos_site_id
 _symmetry_equiv_pos_as_xyz
  1  'x, y, z'
loop_
 _atom_site_type_symbol
 _atom_site_label
 _atom_site_symmetry_multiplicity
 _atom_site_fract_x
 _atom_site_fract_y
 _atom_site_fract_z
 _atom_site_occupancy
  Li  Li0  1  0.25000000  0.89303099  0.37210198  1
  Mn  Mn1  1  0.74999999  0.10696900  0.62789797  1
  Cr  Cr2  1  0.25000000  0.39303100  0.12789799  1
  Al  Al3  1  0.74999999  0.60696899  0.87210196  1
  O  O4  1  0.74999999  0.87880499  0.44451198  1
  O  O5  1  0.25000000  0.07837400  0.20746799  1
  O  O6  1  0.74999999  0.92162599  0.79253196  1
  O  O7  1  0.25000000  0.12119500  0.55548797  1
  O  O8  1  0.74999999  0.37880500  0.05548800  1
  O  O9  1  0.25000000  0.57837399  0.29253199  1
  O  O10  1  0.74999999  0.42162600  0.70746796  1
  O  O11  1  0.25000000  0.62119499  0.94451195  1
