# generated using pymatgen
data_Na3Li3NdH5O2
_symmetry_space_group_name_H-M   'P 1'
_cell_length_a   5.63031912
_cell_length_b   5.74036598
_cell_length_c   6.19913578
_cell_angle_alpha   90.00000000
_cell_angle_beta   90.00000000
_cell_angle_gamma   90.00000000
_symmetry_Int_Tables_number   1
_chemical_formula_structural   Na3Li3NdH5O2
_chemical_formula_sum   'Na3 Li3 Nd1 H5 O2'
_cell_volume   200.35664082
_cell_formula_units_Z   1
loop_
 _symmetry_equiv_pos_site_id
 _symmetry_equiv_pos_as_xyz
  1  'x, y, z'
loop_
 _atom_site_type_symbol
 _atom_site_label
 _atom_site_symmetry_multiplicity
 _atom_site_fract_x
 _atom_site_fract_y
 _atom_site_fract_z
 _atom_site_occupancy
  Na  Na0  1  0.89368298  0.50000000  0.50000002  1
  Nd  Nd1  1  0.10631700  0.00000000  0.00000000  1
  Na  Na2  1  0.36486099  0.50000000  0.76900003  1
  Na  Na3  1  0.36486099  0.50000000  0.23100001  1
  Li  Li4  1  0.63513899  0.00000000  0.73100003  1
  Li  Li5  1  0.63513899  0.00000000  0.26900001  1
  H  H6  1  0.78659698  0.50000000  0.00000000  1
  Li  Li7  1  0.21340300  0.00000000  0.50000002  1
  H  H8  1  0.65600399  0.29063400  0.00000000  1
  H  H9  1  0.34399599  0.20936600  0.50000002  1
  H  H10  1  0.03364500  0.50000000  0.00000000  1
  O  O11  1  0.96635498  0.00000000  0.50000002  1
  O  O12  1  0.34399599  0.79063400  0.50000002  1
  H  H13  1  0.65600399  0.70936600  0.00000000  1
