# generated using pymatgen
data_H2O2
_symmetry_space_group_name_H-M   'P 1'
_cell_length_a   2.51070595
_cell_length_b   2.51264262
_cell_length_c   3.71713305
_cell_angle_alpha   80.28600311
_cell_angle_beta   70.26193237
_cell_angle_gamma   60.02549362
_symmetry_Int_Tables_number   1
_chemical_formula_structural   H2O2
_chemical_formula_sum   'H1 O1'
_cell_volume   19.11965864
_cell_formula_units_Z   0
loop_
 _symmetry_equiv_pos_site_id
 _symmetry_equiv_pos_as_xyz
  1  'x, y, z'
loop_
 _atom_site_type_symbol
 _atom_site_label
 _atom_site_symmetry_multiplicity
 _atom_site_fract_x
 _atom_site_fract_y
 _atom_site_fract_z
 _atom_site_occupancy
  O  O0  1  0.00017502  0.99964994  0.00000004  1
  H  H1  1  0.66652501  0.66694996  0.00000005  1
