# generated using pymatgen
data_SrLi2VO5
_symmetry_space_group_name_H-M   'P 1'
_cell_length_a   5.66666412
_cell_length_b   6.75307178
_cell_length_c   6.75307178
_cell_angle_alpha   90.00000000
_cell_angle_beta   90.00000000
_cell_angle_gamma   90.00000000
_symmetry_Int_Tables_number   1
_chemical_formula_structural   SrLi2VO5
_chemical_formula_sum   'Sr2 Li4 V2 O10'
_cell_volume   258.42242904
_cell_formula_units_Z   2
loop_
 _symmetry_equiv_pos_site_id
 _symmetry_equiv_pos_as_xyz
  1  'x, y, z'
loop_
 _atom_site_type_symbol
 _atom_site_label
 _atom_site_symmetry_multiplicity
 _atom_site_fract_x
 _atom_site_fract_y
 _atom_site_fract_z
 _atom_site_occupancy
  Sr  Sr0  1  0.49999999  0.73803202  0.10759200  1
  Sr  Sr1  1  0.00000000  0.89240803  0.73803202  1
  Li  Li2  1  0.49999999  0.26196801  0.89240803  1
  Li  Li3  1  0.00000000  0.10759200  0.26196801  1
  Li  Li4  1  0.00000000  0.59459802  0.30899001  1
  V  V5  1  0.49999999  0.30899001  0.40540201  1
  V  V6  1  0.00000000  0.40540201  0.69101002  1
  Li  Li7  1  0.49999999  0.69101002  0.59459802  1
  O  O8  1  0.25743799  0.59662302  0.80070803  1
  O  O9  1  0.75743798  0.80070803  0.40337701  1
  O  O10  1  0.74256198  0.40337701  0.19929201  1
  O  O11  1  0.25743799  0.40337701  0.19929201  1
  O  O12  1  0.74999998  0.00000000  0.00000000  1
  O  O13  1  0.75743798  0.19929201  0.59662302  1
  O  O14  1  0.24256199  0.19929201  0.59662302  1
  O  O15  1  0.74256198  0.59662302  0.80070803  1
  O  O16  1  0.24999999  0.00000000  0.00000000  1
  O  O17  1  0.24256199  0.80070803  0.40337701  1
