# generated using pymatgen
data_K3RbS(BrCl2)5
_symmetry_space_group_name_H-M   'P 1'
_cell_length_a   8.31728268
_cell_length_b   8.31728268
_cell_length_c   9.21522427
_cell_angle_alpha   82.13720703
_cell_angle_beta   82.13720703
_cell_angle_gamma   61.45147705
_symmetry_Int_Tables_number   1
_chemical_formula_structural   K3RbS(BrCl2)5
_chemical_formula_sum   'K3 Rb1 S1 Br5 Cl10'
_cell_volume   552.83706915
_cell_formula_units_Z   1
loop_
 _symmetry_equiv_pos_site_id
 _symmetry_equiv_pos_as_xyz
  1  'x, y, z'
loop_
 _atom_site_type_symbol
 _atom_site_label
 _atom_site_symmetry_multiplicity
 _atom_site_fract_x
 _atom_site_fract_y
 _atom_site_fract_z
 _atom_site_occupancy
  K  K0  1  0.26747199  0.77556400  0.24249694  1
  K  K1  1  0.22443599  0.73252800  0.75750294  1
  K  K2  1  0.73252799  0.22443600  0.75750294  1
  Rb  Rb3  1  0.77556399  0.26747200  0.24249694  1
  Br  Br4  1  0.72358899  0.72358900  0.95340791  1
  Br  Br5  1  0.27641100  0.27641100  0.04659197  1
  Br  Br6  1  0.21728700  0.21728700  0.50975097  1
  Br  Br7  1  0.78271299  0.78271300  0.49024891  1
  S  S8  1  0.95989299  0.95989300  0.39109490  1
  Cl  Cl9  1  0.04010700  0.04010700  0.60890498  1
  Cl  Cl10  1  0.55431999  0.55432000  0.09052094  1
  Cl  Cl11  1  0.44567999  0.44568000  0.90947894  1
  Cl  Cl12  1  0.44770700  0.00831900  0.26119297  1
  Br  Br13  1  0.99168099  0.55229300  0.73880691  1
  Cl  Cl14  1  0.55229299  0.99168100  0.73880691  1
  Cl  Cl15  1  0.00831900  0.44770700  0.26119297  1
  Cl  Cl16  1  0.11103300  0.11103300  0.99047297  1
  Cl  Cl17  1  0.88896699  0.88896700  0.00952691  1
  Cl  Cl18  1  0.61071599  0.61071600  0.51989993  1
  Cl  Cl19  1  0.38928399  0.38928400  0.48009995  1
