# generated using pymatgen
data_Li6VO11
_symmetry_space_group_name_H-M   'P 1'
_cell_length_a   4.69112015
_cell_length_b   5.55330658
_cell_length_c   7.50442219
_cell_angle_alpha   96.10260010
_cell_angle_beta   89.73226166
_cell_angle_gamma   89.70752716
_symmetry_Int_Tables_number   1
_chemical_formula_structural   Li6VO11
_chemical_formula_sum   'Li6 V1 O11'
_cell_volume   194.38633788
_cell_formula_units_Z   1
loop_
 _symmetry_equiv_pos_site_id
 _symmetry_equiv_pos_as_xyz
  1  'x, y, z'
loop_
 _atom_site_type_symbol
 _atom_site_label
 _atom_site_symmetry_multiplicity
 _atom_site_fract_x
 _atom_site_fract_y
 _atom_site_fract_z
 _atom_site_occupancy
  Li  Li0  1  0.46830497  0.15184799  0.65535200  1
  Li  Li1  1  0.49741394  0.51698298  0.00481701  1
  Li  Li2  1  0.50230591  0.83312097  0.33722703  1
  Li  Li3  1  0.00811794  0.68105098  0.67303304  1
  Li  Li4  1  0.00743697  0.32646199  0.31422702  1
  Li  Li5  1  0.01705992  0.99176697  0.00867305  1
  V  V6  1  0.17932394  0.62736798  0.44318003  1
  O  O7  1  0.20526197  0.30830299  0.10114101  1
  O  O8  1  0.20093891  0.96455997  0.76504505  1
  O  O9  1  0.30350092  0.79873197  0.09875503  1
  O  O10  1  0.31916295  0.45760898  0.77012902  1
  O  O11  1  0.28886998  0.13931500  0.43496700  1
  O  O12  1  0.69715490  0.88228597  0.58001802  1
  O  O13  1  0.69997293  0.52368698  0.21925800  1
  O  O14  1  0.79814897  0.04095700  0.24152698  1
  O  O15  1  0.80889392  0.69175398  0.89041101  1
  O  O16  1  0.70323396  0.19790499  0.89728499  1
  O  O17  1  0.79489694  0.36629199  0.56495100  1
