# generated using pymatgen
data_KSr2Bi(PbO3)4
_symmetry_space_group_name_H-M   'P 1'
_cell_length_a   5.88932514
_cell_length_b   5.92742014
_cell_length_c   8.35430908
_cell_angle_alpha   90.00000000
_cell_angle_beta   90.00000000
_cell_angle_gamma   90.00000000
_symmetry_Int_Tables_number   1
_chemical_formula_structural   KSr2Bi(PbO3)4
_chemical_formula_sum   'K1 Sr2 Bi1 Pb4 O12'
_cell_volume   291.63643579
_cell_formula_units_Z   1
loop_
 _symmetry_equiv_pos_site_id
 _symmetry_equiv_pos_as_xyz
  1  'x, y, z'
loop_
 _atom_site_type_symbol
 _atom_site_label
 _atom_site_symmetry_multiplicity
 _atom_site_fract_x
 _atom_site_fract_y
 _atom_site_fract_z
 _atom_site_occupancy
  Sr  Sr0  1  0.00000000  0.00000000  0.00000000  1
  Sr  Sr1  1  0.00000000  0.00000000  0.50000000  1
  Bi  Bi2  1  0.49999999  0.49999999  -0.00000000  1
  K  K3  1  0.49999999  0.49999999  0.50000000  1
  Pb  Pb4  1  0.00692700  0.52386199  0.25000000  1
  Pb  Pb5  1  0.49307299  0.02386200  0.25000000  1
  Pb  Pb6  1  0.50692699  0.97613798  0.74999999  1
  Pb  Pb7  1  0.99307298  0.47613799  0.74999999  1
  O  O8  1  0.07722900  0.01578200  0.74999999  1
  O  O9  1  0.21150899  0.28751199  0.04019200  1
  O  O10  1  0.21150899  0.28751199  0.45980800  1
  O  O11  1  0.28849099  0.78751198  0.04019200  1
  O  O12  1  0.28849099  0.78751198  0.45980800  1
  O  O13  1  0.42277099  0.51578199  0.74999999  1
  O  O14  1  0.57722899  0.48421799  0.25000000  1
  O  O15  1  0.71150898  0.21248800  0.54019199  1
  O  O16  1  0.71150898  0.21248800  0.95980799  1
  O  O17  1  0.78849098  0.71248798  0.54019199  1
  O  O18  1  0.78849098  0.71248798  0.95980799  1
  O  O19  1  0.92277098  0.98421798  0.25000000  1
