# generated using pymatgen
data_Ag5Se2S9
_symmetry_space_group_name_H-M   'P 1'
_cell_length_a   3.81916189
_cell_length_b   7.77366209
_cell_length_c   12.76520348
_cell_angle_alpha   101.95367432
_cell_angle_beta   90.00000000
_cell_angle_gamma   90.00000000
_symmetry_Int_Tables_number   1
_chemical_formula_structural   Ag5Se2S9
_chemical_formula_sum   'Ag5 Se2 S9'
_cell_volume   370.76638444
_cell_formula_units_Z   1
loop_
 _symmetry_equiv_pos_site_id
 _symmetry_equiv_pos_as_xyz
  1  'x, y, z'
loop_
 _atom_site_type_symbol
 _atom_site_label
 _atom_site_symmetry_multiplicity
 _atom_site_fract_x
 _atom_site_fract_y
 _atom_site_fract_z
 _atom_site_occupancy
  Ag  Ag0  1  0.50000001  0.83379398  0.65936299  1
  Ag  Ag1  1  0.50000001  0.16620600  0.34063700  1
  Ag  Ag2  1  -0.00000000  0.74596299  0.15122299  1
  Ag  Ag3  1  -0.00000000  0.25403700  0.84877700  1
  Ag  Ag4  1  0.50000001  0.24970200  0.14877500  1
  Se  Se5  1  0.50000001  0.75029799  0.85122499  1
  Se  Se6  1  1.00000003  0.04466100  0.10593000  1
  S  S7  1  1.00000003  0.95533898  0.89406999  1
  S  S8  1  1.00000003  0.53913599  0.77991000  1
  S  S9  1  -0.00000000  0.46086399  0.22008999  1
  S  S10  1  0.50000001  0.33314599  0.97238800  1
  S  S11  1  0.50000001  0.66685399  0.02761199  1
  S  S12  1  0.50000001  0.81091099  0.28481999  1
  S  S13  1  0.50000001  0.18908900  0.71518000  1
  S  S14  1  1.00000003  0.75222699  0.52486199  1
  S  S15  1  1.00000003  0.24777300  0.47513800  1
