# generated using pymatgen
data_Li7SiPN5
_symmetry_space_group_name_H-M   'P 1'
_cell_length_a   5.80591536
_cell_length_b   5.80591536
_cell_length_c   5.80591536
_cell_angle_alpha   60.00000000
_cell_angle_beta   60.00000000
_cell_angle_gamma   60.00000000
_symmetry_Int_Tables_number   1
_chemical_formula_structural   Li7SiPN5
_chemical_formula_sum   'Li7 Si1 P1 N5'
_cell_volume   138.38757594
_cell_formula_units_Z   1
loop_
 _symmetry_equiv_pos_site_id
 _symmetry_equiv_pos_as_xyz
  1  'x, y, z'
loop_
 _atom_site_type_symbol
 _atom_site_label
 _atom_site_symmetry_multiplicity
 _atom_site_fract_x
 _atom_site_fract_y
 _atom_site_fract_z
 _atom_site_occupancy
  Li  Li0  1  0.37499999  0.87499998  0.37499999  1
  Li  Li1  1  0.87499998  0.37499999  0.37499999  1
  Li  Li2  1  0.37499999  0.37499999  0.37499999  1
  Li  Li3  1  0.37499999  0.37499999  0.87499998  1
  Li  Li4  1  0.00000000  0.00000000  0.00000000  1
  Li  Li5  1  0.74999998  0.74999998  0.74999998  1
  Li  Li6  1  0.64840298  0.11719900  0.11719900  1
  N  N7  1  0.11719900  0.11719900  0.64840298  1
  N  N8  1  0.10159700  0.63280098  0.63280098  1
  Si  Si9  1  0.11719900  0.64840298  0.11719900  1
  N  N10  1  0.63280098  0.63280098  0.10159700  1
  N  N11  1  0.11719900  0.11719900  0.11719900  1
  P  P12  1  0.63280098  0.10159700  0.63280098  1
  N  N13  1  0.63280098  0.63280098  0.63280098  1
