# generated using pymatgen
data_Li3FeCuSbO8
_symmetry_space_group_name_H-M   'P 1'
_cell_length_a   5.63475657
_cell_length_b   5.65895271
_cell_length_c   5.78837252
_cell_angle_alpha   60.81082916
_cell_angle_beta   60.93344116
_cell_angle_gamma   90.12224579
_symmetry_Int_Tables_number   1
_chemical_formula_structural   Li3FeCuSbO8
_chemical_formula_sum   'Li3 Fe1 Cu1 Sb1 O8'
_cell_volume   133.74997297
_cell_formula_units_Z   1
loop_
 _symmetry_equiv_pos_site_id
 _symmetry_equiv_pos_as_xyz
  1  'x, y, z'
loop_
 _atom_site_type_symbol
 _atom_site_label
 _atom_site_symmetry_multiplicity
 _atom_site_fract_x
 _atom_site_fract_y
 _atom_site_fract_z
 _atom_site_occupancy
  Li  Li0  1  0.88685004  0.63666803  0.22653597  1
  Sb  Sb1  1  0.11314402  0.36331602  0.77349801  1
  Li  Li2  1  0.50004803  0.50011502  0.99995600  1
  Li  Li3  1  0.50009600  0.00004300  0.50007700  1
  Cu  Cu4  1  0.50002005  0.99996904  0.99993500  1
  Fe  Fe5  1  0.99981701  0.00002000  0.50011899  1
  O  O6  1  0.69870802  0.22468701  0.05162598  1
  O  O7  1  0.25051004  0.78053703  0.49793300  1
  O  O8  1  0.30130104  0.77530203  0.94836100  1
  O  O9  1  0.75017004  0.77622203  0.94841399  1
  O  O10  1  0.74948002  0.21934101  0.50205699  1
  O  O11  1  0.74859404  0.77865803  0.50178698  1
  O  O12  1  0.24982601  0.22380001  0.05153399  1
  O  O13  1  0.25143601  0.22131801  0.49816600  1
