# generated using pymatgen
data_Na3LuCu2SeS7
_symmetry_space_group_name_H-M   'P 1'
_cell_length_a   8.32611465
_cell_length_b   8.32611465
_cell_length_c   8.32611465
_cell_angle_alpha   60.00000000
_cell_angle_beta   60.00000000
_cell_angle_gamma   60.00000000
_symmetry_Int_Tables_number   1
_chemical_formula_structural   Na3LuCu2SeS7
_chemical_formula_sum   'Na3 Lu1 Cu2 Se1 S7'
_cell_volume   408.14282227
_cell_formula_units_Z   1
loop_
 _symmetry_equiv_pos_site_id
 _symmetry_equiv_pos_as_xyz
  1  'x, y, z'
loop_
 _atom_site_type_symbol
 _atom_site_label
 _atom_site_symmetry_multiplicity
 _atom_site_fract_x
 _atom_site_fract_y
 _atom_site_fract_z
 _atom_site_occupancy
  Na  Na0  1  0.37499999  0.87499998  0.37499999  1
  Na  Na1  1  0.37499999  0.37499999  0.37499999  1
  Na  Na2  1  0.37499999  0.37499999  0.87499998  1
  Lu  Lu3  1  0.87499998  0.37499999  0.37499999  1
  Cu  Cu4  1  0.00000000  0.00000000  0.00000000  1
  Cu  Cu5  1  0.74999998  0.74999998  0.74999998  1
  Se  Se6  1  0.61773799  0.61773899  0.61773899  1
  S  S7  1  0.13226200  0.60321599  0.13226100  1
  S  S8  1  0.60321699  0.13226100  0.13226100  1
  S  S9  1  0.13226200  0.13226100  0.60321599  1
  S  S10  1  0.14678300  0.61773899  0.61773899  1
  S  S11  1  0.61773799  0.61773899  0.14678400  1
  S  S12  1  0.13226200  0.13226100  0.13226100  1
  S  S13  1  0.61773799  0.14678400  0.61773899  1
