# generated using pymatgen
data_K3LaAgHg(Se2S5)2
_symmetry_space_group_name_H-M   'P 1'
_cell_length_a   7.31541300
_cell_length_b   7.76356697
_cell_length_c   10.99001789
_cell_angle_alpha   90.00000000
_cell_angle_beta   89.74240112
_cell_angle_gamma   90.00000000
_symmetry_Int_Tables_number   1
_chemical_formula_structural   K3LaAgHg(Se2S5)2
_chemical_formula_sum   'K3 La1 Ag1 Hg1 Se4 S10'
_cell_volume   624.15745687
_cell_formula_units_Z   1
loop_
 _symmetry_equiv_pos_site_id
 _symmetry_equiv_pos_as_xyz
  1  'x, y, z'
loop_
 _atom_site_type_symbol
 _atom_site_label
 _atom_site_symmetry_multiplicity
 _atom_site_fract_x
 _atom_site_fract_y
 _atom_site_fract_z
 _atom_site_occupancy
  K  K0  1  0.97522600  0.91936200  0.73334505  1
  K  K1  1  0.02477400  0.08063800  0.26665501  1
  La  La2  1  0.47522600  0.58063800  0.23334502  1
  K  K3  1  0.50000000  0.00000000  0.00000002  1
  Ag  Ag4  1  0.00000000  0.50000000  0.50000001  1
  Hg  Hg5  1  0.52477400  0.41936200  0.76665503  1
  Se  Se6  1  0.00000000  0.50000000  -0.00000000  1
  Se  Se7  1  0.50000000  0.00000000  0.50000003  1
  Se  Se8  1  0.18071800  0.81881000  0.43390601  1
  Se  Se9  1  0.31928200  0.31881000  0.06609401  1
  S  S10  1  0.13895300  0.56513600  0.76135802  1
  S  S11  1  0.82902600  0.19101200  0.91974605  1
  S  S12  1  0.68071800  0.68119000  0.93390604  1
  S  S13  1  0.67097400  0.69101200  0.58025403  1
  S  S14  1  0.86104700  0.43486400  0.23864204  1
  S  S15  1  0.32902600  0.30898800  0.41974602  1
  S  S16  1  0.17097400  0.80898800  0.08025401  1
  S  S17  1  0.36104700  0.06513600  0.73864203  1
  S  S18  1  0.81928200  0.18119000  0.56609404  1
  S  S19  1  0.63895300  0.93486400  0.26135803  1
