# generated using pymatgen
data_Li3AlB2HN9
_symmetry_space_group_name_H-M   'P 1'
_cell_length_a   5.59532547
_cell_length_b   5.59532547
_cell_length_c   6.95523930
_cell_angle_alpha   102.39024353
_cell_angle_beta   102.39024353
_cell_angle_gamma   99.99232483
_symmetry_Int_Tables_number   1
_chemical_formula_structural   Li3AlB2HN9
_chemical_formula_sum   'Li3 Al1 B2 H1 N9'
_cell_volume   202.15051966
_cell_formula_units_Z   1
loop_
 _symmetry_equiv_pos_site_id
 _symmetry_equiv_pos_as_xyz
  1  'x, y, z'
loop_
 _atom_site_type_symbol
 _atom_site_label
 _atom_site_symmetry_multiplicity
 _atom_site_fract_x
 _atom_site_fract_y
 _atom_site_fract_z
 _atom_site_occupancy
  Li  Li0  1  0.34971892  0.65028095  0.74999995  1
  Li  Li1  1  0.65028093  0.34971897  0.24999994  1
  Al  Al2  1  0.00000000  0.00000000  0.50000001  1
  Li  Li3  1  0.00000000  0.00000000  0.00000000  1
  B  B4  1  0.69645393  0.30354598  0.74999996  1
  B  B5  1  0.30354592  0.69645395  0.24999994  1
  N  N6  1  0.90158392  0.30271298  0.63858794  1
  N  N7  1  0.69728695  0.09841599  0.86141197  1
  N  N8  1  0.09841593  0.69728695  0.36141195  1
  N  N9  1  0.30271290  0.90158393  0.13858792  1
  N  N10  1  0.44994295  0.25433398  0.60254097  1
  N  N11  1  0.74566591  0.55005696  0.89745894  1
  N  N12  1  0.55005690  0.74566594  0.39745892  1
  N  N13  1  0.25433394  0.44994296  0.10254096  1
  N  N14  1  0.09324991  0.90674993  0.74999994  1
  H  H15  1  0.90674994  0.09324999  0.24999995  1
