# generated using pymatgen
data_AlP5H4O5
_symmetry_space_group_name_H-M   'P 1'
_cell_length_a   5.93476582
_cell_length_b   5.93476582
_cell_length_c   5.93476582
_cell_angle_alpha   67.84337616
_cell_angle_beta   67.84337616
_cell_angle_gamma   67.84337616
_symmetry_Int_Tables_number   1
_chemical_formula_structural   AlP5H4O5
_chemical_formula_sum   'Al1 P5 H4 O5'
_cell_volume   172.44506606
_cell_formula_units_Z   1
loop_
 _symmetry_equiv_pos_site_id
 _symmetry_equiv_pos_as_xyz
  1  'x, y, z'
loop_
 _atom_site_type_symbol
 _atom_site_label
 _atom_site_symmetry_multiplicity
 _atom_site_fract_x
 _atom_site_fract_y
 _atom_site_fract_z
 _atom_site_occupancy
  H  H0  1  0.38275698  0.38275700  0.38275696  1
  Al  Al1  1  0.61724297  0.61724300  0.61724293  1
  P  P2  1  0.00000000  0.00000000  0.00000000  1
  H  H3  1  0.16505397  0.91143700  0.54683594  1
  H  H4  1  0.91143697  0.54683600  0.16505393  1
  H  H5  1  0.54683599  0.16505400  0.91143694  1
  P  P6  1  0.83494599  0.08856300  0.45316395  1
  P  P7  1  0.08856299  0.45316400  0.83494596  1
  P  P8  1  0.45316397  0.83494600  0.08856295  1
  P  P9  1  0.82516197  0.70810200  0.20603593  1
  O  O10  1  0.70810199  0.20603600  0.82516194  1
  O  O11  1  0.20603597  0.82516200  0.70810194  1
  O  O12  1  0.17483799  0.29189800  0.79396396  1
  O  O13  1  0.29189797  0.79396400  0.17483795  1
  O  O14  1  0.79396399  0.17483800  0.29189795  1
