# generated using pymatgen
data_Na2SrAlSiGe(HO5)2
_symmetry_space_group_name_H-M   'P 1'
_cell_length_a   6.39992046
_cell_length_b   6.60975742
_cell_length_c   8.40517235
_cell_angle_alpha   74.93097687
_cell_angle_beta   70.75694275
_cell_angle_gamma   80.64760590
_symmetry_Int_Tables_number   1
_chemical_formula_structural   Na2SrAlSiGe(HO5)2
_chemical_formula_sum   'Na2 Sr1 Al1 Si1 Ge1 H2 O10'
_cell_volume   322.99357881
_cell_formula_units_Z   1
loop_
 _symmetry_equiv_pos_site_id
 _symmetry_equiv_pos_as_xyz
  1  'x, y, z'
loop_
 _atom_site_type_symbol
 _atom_site_label
 _atom_site_symmetry_multiplicity
 _atom_site_fract_x
 _atom_site_fract_y
 _atom_site_fract_z
 _atom_site_occupancy
  Sr  Sr0  1  0.67957402  0.18892800  0.31821196  1
  Na  Na1  1  0.32042597  0.81107200  0.68178799  1
  Na  Na2  1  0.71947299  0.77067000  0.03923600  1
  Al  Al3  1  0.28052700  0.22933000  0.96076395  1
  Si  Si4  1  0.11912397  0.63771800  0.26945501  1
  Ge  Ge5  1  0.88087602  0.36228200  0.73054494  1
  H  H6  1  0.27542199  0.50117700  0.47235399  1
  H  H7  1  0.72457801  0.49882300  0.52764597  1
  O  O8  1  0.90617901  0.69189600  0.58471996  1
  O  O9  1  0.09382099  0.30810400  0.41527999  1
  O  O10  1  0.31885698  0.61945400  0.36931300  1
  O  O11  1  0.68114301  0.38054600  0.63068696  1
  O  O12  1  0.09707098  0.37597400  0.29090200  1
  O  O13  1  0.90292901  0.62402600  0.70909795  1
  O  O14  1  0.88323600  0.73578700  0.38385798  1
  O  O15  1  0.11676399  0.26421300  0.61614198  1
  O  O16  1  0.21025697  0.74948700  0.06837102  1
  O  O17  1  0.78974303  0.25051300  0.93162893  1
