# generated using pymatgen
data_NaLi(SiO4)2
_symmetry_space_group_name_H-M   'P 1'
_cell_length_a   4.91594601
_cell_length_b   4.91594505
_cell_length_c   8.59031773
_cell_angle_alpha   90.00000000
_cell_angle_beta   90.00000000
_cell_angle_gamma   120.00000763
_symmetry_Int_Tables_number   1
_chemical_formula_structural   NaLi(SiO4)2
_chemical_formula_sum   'Na1 Li1 Si2 O8'
_cell_volume   179.78520505
_cell_formula_units_Z   1
loop_
 _symmetry_equiv_pos_site_id
 _symmetry_equiv_pos_as_xyz
  1  'x, y, z'
loop_
 _atom_site_type_symbol
 _atom_site_label
 _atom_site_symmetry_multiplicity
 _atom_site_fract_x
 _atom_site_fract_y
 _atom_site_fract_z
 _atom_site_occupancy
  Na  Na0  1  0.00000000  0.00000000  0.50000002  1
  Li  Li1  1  0.00000000  0.00000000  0.00000000  1
  Si  Si2  1  0.66666667  0.33333334  0.79573603  1
  Si  Si3  1  0.33333335  0.66666667  0.20426401  1
  O  O4  1  0.91018100  0.26015300  0.85258803  1
  O  O5  1  0.34997200  0.08982000  0.85258803  1
  O  O6  1  0.65002802  0.73984700  0.14741200  1
  O  O7  1  0.73984801  0.65002900  0.85258803  1
  O  O8  1  0.26015202  0.91018001  0.14741200  1
  O  O9  1  0.08981901  0.34997100  0.14741200  1
  O  O10  1  0.66666667  0.33333334  0.62488902  1
  O  O11  1  0.33333335  0.66666667  0.37511101  1
