# generated using pymatgen
data_KRbBr2Cl7O
_symmetry_space_group_name_H-M   'P 1'
_cell_length_a   6.38663483
_cell_length_b   6.38663483
_cell_length_c   8.24346542
_cell_angle_alpha   90.00000000
_cell_angle_beta   90.00000000
_cell_angle_gamma   90.00000000
_symmetry_Int_Tables_number   1
_chemical_formula_structural   KRbBr2Cl7O
_chemical_formula_sum   'Rb1 K1 Br2 Cl7 O1'
_cell_volume   336.24357186
_cell_formula_units_Z   1
loop_
 _symmetry_equiv_pos_site_id
 _symmetry_equiv_pos_as_xyz
  1  'x, y, z'
loop_
 _atom_site_type_symbol
 _atom_site_label
 _atom_site_symmetry_multiplicity
 _atom_site_fract_x
 _atom_site_fract_y
 _atom_site_fract_z
 _atom_site_occupancy
  Rb  Rb0  1  0.00000000  0.00000000  0.26331599  1
  K  K1  1  0.00000000  0.00000000  0.73668396  1
  Br  Br2  1  0.50000001  0.50000001  0.73668396  1
  Br  Br3  1  0.50000001  0.50000001  0.26331599  1
  Cl  Cl4  1  0.50000001  0.00000000  0.00000000  1
  Cl  Cl5  1  0.00000000  0.50000001  -0.00000000  1
  Cl  Cl6  1  0.86837902  0.36837901  0.49999997  1
  Cl  Cl7  1  0.63162102  0.86837902  0.49999997  1
  Cl  Cl8  1  0.36837901  0.13162100  0.49999997  1
  Cl  Cl9  1  0.13162100  0.63162102  0.49999997  1
  Cl  Cl10  1  0.00000000  0.50000001  0.49999997  1
  O  O11  1  0.50000001  0.00000000  0.49999997  1
