# generated using pymatgen
data_Li8VTeO9
_symmetry_space_group_name_H-M   'P 1'
_cell_length_a   5.71613121
_cell_length_b   6.06456232
_cell_length_c   6.38520622
_cell_angle_alpha   100.63083649
_cell_angle_beta   100.58811188
_cell_angle_gamma   97.22386169
_symmetry_Int_Tables_number   1
_chemical_formula_structural   Li8VTeO9
_chemical_formula_sum   'Li8 V1 Te1 O9'
_cell_volume   210.90536234
_cell_formula_units_Z   1
loop_
 _symmetry_equiv_pos_site_id
 _symmetry_equiv_pos_as_xyz
  1  'x, y, z'
loop_
 _atom_site_type_symbol
 _atom_site_label
 _atom_site_symmetry_multiplicity
 _atom_site_fract_x
 _atom_site_fract_y
 _atom_site_fract_z
 _atom_site_occupancy
  Li  Li0  1  0.86667101  0.65847799  0.44339899  1
  Li  Li1  1  0.39907401  0.85576199  0.68241499  1
  Li  Li2  1  0.68448901  0.39782500  0.85220600  1
  Li  Li3  1  0.15948101  0.36989200  0.61971200  1
  Li  Li4  1  0.30437501  0.62052999  0.13833198  1
  Li  Li5  1  0.58410001  0.14147200  0.33854600  1
  Li  Li6  1  0.00840001  0.99647399  0.98750798  1
  Li  Li7  1  0.32503502  0.94932999  0.12094997  1
  Te  Te8  1  0.93907602  0.67119599  0.03609198  1
  V  V9  1  0.90592801  0.10235100  0.26943401  1
  O  O10  1  0.56641701  0.41837700  0.19765599  1
  O  O11  1  0.59024702  0.82134199  0.41020598  1
  O  O12  1  0.81396301  0.38859500  0.58251300  1
  O  O13  1  0.18155301  0.57504299  0.40191599  1
  O  O14  1  0.68715301  0.05559600  0.86421801  1
  O  O15  1  0.38573400  0.18027800  0.55367300  1
  O  O16  1  0.42026101  0.59819799  0.84747200  1
  O  O17  1  0.05656601  0.88259899  0.69724698  1
  O  O18  1  0.12147501  0.31666200  0.95650601  1
