# generated using pymatgen
data_RbSbI4
_symmetry_space_group_name_H-M   'P 1'
_cell_length_a   6.07073593
_cell_length_b   6.07073641
_cell_length_c   8.21441078
_cell_angle_alpha   90.00000000
_cell_angle_beta   90.00000000
_cell_angle_gamma   120.00000000
_symmetry_Int_Tables_number   1
_chemical_formula_structural   RbSbI4
_chemical_formula_sum   'Rb1 Sb1 I4'
_cell_volume   262.17408863
_cell_formula_units_Z   1
loop_
 _symmetry_equiv_pos_site_id
 _symmetry_equiv_pos_as_xyz
  1  'x, y, z'
loop_
 _atom_site_type_symbol
 _atom_site_label
 _atom_site_symmetry_multiplicity
 _atom_site_fract_x
 _atom_site_fract_y
 _atom_site_fract_z
 _atom_site_occupancy
  Rb  Rb0  1  0.00000000  0.00000000  0.50000001  1
  Sb  Sb1  1  0.00000000  0.00000000  0.00000000  1
  I  I2  1  0.66666669  0.33333334  0.25000001  1
  I  I3  1  0.33333336  0.66666667  0.75000002  1
  I  I4  1  0.66666669  0.33333334  0.75000002  1
  I  I5  1  0.33333336  0.66666667  0.25000001  1
