# generated using pymatgen
data_LiPrAl2Si3O11
_symmetry_space_group_name_H-M   'P 1'
_cell_length_a   4.87450886
_cell_length_b   6.08470011
_cell_length_c   8.30369282
_cell_angle_alpha   93.43806458
_cell_angle_beta   90.00000000
_cell_angle_gamma   90.00000000
_symmetry_Int_Tables_number   1
_chemical_formula_structural   LiPrAl2Si3O11
_chemical_formula_sum   'Li1 Pr1 Al2 Si3 O11'
_cell_volume   245.84363727
_cell_formula_units_Z   1
loop_
 _symmetry_equiv_pos_site_id
 _symmetry_equiv_pos_as_xyz
  1  'x, y, z'
loop_
 _atom_site_type_symbol
 _atom_site_label
 _atom_site_symmetry_multiplicity
 _atom_site_fract_x
 _atom_site_fract_y
 _atom_site_fract_z
 _atom_site_occupancy
  Pr  Pr0  1  0.68654002  0.97057598  0.31377998  1
  Li  Li1  1  0.18654001  0.02942400  0.68622001  1
  Al  Al2  1  0.70077202  0.87040298  0.90561699  1
  Al  Al3  1  0.20077201  0.12959700  0.09438300  1
  Si  Si4  1  0.22018401  0.63011099  0.06421998  1
  Si  Si5  1  0.13547100  0.44085099  0.39382999  1
  Si  Si6  1  0.63547102  0.55914899  0.60616999  1
  O  O7  1  0.72018402  0.36988899  0.93578000  1
  O  O8  1  0.34740501  0.85352198  0.00828598  1
  O  O9  1  0.19146701  0.19271300  0.32864200  1
  O  O10  1  0.39783901  0.40637099  0.00099699  1
  O  O11  1  0.80704302  0.48142599  0.44031099  1
  O  O12  1  0.70658102  0.37002299  0.73712600  1
  O  O13  1  0.20658101  0.62997699  0.26287399  1
  O  O14  1  0.89783903  0.59362899  0.99900300  1
  O  O15  1  0.30704301  0.51857399  0.55968899  1
  O  O16  1  0.69146702  0.80728698  0.67135799  1
  O  O17  1  0.84740502  0.14647800  0.99171401  1
