# generated using pymatgen
data_Li4FeNO8
_symmetry_space_group_name_H-M   'P 1'
_cell_length_a   4.72427797
_cell_length_b   5.39244699
_cell_length_c   6.47206068
_cell_angle_alpha   102.68762207
_cell_angle_beta   111.40602875
_cell_angle_gamma   90.00000000
_symmetry_Int_Tables_number   1
_chemical_formula_structural   Li4FeNO8
_chemical_formula_sum   'Li4 Fe1 N1 O8'
_cell_volume   149.17206339
_cell_formula_units_Z   1
loop_
 _symmetry_equiv_pos_site_id
 _symmetry_equiv_pos_as_xyz
  1  'x, y, z'
loop_
 _atom_site_type_symbol
 _atom_site_label
 _atom_site_symmetry_multiplicity
 _atom_site_fract_x
 _atom_site_fract_y
 _atom_site_fract_z
 _atom_site_occupancy
  Li  Li0  1  0.09738800  0.75266301  0.71424600  1
  Li  Li1  1  0.61685799  0.25266300  0.71424597  1
  Li  Li2  1  0.90261199  0.24733700  0.28575396  1
  Li  Li3  1  0.38314199  0.74733701  0.28575400  1
  Fe  Fe4  1  0.45021299  0.51755301  0.78008098  1
  O  O5  1  0.67013199  0.98244702  0.21991899  1
  N  N6  1  0.32986799  0.01755300  0.78008097  1
  O  O7  1  0.54978699  0.48244701  0.21991899  1
  O  O8  1  0.27362300  0.13158300  0.40687799  1
  O  O9  1  0.13325500  0.63158301  0.40687800  1
  O  O10  1  0.72637699  0.86841702  0.59312198  1
  O  O11  1  0.86674499  0.36841701  0.59312196  1
  O  O12  1  0.11477100  0.75000001  0.00000001  1
  O  O13  1  0.88522899  0.25000000  -0.00000003  1
