# generated using pymatgen
data_Li5V2O7
_symmetry_space_group_name_H-M   'P 1'
_cell_length_a   5.19361115
_cell_length_b   5.19361115
_cell_length_c   7.37951183
_cell_angle_alpha   97.70913696
_cell_angle_beta   109.76170349
_cell_angle_gamma   109.20709229
_symmetry_Int_Tables_number   1
_chemical_formula_structural   Li5V2O7
_chemical_formula_sum   'Li5 V2 O7'
_cell_volume   170.02524787
_cell_formula_units_Z   1
loop_
 _symmetry_equiv_pos_site_id
 _symmetry_equiv_pos_as_xyz
  1  'x, y, z'
loop_
 _atom_site_type_symbol
 _atom_site_label
 _atom_site_symmetry_multiplicity
 _atom_site_fract_x
 _atom_site_fract_y
 _atom_site_fract_z
 _atom_site_occupancy
  Li  Li0  1  0.21277896  0.46277898  0.74999997  1
  Li  Li1  1  0.78722093  0.53722098  0.24999995  1
  Li  Li2  1  0.49999998  0.00000000  0.49999997  1
  Li  Li3  1  0.00000000  0.00000000  0.00000000  1
  V  V4  1  0.12656993  0.87656996  0.24999997  1
  Li  Li5  1  0.87342996  0.12342999  0.74999995  1
  O  O6  1  0.91185195  0.25974499  0.12533795  1
  V  V7  1  0.63440692  0.78651397  0.37466195  1
  O  O8  1  0.74341095  0.31624999  0.45153995  1
  O  O9  1  0.36470997  0.29187099  0.04845998  1
  O  O10  1  0.25658894  0.68374997  0.54845996  1
  O  O11  1  0.63528992  0.70812897  0.95153994  1
  O  O12  1  0.36559297  0.21348599  0.62533797  1
  O  O13  1  0.08814794  0.74025497  0.87466196  1
