# generated using pymatgen
data_KRb2SrTlBiSeBr6Cl
_symmetry_space_group_name_H-M   'P 1'
_cell_length_a   8.68669796
_cell_length_b   8.68669796
_cell_length_c   8.68669796
_cell_angle_alpha   107.33704376
_cell_angle_beta   110.54872894
_cell_angle_gamma   110.54872894
_symmetry_Int_Tables_number   1
_chemical_formula_structural   KRb2SrTlBiSeBr6Cl
_chemical_formula_sum   'K1 Rb2 Sr1 Tl1 Bi1 Se1 Br6 Cl1'
_cell_volume   504.07164078
_cell_formula_units_Z   1
loop_
 _symmetry_equiv_pos_site_id
 _symmetry_equiv_pos_as_xyz
  1  'x, y, z'
loop_
 _atom_site_type_symbol
 _atom_site_label
 _atom_site_symmetry_multiplicity
 _atom_site_fract_x
 _atom_site_fract_y
 _atom_site_fract_z
 _atom_site_occupancy
  Sr  Sr0  1  0.35734686  0.87499993  0.73234687  1
  K  K1  1  0.64265293  0.37499997  0.51765292  1
  Rb  Rb2  1  0.14265296  0.26765298  0.62499996  1
  Rb  Rb3  1  0.85734692  0.48234696  0.12499989  1
  Tl  Tl4  1  0.49999988  0.74999994  0.24999988  1
  Bi  Bi5  1  0.00000000  0.00000000  0.00000000  1
  Cl  Cl6  1  0.75533297  0.10024399  0.72212095  1
  Br  Br7  1  0.24466685  0.96678792  0.34491086  1
  Br  Br8  1  0.87812287  0.78321193  0.52787885  1
  Se  Se9  1  0.12187690  0.64975594  0.90508891  1
  Br  Br10  1  0.25533292  0.47212096  0.35024393  1
  Br  Br11  1  0.74466698  0.09491099  0.21678795  1
  Br  Br12  1  0.37812295  0.27787898  0.03321194  1
  Br  Br13  1  0.62187689  0.65508894  0.89975589  1
