# generated using pymatgen
data_SrO2
_symmetry_space_group_name_H-M   'P 1'
_cell_length_a   3.98287892
_cell_length_b   5.93697882
_cell_length_c   8.20815086
_cell_angle_alpha   90.00000000
_cell_angle_beta   90.00000000
_cell_angle_gamma   90.00000000
_symmetry_Int_Tables_number   1
_chemical_formula_structural   SrO2
_chemical_formula_sum   'Sr4 O8'
_cell_volume   194.09213346
_cell_formula_units_Z   4
loop_
 _symmetry_equiv_pos_site_id
 _symmetry_equiv_pos_as_xyz
  1  'x, y, z'
loop_
 _atom_site_type_symbol
 _atom_site_label
 _atom_site_symmetry_multiplicity
 _atom_site_fract_x
 _atom_site_fract_y
 _atom_site_fract_z
 _atom_site_occupancy
  Sr  Sr0  1  0.25000000  0.29533201  0.11311800  1
  Sr  Sr1  1  0.75000001  0.79533202  0.38688201  1
  Sr  Sr2  1  0.25000000  0.20466801  0.61311801  1
  Sr  Sr3  1  0.75000001  0.70466802  0.88688201  1
  O  O4  1  0.75000001  0.49023402  0.11465300  1
  O  O5  1  0.25000000  0.99023403  0.38534701  1
  O  O6  1  0.75000001  0.00976600  0.61465301  1
  O  O7  1  0.25000000  0.50976602  0.88534701  1
  O  O8  1  0.75000001  0.98114403  0.12665600  1
  O  O9  1  0.25000000  0.48114401  0.37334401  1
  O  O10  1  0.75000001  0.51885602  0.62665601  1
  O  O11  1  0.25000000  0.01885600  0.87334401  1
