# generated using pymatgen
data_NaLiCuAg3AsS5
_symmetry_space_group_name_H-M   'P 1'
_cell_length_a   4.97040319
_cell_length_b   7.14682913
_cell_length_c   7.77430820
_cell_angle_alpha   90.00000000
_cell_angle_beta   90.00000000
_cell_angle_gamma   90.00000000
_symmetry_Int_Tables_number   1
_chemical_formula_structural   NaLiCuAg3AsS5
_chemical_formula_sum   'Na1 Li1 Cu1 Ag3 As1 S5'
_cell_volume   276.16381422
_cell_formula_units_Z   1
loop_
 _symmetry_equiv_pos_site_id
 _symmetry_equiv_pos_as_xyz
  1  'x, y, z'
loop_
 _atom_site_type_symbol
 _atom_site_label
 _atom_site_symmetry_multiplicity
 _atom_site_fract_x
 _atom_site_fract_y
 _atom_site_fract_z
 _atom_site_occupancy
  Li  Li0  1  0.24999999  0.25794900  0.97378597  1
  Na  Na1  1  0.74999997  0.74205099  0.02621400  1
  Ag  Ag2  1  0.24999999  0.61384799  0.21090599  1
  Cu  Cu3  1  0.74999997  0.75794899  0.52621399  1
  Ag  Ag4  1  0.74999997  0.11384800  0.28909399  1
  Ag  Ag5  1  0.74999997  0.38615199  0.78909398  1
  S  S6  1  0.24999999  0.88615198  0.71090598  1
  S  S7  1  0.24999999  0.24205100  0.47378699  1
  S  S8  1  0.74999997  0.51513799  0.28350399  1
  As  As9  1  0.74999997  0.98486198  0.78350398  1
  S  S10  1  0.24999999  0.01513800  0.21649599  1
  S  S11  1  0.24999999  0.48486199  0.71649598  1
