# generated using pymatgen
data_LiPH2N2O
_symmetry_space_group_name_H-M   'P 1'
_cell_length_a   4.15009403
_cell_length_b   4.15009403
_cell_length_c   4.15009403
_cell_angle_alpha   90.00000000
_cell_angle_beta   90.00000000
_cell_angle_gamma   90.00000000
_symmetry_Int_Tables_number   1
_chemical_formula_structural   LiPH2N2O
_chemical_formula_sum   'Li1 P1 H2 N2 O1'
_cell_volume   71.47823352
_cell_formula_units_Z   1
loop_
 _symmetry_equiv_pos_site_id
 _symmetry_equiv_pos_as_xyz
  1  'x, y, z'
loop_
 _atom_site_type_symbol
 _atom_site_label
 _atom_site_symmetry_multiplicity
 _atom_site_fract_x
 _atom_site_fract_y
 _atom_site_fract_z
 _atom_site_occupancy
  Li  Li0  1  0.00000000  0.00000000  0.00000000  1
  H  H1  1  0.20184300  0.50000000  0.50000000  1
  H  H2  1  0.50000000  0.50000000  0.79815699  1
  P  P3  1  0.50000000  0.50000000  0.20184300  1
  N  N4  1  0.50000000  0.20184300  0.50000000  1
  O  O5  1  0.50000000  0.79815699  0.50000000  1
  N  N6  1  0.79815699  0.50000000  0.50000000  1
