# generated using pymatgen
data_Li2CuN6
_symmetry_space_group_name_H-M   'P 1'
_cell_length_a   4.37267590
_cell_length_b   5.62016010
_cell_length_c   5.62016058
_cell_angle_alpha   60.00000381
_cell_angle_beta   90.00000000
_cell_angle_gamma   90.00000000
_symmetry_Int_Tables_number   1
_chemical_formula_structural   Li2CuN6
_chemical_formula_sum   'Li2 Cu1 N6'
_cell_volume   119.61216435
_cell_formula_units_Z   1
loop_
 _symmetry_equiv_pos_site_id
 _symmetry_equiv_pos_as_xyz
  1  'x, y, z'
loop_
 _atom_site_type_symbol
 _atom_site_label
 _atom_site_symmetry_multiplicity
 _atom_site_fract_x
 _atom_site_fract_y
 _atom_site_fract_z
 _atom_site_occupancy
  Li  Li0  1  0.31313901  0.33333333  0.33333334  1
  Li  Li1  1  0.68686102  0.66666665  0.66666667  1
  Cu  Cu2  1  0.00000000  0.00000000  0.00000000  1
  N  N3  1  0.24136301  0.82939998  0.82940001  1
  N  N4  1  0.24136301  0.34119999  0.82940000  1
  N  N5  1  0.24136301  0.82939998  0.34120001  1
  N  N6  1  0.75863702  0.17060000  0.17060000  1
  N  N7  1  0.75863702  0.65879999  0.17060001  1
  N  N8  1  0.75863702  0.17060000  0.65880000  1
