# generated using pymatgen
data_Li4Cu2AsP2N4O
_symmetry_space_group_name_H-M   'P 1'
_cell_length_a   6.40616274
_cell_length_b   6.40616274
_cell_length_c   6.40616274
_cell_angle_alpha   60.00000000
_cell_angle_beta   60.00000000
_cell_angle_gamma   60.00000000
_symmetry_Int_Tables_number   1
_chemical_formula_structural   Li4Cu2AsP2N4O
_chemical_formula_sum   'Li4 Cu2 As1 P2 N4 O1'
_cell_volume   185.89979178
_cell_formula_units_Z   1
loop_
 _symmetry_equiv_pos_site_id
 _symmetry_equiv_pos_as_xyz
  1  'x, y, z'
loop_
 _atom_site_type_symbol
 _atom_site_label
 _atom_site_symmetry_multiplicity
 _atom_site_fract_x
 _atom_site_fract_y
 _atom_site_fract_z
 _atom_site_occupancy
  Li  Li0  1  0.74999998  0.74999998  0.74999998  1
  Li  Li1  1  0.00000000  0.00000000  0.00000000  1
  Li  Li2  1  0.37499999  0.37499999  0.87499998  1
  Li  Li3  1  0.87499998  0.37499999  0.37499999  1
  Cu  Cu4  1  0.37499999  0.37499999  0.37499999  1
  As  As5  1  0.37499999  0.87499998  0.37499999  1
  Cu  Cu6  1  0.60736598  0.13087800  0.13087800  1
  N  N7  1  0.61912298  0.61912198  0.14263300  1
  N  N8  1  0.61912298  0.14263300  0.61912198  1
  N  N9  1  0.61912298  0.61912198  0.61912198  1
  P  P10  1  0.13087700  0.60736698  0.13087800  1
  P  P11  1  0.13087700  0.13087800  0.13087800  1
  N  N12  1  0.14263400  0.61912198  0.61912198  1
  O  O13  1  0.13087700  0.13087800  0.60736698  1
