# generated using pymatgen
data_KCuAgTeS6
_symmetry_space_group_name_H-M   'P 1'
_cell_length_a   5.94362497
_cell_length_b   7.05616188
_cell_length_c   7.05616236
_cell_angle_alpha   60.00000000
_cell_angle_beta   90.00000000
_cell_angle_gamma   90.00000000
_symmetry_Int_Tables_number   1
_chemical_formula_structural   KCuAgTeS6
_chemical_formula_sum   'K1 Cu1 Ag1 Te1 S6'
_cell_volume   256.28260588
_cell_formula_units_Z   1
loop_
 _symmetry_equiv_pos_site_id
 _symmetry_equiv_pos_as_xyz
  1  'x, y, z'
loop_
 _atom_site_type_symbol
 _atom_site_label
 _atom_site_symmetry_multiplicity
 _atom_site_fract_x
 _atom_site_fract_y
 _atom_site_fract_z
 _atom_site_occupancy
  K  K0  1  0.75000000  0.66666669  0.66666664  1
  Ag  Ag1  1  0.25000000  0.33333335  0.33333332  1
  Cu  Cu2  1  0.50000000  0.00000000  -0.00000000  1
  Te  Te3  1  0.00000000  0.00000000  0.00000000  1
  S  S4  1  0.25000000  0.31005201  0.84497399  1
  S  S5  1  0.75000000  0.15502601  0.68994800  1
  S  S6  1  0.75000000  0.15502601  0.15502599  1
  S  S7  1  0.25000000  0.84497403  0.84497397  1
  S  S8  1  0.75000000  0.68994802  0.15502598  1
  S  S9  1  0.25000000  0.84497403  0.31005197  1
