# generated using pymatgen
data_KAg3Se3S4
_symmetry_space_group_name_H-M   'P 1'
_cell_length_a   4.37600613
_cell_length_b   7.51954842
_cell_length_c   12.71795464
_cell_angle_alpha   98.04697418
_cell_angle_beta   90.00000000
_cell_angle_gamma   106.91635895
_symmetry_Int_Tables_number   1
_chemical_formula_structural   KAg3Se3S4
_chemical_formula_sum   'K1 Ag3 Se3 S4'
_cell_volume   396.07492092
_cell_formula_units_Z   1
loop_
 _symmetry_equiv_pos_site_id
 _symmetry_equiv_pos_as_xyz
  1  'x, y, z'
loop_
 _atom_site_type_symbol
 _atom_site_label
 _atom_site_symmetry_multiplicity
 _atom_site_fract_x
 _atom_site_fract_y
 _atom_site_fract_z
 _atom_site_occupancy
  Ag  Ag0  1  0.37214107  0.74428203  0.48218799  1
  Ag  Ag1  1  0.63062801  0.26125601  0.52326600  1
  K  K2  1  0.34815406  0.69630803  0.82720000  1
  Ag  Ag3  1  0.64676401  0.29352801  0.18138100  1
  Se  Se4  1  0.23799804  0.47599602  0.61608400  1
  Se  Se5  1  0.76023603  0.52047202  0.37907299  1
  Se  Se6  1  0.28529805  0.57059602  0.13676399  1
  S  S7  1  0.70644402  0.41288802  0.86292900  1
  S  S8  1  0.04343101  0.08686200  0.31268300  1
  S  S9  1  0.96125607  0.92251204  0.66907599  1
  S  S10  1  0.00765000  0.01530000  0.00935600  1
