# generated using pymatgen
data_K2RbAlH4SNO4
_symmetry_space_group_name_H-M   'P 1'
_cell_length_a   6.37497377
_cell_length_b   6.37497377
_cell_length_c   8.74295044
_cell_angle_alpha   88.30419159
_cell_angle_beta   88.30419159
_cell_angle_gamma   64.65295410
_symmetry_Int_Tables_number   1
_chemical_formula_structural   K2RbAlH4SNO4
_chemical_formula_sum   'Rb1 K2 Al1 H4 S1 N1 O4'
_cell_volume   320.91327203
_cell_formula_units_Z   1
loop_
 _symmetry_equiv_pos_site_id
 _symmetry_equiv_pos_as_xyz
  1  'x, y, z'
loop_
 _atom_site_type_symbol
 _atom_site_label
 _atom_site_symmetry_multiplicity
 _atom_site_fract_x
 _atom_site_fract_y
 _atom_site_fract_z
 _atom_site_occupancy
  Rb  Rb0  1  0.89872696  0.10127300  0.75000002  1
  K  K1  1  0.10127294  0.89872700  0.25000004  1
  Al  Al2  1  0.76357494  0.48050000  0.39497104  1
  K  K3  1  0.48049993  0.76357500  0.89497102  1
  H  H4  1  0.23642496  0.51950000  0.60502901  1
  H  H5  1  0.51949997  0.23642500  0.10502903  1
  H  H6  1  0.34196797  0.25456700  0.67242300  1
  S  S7  1  0.74543293  0.65803200  0.82757703  1
  N  N8  1  0.65803193  0.74543300  0.32757705  1
  H  H9  1  0.25456697  0.34196800  0.17242302  1
  O  O10  1  0.84307795  0.28570400  0.44317803  1
  O  O11  1  0.28570393  0.84307800  0.94317801  1
  O  O12  1  0.71429597  0.15692200  0.05682204  1
  O  O13  1  0.15692195  0.71429600  0.55682202  1
