# generated using pymatgen
data_NaMgO3
_symmetry_space_group_name_H-M   'P 1'
_cell_length_a   4.04746580
_cell_length_b   4.04746580
_cell_length_c   4.04746628
_cell_angle_alpha   89.57171631
_cell_angle_beta   89.57171631
_cell_angle_gamma   89.57172394
_symmetry_Int_Tables_number   1
_chemical_formula_structural   NaMgO3
_chemical_formula_sum   'Na1 Mg1 O3'
_cell_volume   66.29997964
_cell_formula_units_Z   1
loop_
 _symmetry_equiv_pos_site_id
 _symmetry_equiv_pos_as_xyz
  1  'x, y, z'
loop_
 _atom_site_type_symbol
 _atom_site_label
 _atom_site_symmetry_multiplicity
 _atom_site_fract_x
 _atom_site_fract_y
 _atom_site_fract_z
 _atom_site_occupancy
  Na  Na0  1  0.95458205  0.95458199  0.95458201  1
  Mg  Mg1  1  0.44918602  0.44918600  0.44918600  1
  O  O2  1  0.91308201  0.40407000  0.40406999  1
  O  O3  1  0.40407005  0.91308199  0.40406999  1
  O  O4  1  0.40407002  0.40407000  0.91308203  1
