# generated using pymatgen
data_NaSrLaPr2Cu4SeS6
_symmetry_space_group_name_H-M   'P 1'
_cell_length_a   4.67754412
_cell_length_b   9.80469513
_cell_length_c   9.96308231
_cell_angle_alpha   90.00000000
_cell_angle_beta   90.00000000
_cell_angle_gamma   90.00000000
_symmetry_Int_Tables_number   1
_chemical_formula_structural   NaSrLaPr2Cu4SeS6
_chemical_formula_sum   'Na1 Sr1 La1 Pr2 Cu4 Se1 S6'
_cell_volume   456.92582519
_cell_formula_units_Z   1
loop_
 _symmetry_equiv_pos_site_id
 _symmetry_equiv_pos_as_xyz
  1  'x, y, z'
loop_
 _atom_site_type_symbol
 _atom_site_label
 _atom_site_symmetry_multiplicity
 _atom_site_fract_x
 _atom_site_fract_y
 _atom_site_fract_z
 _atom_site_occupancy
  Na  Na0  1  0.00000000  0.20932800  0.41521199  1
  Sr  Sr1  1  0.00000000  0.79067199  0.58478798  1
  Pr  Pr2  1  0.00000000  0.20932800  0.08478800  1
  La  La3  1  0.00000000  0.79067199  0.91521197  1
  Cu  Cu4  1  0.49999999  0.22930000  0.74999998  1
  Pr  Pr5  1  0.49999999  0.77069999  0.24999999  1
  Cu  Cu6  1  0.49999999  0.49999999  -0.00000000  1
  Cu  Cu7  1  0.49999999  0.49999999  0.49999998  1
  Cu  Cu8  1  0.49999999  0.25425200  0.99167097  1
  S  S9  1  0.49999999  0.74574799  0.00832900  1
  S  S10  1  0.49999999  0.74574799  0.49167098  1
  Se  Se11  1  0.49999999  0.25425200  0.50832898  1
  S  S12  1  0.00000000  0.01243300  0.74999998  1
  S  S13  1  0.00000000  0.53521899  0.74999998  1
  S  S14  1  0.00000000  0.46478099  0.24999999  1
  S  S15  1  0.00000000  0.98756699  0.24999999  1
