# generated using pymatgen
data_NaSrPSO8
_symmetry_space_group_name_H-M   'P 1'
_cell_length_a   6.14508915
_cell_length_b   6.14508915
_cell_length_c   6.14508915
_cell_angle_alpha   106.41649628
_cell_angle_beta   106.41649628
_cell_angle_gamma   115.77031708
_symmetry_Int_Tables_number   1
_chemical_formula_structural   NaSrPSO8
_chemical_formula_sum   'Na1 Sr1 P1 S1 O8'
_cell_volume   176.99659891
_cell_formula_units_Z   1
loop_
 _symmetry_equiv_pos_site_id
 _symmetry_equiv_pos_as_xyz
  1  'x, y, z'
loop_
 _atom_site_type_symbol
 _atom_site_label
 _atom_site_symmetry_multiplicity
 _atom_site_fract_x
 _atom_site_fract_y
 _atom_site_fract_z
 _atom_site_occupancy
  Sr  Sr0  1  0.74999999  0.24999999  0.49999996  1
  Na  Na1  1  0.00000000  0.00000000  0.00000000  1
  S  S2  1  0.49999997  0.49999998  0.99999996  1
  P  P3  1  0.24999995  0.74999998  0.49999994  1
  O  O4  1  0.50946498  0.33064999  0.17881496  1
  O  O5  1  0.66934997  0.49053498  0.82118495  1
  O  O6  1  0.66934994  0.84816497  0.17881491  1
  O  O7  1  0.15183498  0.33064999  0.82118499  1
  O  O8  1  0.59816494  0.91934997  0.67881492  1
  O  O9  1  0.08064994  0.75946498  0.67881495  1
  O  O10  1  0.08064997  0.40183499  0.32118497  1
  O  O11  1  0.24053493  0.91934997  0.32118493  1
