# generated using pymatgen
data_KNaLi2BHNCl
_symmetry_space_group_name_H-M   'P 1'
_cell_length_a   5.98764515
_cell_length_b   5.98764515
_cell_length_c   5.98764515
_cell_angle_alpha   90.00000000
_cell_angle_beta   90.00000000
_cell_angle_gamma   90.00000000
_symmetry_Int_Tables_number   1
_chemical_formula_structural   KNaLi2BHNCl
_chemical_formula_sum   'K1 Na1 Li2 B1 H1 N1 Cl1'
_cell_volume   214.66842179
_cell_formula_units_Z   1
loop_
 _symmetry_equiv_pos_site_id
 _symmetry_equiv_pos_as_xyz
  1  'x, y, z'
loop_
 _atom_site_type_symbol
 _atom_site_label
 _atom_site_symmetry_multiplicity
 _atom_site_fract_x
 _atom_site_fract_y
 _atom_site_fract_z
 _atom_site_occupancy
  K  K0  1  0.00000000  0.00000000  0.00000000  1
  Na  Na1  1  0.00000000  0.49999999  -0.00000000  1
  Li  Li2  1  0.49999999  0.00000000  -0.00000000  1
  Li  Li3  1  0.00000000  0.00000000  0.49999999  1
  B  B4  1  0.25723899  0.74276098  0.74276098  1
  H  H5  1  0.25723899  0.25723899  0.25723899  1
  Cl  Cl6  1  0.74276098  0.25723899  0.74276098  1
  N  N7  1  0.74276098  0.74276098  0.25723899  1
