# generated using pymatgen
data_Li6MnO9
_symmetry_space_group_name_H-M   'P 1'
_cell_length_a   4.14786816
_cell_length_b   6.07581186
_cell_length_c   10.97259903
_cell_angle_alpha   90.00000000
_cell_angle_beta   90.00000000
_cell_angle_gamma   109.95870209
_symmetry_Int_Tables_number   1
_chemical_formula_structural   Li6MnO9
_chemical_formula_sum   'Li6 Mn1 O9'
_cell_volume   259.91921904
_cell_formula_units_Z   1
loop_
 _symmetry_equiv_pos_site_id
 _symmetry_equiv_pos_as_xyz
  1  'x, y, z'
loop_
 _atom_site_type_symbol
 _atom_site_label
 _atom_site_symmetry_multiplicity
 _atom_site_fract_x
 _atom_site_fract_y
 _atom_site_fract_z
 _atom_site_occupancy
  Li  Li0  1  0.13871701  0.27743400  0.43261300  1
  Li  Li1  1  0.13871701  0.27743400  0.06738700  1
  Li  Li2  1  0.86128302  0.72256601  0.93261300  1
  Li  Li3  1  0.86128302  0.72256601  0.56738700  1
  Li  Li4  1  0.17665802  0.35331601  0.75000000  1
  Li  Li5  1  0.82334201  0.64668401  0.25000000  1
  Mn  Mn6  1  0.05010201  0.10020400  0.88010100  1
  O  O7  1  0.05010201  0.10020400  0.61989900  1
  O  O8  1  0.28979703  0.57959401  0.59073900  1
  O  O9  1  0.28979703  0.57959401  0.90926100  1
  O  O10  1  0.26968103  0.53936201  0.25000000  1
  O  O11  1  0.73031900  0.46063801  0.75000000  1
  O  O12  1  0.94989803  0.89979601  0.38010100  1
  O  O13  1  0.94989803  0.89979601  0.11989900  1
  O  O14  1  0.71020300  0.42040601  0.40926100  1
  O  O15  1  0.71020300  0.42040601  0.09073900  1
