# generated using pymatgen
data_Rb4PbClO4
_symmetry_space_group_name_H-M   'P 1'
_cell_length_a   3.85151196
_cell_length_b   7.70130205
_cell_length_c   9.00657940
_cell_angle_alpha   90.00000000
_cell_angle_beta   90.00000000
_cell_angle_gamma   90.00000000
_symmetry_Int_Tables_number   1
_chemical_formula_structural   Rb4PbClO4
_chemical_formula_sum   'Rb4 Pb1 Cl1 O4'
_cell_volume   267.15006818
_cell_formula_units_Z   1
loop_
 _symmetry_equiv_pos_site_id
 _symmetry_equiv_pos_as_xyz
  1  'x, y, z'
loop_
 _atom_site_type_symbol
 _atom_site_label
 _atom_site_symmetry_multiplicity
 _atom_site_fract_x
 _atom_site_fract_y
 _atom_site_fract_z
 _atom_site_occupancy
  Rb  Rb0  1  0.00660800  0.74999999  -0.00000000  1
  Rb  Rb1  1  0.99339201  0.25000000  -0.00000000  1
  Rb  Rb2  1  0.99719501  0.74999999  0.72237697  1
  Rb  Rb3  1  0.99719501  0.74999999  0.27762299  1
  Pb  Pb4  1  0.00280500  0.25000000  0.72237697  1
  O  O5  1  0.00280500  0.25000000  0.27762299  1
  Cl  Cl6  1  0.50109901  0.74999999  -0.00000000  1
  O  O7  1  0.00000000  0.50000000  -0.00000000  1
  O  O8  1  0.49890101  0.25000000  -0.00000000  1
  O  O9  1  0.00000000  0.00000000  0.00000000  1
