# generated using pymatgen
data_BaNa3PbCl2O9
_symmetry_space_group_name_H-M   'P 1'
_cell_length_a   7.39086962
_cell_length_b   7.39086962
_cell_length_c   7.39086962
_cell_angle_alpha   60.00000000
_cell_angle_beta   60.00000000
_cell_angle_gamma   60.00000000
_symmetry_Int_Tables_number   1
_chemical_formula_structural   BaNa3PbCl2O9
_chemical_formula_sum   'Ba1 Na3 Pb1 Cl2 O9'
_cell_volume   285.47732918
_cell_formula_units_Z   1
loop_
 _symmetry_equiv_pos_site_id
 _symmetry_equiv_pos_as_xyz
  1  'x, y, z'
loop_
 _atom_site_type_symbol
 _atom_site_label
 _atom_site_symmetry_multiplicity
 _atom_site_fract_x
 _atom_site_fract_y
 _atom_site_fract_z
 _atom_site_occupancy
  Na  Na0  1  0.75000000  0.75000000  0.75000000  1
  Ba  Ba1  1  0.25000000  0.25000000  0.25000000  1
  Na  Na2  1  0.50000000  0.50000000  0.50000000  1
  Na  Na3  1  0.00000000  0.00000000  0.00000000  1
  Pb  Pb4  1  0.81978200  0.18021800  0.18021800  1
  Cl  Cl5  1  0.81978200  0.18021800  0.81978200  1
  Cl  Cl6  1  0.18021800  0.81978200  0.81978200  1
  O  O7  1  0.18021800  0.18021800  0.81978200  1
  O  O8  1  0.18021800  0.81978200  0.18021800  1
  O  O9  1  0.81978200  0.81978200  0.18021800  1
  O  O10  1  0.29316800  0.70683200  0.29316800  1
  O  O11  1  0.70683200  0.70683200  0.29316800  1
  O  O12  1  0.29316800  0.29316800  0.70683200  1
  O  O13  1  0.70683200  0.29316800  0.29316800  1
  O  O14  1  0.29316800  0.70683200  0.70683200  1
  O  O15  1  0.70683200  0.29316800  0.70683200  1
