# generated using pymatgen
data_LiAgTeS2
_symmetry_space_group_name_H-M   'P 1'
_cell_length_a   4.26512384
_cell_length_b   4.26512337
_cell_length_c   6.89136887
_cell_angle_alpha   90.00000000
_cell_angle_beta   90.00000000
_cell_angle_gamma   120.00000763
_symmetry_Int_Tables_number   1
_chemical_formula_structural   LiAgTeS2
_chemical_formula_sum   'Li1 Ag1 Te1 S2'
_cell_volume   108.56737526
_cell_formula_units_Z   1
loop_
 _symmetry_equiv_pos_site_id
 _symmetry_equiv_pos_as_xyz
  1  'x, y, z'
loop_
 _atom_site_type_symbol
 _atom_site_label
 _atom_site_symmetry_multiplicity
 _atom_site_fract_x
 _atom_site_fract_y
 _atom_site_fract_z
 _atom_site_occupancy
  Li  Li0  1  0.66666671  0.33333334  0.01587900  1
  Ag  Ag1  1  0.00000000  0.00000000  0.62343801  1
  Te  Te2  1  0.33333338  0.66666668  0.36641501  1
  S  S3  1  0.33333338  0.66666668  0.75967701  1
  S  S4  1  0.00000000  0.00000000  0.23459100  1
