# generated using pymatgen
data_Na2SrNbO8
_symmetry_space_group_name_H-M   'P 1'
_cell_length_a   4.20426989
_cell_length_b   5.90878582
_cell_length_c   7.67984390
_cell_angle_alpha   90.00000000
_cell_angle_beta   105.88581085
_cell_angle_gamma   90.00000000
_symmetry_Int_Tables_number   1
_chemical_formula_structural   Na2SrNbO8
_chemical_formula_sum   'Na2 Sr1 Nb1 O8'
_cell_volume   183.49748709
_cell_formula_units_Z   1
loop_
 _symmetry_equiv_pos_site_id
 _symmetry_equiv_pos_as_xyz
  1  'x, y, z'
loop_
 _atom_site_type_symbol
 _atom_site_label
 _atom_site_symmetry_multiplicity
 _atom_site_fract_x
 _atom_site_fract_y
 _atom_site_fract_z
 _atom_site_occupancy
  Na  Na0  1  0.14719000  0.04171900  0.29438000  1
  Sr  Sr1  1  0.85281002  0.54171902  0.70562000  1
  Nb  Nb2  1  0.41372001  0.99960603  0.82744001  1
  Na  Na3  1  0.58628001  0.49960602  0.17256000  1
  O  O4  1  0.33602201  0.27203001  0.67204401  1
  O  O5  1  0.07887700  0.48941501  0.15775400  1
  O  O6  1  0.47194601  0.68082202  0.94389201  1
  O  O7  1  0.52805401  0.18082201  0.05610800  1
  O  O8  1  0.30209101  0.80670802  0.60418200  1
  O  O9  1  0.69790902  0.30670801  0.39581800  1
  O  O10  1  0.66397801  0.77203002  0.32795600  1
  O  O11  1  0.92112302  0.98941503  0.84224600  1
