# generated using pymatgen
data_KNaZr(NF2)2
_symmetry_space_group_name_H-M   'P 1'
_cell_length_a   3.85777593
_cell_length_b   6.68069220
_cell_length_c   6.68069220
_cell_angle_alpha   120.00000000
_cell_angle_beta   90.00000000
_cell_angle_gamma   90.00000000
_symmetry_Int_Tables_number   1
_chemical_formula_structural   KNaZr(NF2)2
_chemical_formula_sum   'K1 Na1 Zr1 N2 F4'
_cell_volume   149.11129971
_cell_formula_units_Z   1
loop_
 _symmetry_equiv_pos_site_id
 _symmetry_equiv_pos_as_xyz
  1  'x, y, z'
loop_
 _atom_site_type_symbol
 _atom_site_label
 _atom_site_symmetry_multiplicity
 _atom_site_fract_x
 _atom_site_fract_y
 _atom_site_fract_z
 _atom_site_occupancy
  Na  Na0  1  0.50000001  0.66666665  0.33333332  1
  K  K1  1  0.50000001  0.33333332  0.66666665  1
  Zr  Zr2  1  0.00000000  0.00000000  0.00000000  1
  N  N3  1  0.50000001  0.00000000  0.22798099  1
  N  N4  1  0.50000001  0.22798099  0.99999997  1
  F  F5  1  0.50000001  0.77201898  0.77201898  1
  F  F6  1  1.00000002  0.34402899  0.34402899  1
  F  F7  1  0.00000000  0.65597098  0.99999997  1
  F  F8  1  0.00000000  0.00000000  0.65597098  1
