# generated using pymatgen
data_K2SrAg2Sb3SeS11
_symmetry_space_group_name_H-M   'P 1'
_cell_length_a   7.07139206
_cell_length_b   7.16081715
_cell_length_c   10.10526466
_cell_angle_alpha   90.00000000
_cell_angle_beta   90.00000000
_cell_angle_gamma   90.00000000
_symmetry_Int_Tables_number   1
_chemical_formula_structural   K2SrAg2Sb3SeS11
_chemical_formula_sum   'K2 Sr1 Ag2 Sb3 Se1 S11'
_cell_volume   511.69973611
_cell_formula_units_Z   1
loop_
 _symmetry_equiv_pos_site_id
 _symmetry_equiv_pos_as_xyz
  1  'x, y, z'
loop_
 _atom_site_type_symbol
 _atom_site_label
 _atom_site_symmetry_multiplicity
 _atom_site_fract_x
 _atom_site_fract_y
 _atom_site_fract_z
 _atom_site_occupancy
  Sr  Sr0  1  0.00000000  0.00000000  0.00000000  1
  K  K1  1  0.50000000  0.49999999  -0.00000000  1
  K  K2  1  0.00000000  0.00000000  0.50000002  1
  Ag  Ag3  1  0.50000000  0.49999999  0.50000002  1
  Ag  Ag4  1  0.01699800  0.44883099  0.25000001  1
  Sb  Sb5  1  0.98300199  0.55116899  0.75000002  1
  Sb  Sb6  1  0.51699800  0.05116900  0.75000002  1
  Sb  Sb7  1  0.48300200  0.94883098  0.25000001  1
  Se  Se8  1  0.28212000  0.21788100  0.02537000  1
  S  S9  1  0.71787999  0.78211898  0.97463003  1
  S  S10  1  0.78211999  0.28211899  0.97463003  1
  S  S11  1  0.71787999  0.78211898  0.52537002  1
  S  S12  1  0.21788000  0.71788099  0.02537000  1
  S  S13  1  0.28212000  0.21788100  0.47463002  1
  S  S14  1  0.21788000  0.71788099  0.47463002  1
  S  S15  1  0.78211999  0.28211899  0.52537002  1
  S  S16  1  0.55089600  0.50086699  0.25000001  1
  S  S17  1  0.44910400  0.49913299  0.75000002  1
  S  S18  1  0.05089600  0.99913298  0.75000002  1
  S  S19  1  0.94910399  0.00086700  0.25000001  1
