# generated using pymatgen
data_LiN
_symmetry_space_group_name_H-M   'P 1'
_cell_length_a   5.43487978
_cell_length_b   5.68134594
_cell_length_c   7.83004427
_cell_angle_alpha   90.00000000
_cell_angle_beta   90.01435089
_cell_angle_gamma   90.00000000
_symmetry_Int_Tables_number   1
_chemical_formula_structural   LiN
_chemical_formula_sum   'Li10 N10'
_cell_volume   241.77165323
_cell_formula_units_Z   10
loop_
 _symmetry_equiv_pos_site_id
 _symmetry_equiv_pos_as_xyz
  1  'x, y, z'
loop_
 _atom_site_type_symbol
 _atom_site_label
 _atom_site_symmetry_multiplicity
 _atom_site_fract_x
 _atom_site_fract_y
 _atom_site_fract_z
 _atom_site_occupancy
  Li  Li0  1  0.48326802  0.56275501  0.24975601  1
  Li  Li1  1  0.01673200  0.06275500  0.25024400  1
  Li  Li2  1  0.51673202  0.43724500  0.75024401  1
  Li  Li3  1  0.98326804  0.93724501  0.74975601  1
  Li  Li4  1  0.50000002  0.00000000  0.50000001  1
  Li  Li5  1  0.00000000  0.50000001  -0.00000000  1
  Li  Li6  1  0.50000002  0.00000000  0.00000001  1
  Li  Li7  1  0.00000000  0.50000001  0.50000000  1
  N  N8  1  0.19710401  0.79902001  0.05302900  1
  N  N9  1  0.30289601  0.29902000  0.44697100  1
  Li  Li10  1  0.80388203  0.20103500  0.55343601  1
  N  N11  1  0.69611803  0.70103501  0.94656401  1
  Li  Li12  1  0.80289603  0.20098000  0.94697101  1
  N  N13  1  0.69710403  0.70098001  0.55302901  1
  N  N14  1  0.19611801  0.79896501  0.44656400  1
  N  N15  1  0.30388201  0.29896500  0.05343601  1
  N  N16  1  0.60191702  0.96733801  0.24815601  1
  N  N17  1  0.89808304  0.46733800  0.25184401  1
  N  N18  1  0.39808302  0.03266200  0.75184400  1
  N  N19  1  0.10191700  0.53266201  0.74815600  1
