# generated using pymatgen
data_NaPr3NdAg2SbS8
_symmetry_space_group_name_H-M   'P 1'
_cell_length_a   4.13989782
_cell_length_b   7.45626163
_cell_length_c   14.43578625
_cell_angle_alpha   90.00000000
_cell_angle_beta   90.00000000
_cell_angle_gamma   106.11774445
_symmetry_Int_Tables_number   1
_chemical_formula_structural   NaPr3NdAg2SbS8
_chemical_formula_sum   'Na1 Pr3 Nd1 Ag2 Sb1 S8'
_cell_volume   428.09083631
_cell_formula_units_Z   1
loop_
 _symmetry_equiv_pos_site_id
 _symmetry_equiv_pos_as_xyz
  1  'x, y, z'
loop_
 _atom_site_type_symbol
 _atom_site_label
 _atom_site_symmetry_multiplicity
 _atom_site_fract_x
 _atom_site_fract_y
 _atom_site_fract_z
 _atom_site_occupancy
  Na  Na0  1  0.11028601  0.22057200  0.25000000  1
  Pr  Pr1  1  0.88971406  0.77942800  0.74999999  1
  Pr  Pr2  1  0.63397204  0.26794400  0.93614698  1
  Nd  Nd3  1  0.36602804  0.73205600  0.06385300  1
  Ag  Ag4  1  0.63397204  0.26794400  0.56385299  1
  Pr  Pr5  1  0.36602804  0.73205600  0.43614699  1
  Ag  Ag6  1  0.83678306  0.67356600  0.25000000  1
  Sb  Sb7  1  0.16321702  0.32643400  0.74999999  1
  S  S8  1  0.57049203  0.14098400  0.74999999  1
  S  S9  1  0.42950805  0.85901600  0.25000000  1
  S  S10  1  0.26171603  0.52343200  0.89096598  1
  S  S11  1  0.73828405  0.47656800  0.10903400  1
  S  S12  1  0.00000000  0.00000000  0.49999999  1
  S  S13  1  0.00000000  0.00000000  0.00000000  1
  S  S14  1  0.26171603  0.52343200  0.60903399  1
  S  S15  1  0.73828405  0.47656800  0.39096599  1
