# generated using pymatgen
data_Na2AgS3
_symmetry_space_group_name_H-M   'P 1'
_cell_length_a   4.29685020
_cell_length_b   7.48604250
_cell_length_c   10.81311893
_cell_angle_alpha   90.00000000
_cell_angle_beta   90.00000000
_cell_angle_gamma   106.67787933
_symmetry_Int_Tables_number   1
_chemical_formula_structural   Na2AgS3
_chemical_formula_sum   'Na4 Ag2 S6'
_cell_volume   333.18756376
_cell_formula_units_Z   2
loop_
 _symmetry_equiv_pos_site_id
 _symmetry_equiv_pos_as_xyz
  1  'x, y, z'
loop_
 _atom_site_type_symbol
 _atom_site_label
 _atom_site_symmetry_multiplicity
 _atom_site_fract_x
 _atom_site_fract_y
 _atom_site_fract_z
 _atom_site_occupancy
  Na  Na0  1  0.75124592  0.50249201  0.75000000  1
  Na  Na1  1  0.24875395  0.49750801  0.25000000  1
  Na  Na2  1  0.00000000  0.00000000  0.00000000  1
  Na  Na3  1  0.00000000  0.00000000  0.50000000  1
  Ag  Ag4  1  0.46962490  0.93925001  0.75000000  1
  Ag  Ag5  1  0.53037497  0.06075000  0.25000000  1
  S  S6  1  0.63545595  0.27091200  0.44991200  1
  S  S7  1  0.36454392  0.72908801  0.55008800  1
  S  S8  1  0.36454392  0.72908801  0.94991201  1
  S  S9  1  0.92041088  0.84082201  0.25000000  1
  S  S10  1  0.07958898  0.15917800  0.75000000  1
  S  S11  1  0.63545595  0.27091200  0.05008800  1
