# generated using pymatgen
data_KNaAlTeS
_symmetry_space_group_name_H-M   'P 1'
_cell_length_a   4.60074377
_cell_length_b   4.60074282
_cell_length_c   7.28133011
_cell_angle_alpha   90.00000000
_cell_angle_beta   90.00000000
_cell_angle_gamma   120.00000763
_symmetry_Int_Tables_number   1
_chemical_formula_structural   KNaAlTeS
_chemical_formula_sum   'K1 Na1 Al1 Te1 S1'
_cell_volume   133.47419880
_cell_formula_units_Z   1
loop_
 _symmetry_equiv_pos_site_id
 _symmetry_equiv_pos_as_xyz
  1  'x, y, z'
loop_
 _atom_site_type_symbol
 _atom_site_label
 _atom_site_symmetry_multiplicity
 _atom_site_fract_x
 _atom_site_fract_y
 _atom_site_fract_z
 _atom_site_occupancy
  Na  Na0  1  0.00000000  0.00000000  0.00000000  1
  K  K1  1  0.66666670  0.33333335  0.63167499  1
  Te  Te2  1  0.33333335  0.66666669  0.36832499  1
  Al  Al3  1  0.66666670  0.33333335  0.22525100  1
  S  S4  1  0.33333335  0.66666669  0.77474899  1
