# generated using pymatgen
data_Na3Sr5TeS(NO4)2
_symmetry_space_group_name_H-M   'P 1'
_cell_length_a   5.46456003
_cell_length_b   6.35369730
_cell_length_c   12.26659107
_cell_angle_alpha   90.00000000
_cell_angle_beta   90.00000000
_cell_angle_gamma   115.46945953
_symmetry_Int_Tables_number   1
_chemical_formula_structural   Na3Sr5TeS(NO4)2
_chemical_formula_sum   'Na3 Sr5 Te1 S1 N2 O8'
_cell_volume   384.50695398
_cell_formula_units_Z   1
loop_
 _symmetry_equiv_pos_site_id
 _symmetry_equiv_pos_as_xyz
  1  'x, y, z'
loop_
 _atom_site_type_symbol
 _atom_site_label
 _atom_site_symmetry_multiplicity
 _atom_site_fract_x
 _atom_site_fract_y
 _atom_site_fract_z
 _atom_site_occupancy
  Na  Na0  1  0.85597600  0.71195201  0.05832400  1
  Sr  Sr1  1  0.45207801  0.90415602  0.85773099  1
  Sr  Sr2  1  0.95207800  0.90415602  0.64226900  1
  Sr  Sr3  1  0.54792200  0.09584400  0.14226900  1
  Na  Na4  1  0.64402400  0.28804801  0.55832400  1
  Sr  Sr5  1  0.04792200  0.09584400  0.35773100  1
  Sr  Sr6  1  0.14402400  0.28804801  0.94167599  1
  Na  Na7  1  0.35597600  0.71195201  0.44167600  1
  S  S8  1  0.73974300  0.47948601  0.32003300  1
  Te  Te9  1  0.26025700  0.52051401  0.67996700  1
  O  O10  1  0.23974300  0.47948601  0.17996700  1
  O  O11  1  0.76025700  0.52051401  0.82003300  1
  O  O12  1  0.66005600  0.32011201  0.94035099  1
  N  N13  1  0.07900000  0.15800000  0.14154100  1
  O  O14  1  0.16005600  0.32011201  0.55964900  1
  O  O15  1  0.57900000  0.15800000  0.35845900  1
  O  O16  1  0.33994400  0.67988801  0.05964900  1
  O  O17  1  0.83994500  0.67988901  0.44035100  1
  O  O18  1  0.42100001  0.84200002  0.64154100  1
  N  N19  1  0.92100000  0.84200002  0.85845899  1
