# generated using pymatgen
data_K4RbTeSe2SI7Br3Cl
_symmetry_space_group_name_H-M   'P 1'
_cell_length_a   7.81959820
_cell_length_b   9.84903812
_cell_length_c   10.70384979
_cell_angle_alpha   75.94300842
_cell_angle_beta   83.93769836
_cell_angle_gamma   76.55232239
_symmetry_Int_Tables_number   1
_chemical_formula_structural   K4RbTeSe2SI7Br3Cl
_chemical_formula_sum   'Rb1 K4 Te1 Se2 S1 I7 Br3 Cl1'
_cell_volume   776.69670991
_cell_formula_units_Z   1
loop_
 _symmetry_equiv_pos_site_id
 _symmetry_equiv_pos_as_xyz
  1  'x, y, z'
loop_
 _atom_site_type_symbol
 _atom_site_label
 _atom_site_symmetry_multiplicity
 _atom_site_fract_x
 _atom_site_fract_y
 _atom_site_fract_z
 _atom_site_occupancy
  Rb  Rb0  1  0.38839204  0.86028299  0.30670500  1
  K  K1  1  0.61160800  0.13971700  0.69329499  1
  K  K2  1  0.87064202  0.64252399  0.62444198  1
  K  K3  1  0.12935802  0.35747600  0.37555800  1
  K  K4  1  0.30835103  0.70525299  0.93363001  1
  Te  Te5  1  0.69164900  0.29474700  0.06636998  1
  I  I6  1  0.87440603  0.86881299  0.42502198  1
  I  I7  1  0.12559400  0.13118700  0.57497800  1
  I  I8  1  0.96554102  0.79279299  0.79248198  1
  Se  Se9  1  0.03445901  0.20720700  0.20751800  1
  S  S10  1  0.50527903  0.77284699  0.66793400  1
  Br  Br11  1  0.49472100  0.22715300  0.33206599  1
  I  I12  1  0.76564801  0.48450399  0.45153998  1
  I  I13  1  0.23435202  0.51549599  0.54846000  1
  Cl  Cl14  1  0.88354400  0.34880200  0.83263598  1
  Br  Br15  1  0.11645603  0.65119799  0.16736401  1
  Br  Br16  1  0.27724405  0.97829199  0.94559301  1
  Se  Se17  1  0.72275599  0.02170800  0.05440697  1
  I  I18  1  0.61817702  0.62256899  0.06690698  1
  I  I19  1  0.38182301  0.37743100  0.93309300  1
