# generated using pymatgen
data_Li2CoO5
_symmetry_space_group_name_H-M   'P 1'
_cell_length_a   5.12848902
_cell_length_b   5.12852001
_cell_length_c   5.34721088
_cell_angle_alpha   91.29667664
_cell_angle_beta   118.11081696
_cell_angle_gamma   118.98599243
_symmetry_Int_Tables_number   1
_chemical_formula_structural   Li2CoO5
_chemical_formula_sum   'Li2 Co1 O5'
_cell_volume   102.61050764
_cell_formula_units_Z   1
loop_
 _symmetry_equiv_pos_site_id
 _symmetry_equiv_pos_as_xyz
  1  'x, y, z'
loop_
 _atom_site_type_symbol
 _atom_site_label
 _atom_site_symmetry_multiplicity
 _atom_site_fract_x
 _atom_site_fract_y
 _atom_site_fract_z
 _atom_site_occupancy
  Li  Li0  1  0.69317902  0.33894401  0.01192600  1
  Li  Li1  1  0.69310803  0.86454703  0.53872798  1
  O  O2  1  0.75411002  0.16297401  0.77555401  1
  Co  Co3  1  0.59216302  0.49968902  0.27603299  1
  O  O4  1  0.18313902  0.99000503  0.78296697  1
  O  O5  1  0.79450403  0.09965500  0.28290101  1
  O  O6  1  0.18372501  0.69746102  0.26849298  1
  O  O7  1  0.57199002  0.58497002  0.76816299  1
