# generated using pymatgen
data_RbTe2I11
_symmetry_space_group_name_H-M   'P 1'
_cell_length_a   7.79652786
_cell_length_b   7.79652882
_cell_length_c   9.53674793
_cell_angle_alpha   90.00000000
_cell_angle_beta   90.00000000
_cell_angle_gamma   120.00000000
_symmetry_Int_Tables_number   1
_chemical_formula_structural   RbTe2I11
_chemical_formula_sum   'Rb1 Te2 I11'
_cell_volume   502.03437999
_cell_formula_units_Z   1
loop_
 _symmetry_equiv_pos_site_id
 _symmetry_equiv_pos_as_xyz
  1  'x, y, z'
loop_
 _atom_site_type_symbol
 _atom_site_label
 _atom_site_symmetry_multiplicity
 _atom_site_fract_x
 _atom_site_fract_y
 _atom_site_fract_z
 _atom_site_occupancy
  Rb  Rb0  1  0.33333337  0.66666667  0.33446800  1
  I  I1  1  0.66666670  0.33333333  0.66553200  1
  I  I2  1  0.00000000  0.00000000  0.00000000  1
  Te  Te3  1  0.33333337  0.66666667  0.81930001  1
  Te  Te4  1  0.66666670  0.33333333  0.18070000  1
  I  I5  1  0.17774202  0.35548400  0.67153500  1
  I  I6  1  0.17774205  0.82225800  0.67153500  1
  I  I7  1  0.64451605  0.82225800  0.67153500  1
  I  I8  1  0.35548402  0.17774200  0.32846500  1
  I  I9  1  0.82225802  0.17774200  0.32846500  1
  I  I10  1  0.50000003  0.50000000  1.00000001  1
  I  I11  1  0.00000003  0.50000000  -0.00000000  1
  I  I12  1  0.50000006  1.00000000  1.00000001  1
  I  I13  1  0.82225805  0.64451600  0.32846500  1
