# generated using pymatgen
data_Na2AgHgS5Cl3
_symmetry_space_group_name_H-M   'P 1'
_cell_length_a   4.00349092
_cell_length_b   6.89551878
_cell_length_c   7.74365091
_cell_angle_alpha   90.00000000
_cell_angle_beta   90.00000000
_cell_angle_gamma   90.00000000
_symmetry_Int_Tables_number   1
_chemical_formula_structural   Na2AgHgS5Cl3
_chemical_formula_sum   'Na2 Ag1 Hg1 S5 Cl3'
_cell_volume   213.77236432
_cell_formula_units_Z   1
loop_
 _symmetry_equiv_pos_site_id
 _symmetry_equiv_pos_as_xyz
  1  'x, y, z'
loop_
 _atom_site_type_symbol
 _atom_site_label
 _atom_site_symmetry_multiplicity
 _atom_site_fract_x
 _atom_site_fract_y
 _atom_site_fract_z
 _atom_site_occupancy
  Na  Na0  1  0.25000000  0.52887902  0.18683500  1
  Na  Na1  1  0.75000001  0.47112102  0.81316501  1
  Hg  Hg2  1  0.75000001  0.97112103  0.68683501  1
  Cl  Cl3  1  0.25000000  0.02887900  0.31316500  1
  S  S4  1  0.25000000  0.75257902  0.87727101  1
  Ag  Ag5  1  0.75000001  0.24742101  0.12272900  1
  S  S6  1  0.75000001  0.74742102  0.37727100  1
  Cl  Cl7  1  0.25000000  0.25257901  0.62272901  1
  S  S8  1  0.25000000  0.64831202  0.56145301  1
  S  S9  1  0.75000001  0.35168801  0.43854700  1
  S  S10  1  0.75000001  0.85168803  0.06145300  1
  Cl  Cl11  1  0.25000000  0.14831200  0.93854701  1
