# generated using pymatgen
data_Ba2NaZnO6
_symmetry_space_group_name_H-M   'P 1'
_cell_length_a   5.94707394
_cell_length_b   5.94707394
_cell_length_c   5.94707394
_cell_angle_alpha   60.00000000
_cell_angle_beta   60.00000000
_cell_angle_gamma   60.00000000
_symmetry_Int_Tables_number   1
_chemical_formula_structural   Ba2NaZnO6
_chemical_formula_sum   'Ba2 Na1 Zn1 O6'
_cell_volume   148.72878008
_cell_formula_units_Z   1
loop_
 _symmetry_equiv_pos_site_id
 _symmetry_equiv_pos_as_xyz
  1  'x, y, z'
loop_
 _atom_site_type_symbol
 _atom_site_label
 _atom_site_symmetry_multiplicity
 _atom_site_fract_x
 _atom_site_fract_y
 _atom_site_fract_z
 _atom_site_occupancy
  Na  Na0  1  0.74999999  0.74999999  0.74999999  1
  Ba  Ba1  1  0.00000000  0.00000000  0.00000000  1
  Ba  Ba2  1  0.25000000  0.25000000  0.25000000  1
  Zn  Zn3  1  0.49999999  0.49999999  0.49999999  1
  O  O4  1  0.26752481  0.73247518  0.26752481  1
  O  O5  1  0.73247518  0.26752481  0.73247518  1
  O  O6  1  0.73247518  0.26752481  0.26752481  1
  O  O7  1  0.26752481  0.73247518  0.73247518  1
  O  O8  1  0.73247518  0.73247518  0.26752481  1
  O  O9  1  0.26752481  0.26752481  0.73247518  1
