# generated using pymatgen
data_K3NaSrO5
_symmetry_space_group_name_H-M   'P 1'
_cell_length_a   4.14017582
_cell_length_b   7.16921520
_cell_length_c   9.19203091
_cell_angle_alpha   69.32862091
_cell_angle_beta   76.98508453
_cell_angle_gamma   73.21705627
_symmetry_Int_Tables_number   1
_chemical_formula_structural   K3NaSrO5
_chemical_formula_sum   'K3 Na1 Sr1 O5'
_cell_volume   242.07253135
_cell_formula_units_Z   1
loop_
 _symmetry_equiv_pos_site_id
 _symmetry_equiv_pos_as_xyz
  1  'x, y, z'
loop_
 _atom_site_type_symbol
 _atom_site_label
 _atom_site_symmetry_multiplicity
 _atom_site_fract_x
 _atom_site_fract_y
 _atom_site_fract_z
 _atom_site_occupancy
  K  K0  1  0.17562403  0.34119100  0.30756100  1
  K  K1  1  0.82437608  0.65880899  0.69243898  1
  K  K2  1  0.00000000  0.00000000  0.00000000  1
  Sr  Sr3  1  0.55414804  0.19002900  0.70167499  1
  Na  Na4  1  0.44585207  0.80997099  0.29832498  1
  O  O5  1  0.14622601  0.02012500  0.68742300  1
  O  O6  1  0.85377410  0.97987499  0.31257697  1
  O  O7  1  0.38725904  0.29308500  0.93239699  1
  O  O8  1  0.61274107  0.70691499  0.06760298  1
  O  O9  1  0.50000005  0.50000000  0.49999999  1
