# generated using pymatgen
data_K3LiAg2S5O
_symmetry_space_group_name_H-M   'P 1'
_cell_length_a   4.42821217
_cell_length_b   7.47838306
_cell_length_c   8.32176304
_cell_angle_alpha   90.00000000
_cell_angle_beta   90.00000000
_cell_angle_gamma   90.00000000
_symmetry_Int_Tables_number   1
_chemical_formula_structural   K3LiAg2S5O
_chemical_formula_sum   'K3 Li1 Ag2 S5 O1'
_cell_volume   275.58239688
_cell_formula_units_Z   1
loop_
 _symmetry_equiv_pos_site_id
 _symmetry_equiv_pos_as_xyz
  1  'x, y, z'
loop_
 _atom_site_type_symbol
 _atom_site_label
 _atom_site_symmetry_multiplicity
 _atom_site_fract_x
 _atom_site_fract_y
 _atom_site_fract_z
 _atom_site_occupancy
  Li  Li0  1  0.24999999  0.01958100  0.17998400  1
  K  K1  1  0.74999997  0.98041899  0.82001600  1
  K  K2  1  0.24999999  0.51958100  0.32001600  1
  K  K3  1  0.74999997  0.48041900  0.67998400  1
  Ag  Ag4  1  0.74999997  0.85649999  0.43691000  1
  Ag  Ag5  1  0.24999999  0.64349999  0.93691000  1
  S  S6  1  0.74999997  0.35650000  0.06309000  1
  S  S7  1  0.24999999  0.14350000  0.56309000  1
  S  S8  1  0.24999999  0.26991600  0.88414900  1
  S  S9  1  0.74999997  0.23008400  0.38414900  1
  O  O10  1  0.24999999  0.76991599  0.61585100  1
  S  S11  1  0.74999997  0.73008399  0.11585100  1
