# generated using pymatgen
data_K2SeS2BrCl
_symmetry_space_group_name_H-M   'P 1'
_cell_length_a   6.40150595
_cell_length_b   6.40150595
_cell_length_c   6.40150595
_cell_angle_alpha   106.68506622
_cell_angle_beta   106.68506622
_cell_angle_gamma   106.68505859
_symmetry_Int_Tables_number   1
_chemical_formula_structural   K2SeS2BrCl
_chemical_formula_sum   'K2 Se1 S2 Br1 Cl1'
_cell_volume   220.32013820
_cell_formula_units_Z   1
loop_
 _symmetry_equiv_pos_site_id
 _symmetry_equiv_pos_as_xyz
  1  'x, y, z'
loop_
 _atom_site_type_symbol
 _atom_site_label
 _atom_site_symmetry_multiplicity
 _atom_site_fract_x
 _atom_site_fract_y
 _atom_site_fract_z
 _atom_site_occupancy
  K  K0  1  0.84801297  0.44510499  0.84801301  1
  K  K1  1  0.44510495  0.84801298  0.84801299  1
  Cl  Cl2  1  0.84801295  0.84801298  0.44510498  1
  Br  Br3  1  0.30091498  0.30091499  0.30091500  1
  Se  Se4  1  0.90946099  0.27974699  0.27974699  1
  S  S5  1  0.27974698  0.27974699  0.90946102  1
  S  S6  1  0.27974694  0.90946098  0.27974697  1
