# generated using pymatgen
data_NaAg2SbS2
_symmetry_space_group_name_H-M   'P 1'
_cell_length_a   5.22695351
_cell_length_b   5.22695351
_cell_length_c   7.59035969
_cell_angle_alpha   109.65042877
_cell_angle_beta   109.65042877
_cell_angle_gamma   90.03292847
_symmetry_Int_Tables_number   1
_chemical_formula_structural   NaAg2SbS2
_chemical_formula_sum   'Na1 Ag2 Sb1 S2'
_cell_volume   182.40890923
_cell_formula_units_Z   1
loop_
 _symmetry_equiv_pos_site_id
 _symmetry_equiv_pos_as_xyz
  1  'x, y, z'
loop_
 _atom_site_type_symbol
 _atom_site_label
 _atom_site_symmetry_multiplicity
 _atom_site_fract_x
 _atom_site_fract_y
 _atom_site_fract_z
 _atom_site_occupancy
  Na  Na0  1  0.92392904  0.67901500  0.85153905  1
  Ag  Ag1  1  0.32098500  0.07607100  0.64846100  1
  Ag  Ag2  1  0.07607102  0.32098500  0.14846102  1
  Sb  Sb3  1  0.67901506  0.92392899  0.35153907  1
  S  S4  1  0.87063100  0.12936900  0.75000002  1
  S  S5  1  0.12936907  0.87063100  0.25000005  1
