# generated using pymatgen
data_SrLiMnVO6
_symmetry_space_group_name_H-M   'P 1'
_cell_length_a   5.55708170
_cell_length_b   5.55708170
_cell_length_c   7.90282583
_cell_angle_alpha   90.00000000
_cell_angle_beta   90.00000000
_cell_angle_gamma   90.51470184
_symmetry_Int_Tables_number   1
_chemical_formula_structural   SrLiMnVO6
_chemical_formula_sum   'Sr2 Li2 Mn2 V2 O12'
_cell_volume   244.03855826
_cell_formula_units_Z   2
loop_
 _symmetry_equiv_pos_site_id
 _symmetry_equiv_pos_as_xyz
  1  'x, y, z'
loop_
 _atom_site_type_symbol
 _atom_site_label
 _atom_site_symmetry_multiplicity
 _atom_site_fract_x
 _atom_site_fract_y
 _atom_site_fract_z
 _atom_site_occupancy
  Sr  Sr0  1  0.00969802  0.99030200  0.25000001  1
  Sr  Sr1  1  0.99030200  0.00969800  0.75000002  1
  Li  Li2  1  0.50275401  0.49724600  0.25000001  1
  Li  Li3  1  0.49724601  0.50275400  0.75000002  1
  Mn  Mn4  1  0.00000001  0.50000000  -0.00000000  1
  Mn  Mn5  1  0.00000001  0.50000000  0.50000001  1
  V  V6  1  0.50000000  0.00000000  1.00000002  1
  V  V7  1  0.50000000  0.00000000  0.50000001  1
  O  O8  1  0.45736102  0.96865900  0.25000001  1
  O  O9  1  0.54263900  0.03134100  0.75000002  1
  O  O10  1  0.96865901  0.45736100  0.75000002  1
  O  O11  1  0.03134101  0.54263900  0.25000001  1
  O  O12  1  0.78798600  0.21201400  0.46380401  1
  O  O13  1  0.21201402  0.78798600  0.96380402  1
  O  O14  1  0.21201402  0.78798600  0.53619601  1
  O  O15  1  0.78798600  0.21201400  0.03619600  1
  O  O16  1  0.28944001  0.28944000  1.00000002  1
  O  O17  1  0.71056001  0.71056000  0.50000001  1
  O  O18  1  0.71056001  0.71056000  1.00000002  1
  O  O19  1  0.28944001  0.28944000  0.50000001  1
