# generated using pymatgen
data_AgSbAsS3
_symmetry_space_group_name_H-M   'P 1'
_cell_length_a   3.97448397
_cell_length_b   3.97593117
_cell_length_c   9.13380909
_cell_angle_alpha   90.00000000
_cell_angle_beta   90.00000000
_cell_angle_gamma   119.98796082
_symmetry_Int_Tables_number   1
_chemical_formula_structural   AgSbAsS3
_chemical_formula_sum   'Ag1 Sb1 As1 S3'
_cell_volume   125.01290342
_cell_formula_units_Z   1
loop_
 _symmetry_equiv_pos_site_id
 _symmetry_equiv_pos_as_xyz
  1  'x, y, z'
loop_
 _atom_site_type_symbol
 _atom_site_label
 _atom_site_symmetry_multiplicity
 _atom_site_fract_x
 _atom_site_fract_y
 _atom_site_fract_z
 _atom_site_occupancy
  Ag  Ag0  1  0.47523301  0.95046599  0.72236599  1
  Sb  Sb1  1  0.52476700  0.04953400  0.22236600  1
  S  S2  1  0.14702200  0.29404400  0.85831599  1
  As  As3  1  0.81447601  0.62895199  0.58606099  1
  S  S4  1  0.85297801  0.70595599  0.35831600  1
  S  S5  1  0.18552400  0.37104800  0.08606100  1
