# generated using pymatgen
data_VPHO
_symmetry_space_group_name_H-M   'P 1'
_cell_length_a   3.24421978
_cell_length_b   3.82240629
_cell_length_c   3.82240629
_cell_angle_alpha   96.94847870
_cell_angle_beta   96.05859375
_cell_angle_gamma   96.05859375
_symmetry_Int_Tables_number   1
_chemical_formula_structural   VPHO
_chemical_formula_sum   'V1 P1 H1 O1'
_cell_volume   46.45234981
_cell_formula_units_Z   1
loop_
 _symmetry_equiv_pos_site_id
 _symmetry_equiv_pos_as_xyz
  1  'x, y, z'
loop_
 _atom_site_type_symbol
 _atom_site_label
 _atom_site_symmetry_multiplicity
 _atom_site_fract_x
 _atom_site_fract_y
 _atom_site_fract_z
 _atom_site_occupancy
  H  H0  1  0.50000002  0.26275201  0.73724804  1
  V  V1  1  0.00000006  0.90168302  0.09831703  1
  P  P2  1  0.89062001  0.12314100  0.28347405  1
  O  O3  1  0.10938005  0.71652602  0.87685904  1
