# generated using pymatgen
data_LiAl2ZnSi3O13
_symmetry_space_group_name_H-M   'P 1'
_cell_length_a   4.87176514
_cell_length_b   5.06348085
_cell_length_c   8.75225544
_cell_angle_alpha   90.00000000
_cell_angle_beta   90.00000000
_cell_angle_gamma   90.00000000
_symmetry_Int_Tables_number   1
_chemical_formula_structural   LiAl2ZnSi3O13
_chemical_formula_sum   'Li1 Al2 Zn1 Si3 O13'
_cell_volume   215.90142047
_cell_formula_units_Z   1
loop_
 _symmetry_equiv_pos_site_id
 _symmetry_equiv_pos_as_xyz
  1  'x, y, z'
loop_
 _atom_site_type_symbol
 _atom_site_label
 _atom_site_symmetry_multiplicity
 _atom_site_fract_x
 _atom_site_fract_y
 _atom_site_fract_z
 _atom_site_occupancy
  Li  Li0  1  0.06757000  0.64222602  0.12338999  1
  Al  Al1  1  0.93242997  0.14222600  0.37660998  1
  Al  Al2  1  0.56756998  0.85777402  0.87660996  1
  Zn  Zn3  1  0.43242999  0.35777401  0.62338997  1
  Si  Si4  1  0.25740899  0.17521501  0.15835699  1
  Si  Si5  1  0.74259098  0.67521502  0.34164298  1
  Si  Si6  1  0.75740898  0.32478501  0.84164296  1
  O  O7  1  0.24259099  0.82478502  0.65835697  1
  O  O8  1  0.03091900  0.64194002  0.84728296  1
  O  O9  1  0.96908097  0.14194000  0.65271697  1
  O  O10  1  0.53091899  0.85806002  0.15271699  1
  O  O11  1  0.46908099  0.35806001  0.34728298  1
  O  O12  1  0.18828599  0.31611301  0.22896099  1
  O  O13  1  0.81171398  0.81611302  0.27103899  1
  O  O14  1  0.68828598  0.18388701  0.77103896  1
  O  O15  1  0.31171399  0.68388702  0.72896096  1
  O  O16  1  0.87913098  0.61177302  0.92288395  1
  O  O17  1  0.12086900  0.11177300  0.57711597  1
  O  O18  1  0.37913099  0.88822703  0.07711600  1
  O  O19  1  0.62086898  0.38822701  0.42288398  1
