# generated using pymatgen
data_KSrCuAsSeS2
_symmetry_space_group_name_H-M   'P 1'
_cell_length_a   5.67507267
_cell_length_b   5.67507267
_cell_length_c   9.37446690
_cell_angle_alpha   72.38088989
_cell_angle_beta   72.38088989
_cell_angle_gamma   60.00001144
_symmetry_Int_Tables_number   1
_chemical_formula_structural   KSrCuAsSeS2
_chemical_formula_sum   'K1 Sr1 Cu1 As1 Se1 S2'
_cell_volume   244.97841915
_cell_formula_units_Z   1
loop_
 _symmetry_equiv_pos_site_id
 _symmetry_equiv_pos_as_xyz
  1  'x, y, z'
loop_
 _atom_site_type_symbol
 _atom_site_label
 _atom_site_symmetry_multiplicity
 _atom_site_fract_x
 _atom_site_fract_y
 _atom_site_fract_z
 _atom_site_occupancy
  Sr  Sr0  1  0.20854901  0.20854901  0.37435298  1
  K  K1  1  0.79145102  0.79145104  0.62564695  1
  Cu  Cu2  1  0.38560901  0.38560902  0.84317295  1
  Se  Se3  1  0.61439102  0.61439103  0.15682697  1
  As  As4  1  0.00000000  0.00000000  0.00000000  1
  S  S5  1  0.08446200  0.08446200  0.74661397  1
  S  S6  1  0.91553802  0.91553805  0.25338596  1
