# generated using pymatgen
data_LiAlSi2H2C2O11
_symmetry_space_group_name_H-M   'P 1'
_cell_length_a   4.64112806
_cell_length_b   5.86723089
_cell_length_c   8.30451202
_cell_angle_alpha   103.34450531
_cell_angle_beta   99.53565979
_cell_angle_gamma   95.48657990
_symmetry_Int_Tables_number   1
_chemical_formula_structural   LiAlSi2H2C2O11
_chemical_formula_sum   'Li1 Al1 Si2 H2 C2 O11'
_cell_volume   214.86923999
_cell_formula_units_Z   1
loop_
 _symmetry_equiv_pos_site_id
 _symmetry_equiv_pos_as_xyz
  1  'x, y, z'
loop_
 _atom_site_type_symbol
 _atom_site_label
 _atom_site_symmetry_multiplicity
 _atom_site_fract_x
 _atom_site_fract_y
 _atom_site_fract_z
 _atom_site_occupancy
  Li  Li0  1  0.99929599  0.00198500  0.49663303  1
  Si  Si1  1  0.00328100  0.01021300  0.00851600  1
  Al  Al2  1  0.93310701  0.33897000  0.83702702  1
  Si  Si3  1  0.06462003  0.65928601  0.16446999  1
  H  H4  1  0.61723301  0.26688600  0.87413402  1
  C  C5  1  0.38470304  0.73253701  0.13023799  1
  H  H6  1  0.49825402  0.53268701  0.51462401  1
  C  C7  1  0.38799803  0.68254301  0.76307200  1
  O  O8  1  0.60844401  0.32011700  0.24415101  1
  O  O9  1  0.48873103  0.70213801  0.59496600  1
  O  O10  1  0.50844301  0.30768800  0.40532801  1
  O  O11  1  0.21403804  0.87977101  0.79664600  1
  O  O12  1  0.78471200  0.12117400  0.20571902  1
  O  O13  1  0.79679400  0.20516100  0.84750102  1
  O  O14  1  0.20040004  0.79120701  0.15014099  1
  O  O15  1  0.21837502  0.44708101  0.73150001  1
  O  O16  1  0.78119202  0.55347101  0.26639301  1
  O  O17  1  0.65113903  0.71450501  0.89763501  1
  O  O18  1  0.35023901  0.28757900  0.10230600  1
