# generated using pymatgen
data_KSrSb4MoSe4S4Br
_symmetry_space_group_name_H-M   'P 1'
_cell_length_a   8.13597393
_cell_length_b   8.13597393
_cell_length_c   8.13597393
_cell_angle_alpha   109.47122192
_cell_angle_beta   109.47122192
_cell_angle_gamma   109.47122192
_symmetry_Int_Tables_number   1
_chemical_formula_structural   KSrSb4MoSe4S4Br
_chemical_formula_sum   'K1 Sr1 Sb4 Mo1 Se4 S4 Br1'
_cell_volume   414.57845956
_cell_formula_units_Z   1
loop_
 _symmetry_equiv_pos_site_id
 _symmetry_equiv_pos_as_xyz
  1  'x, y, z'
loop_
 _atom_site_type_symbol
 _atom_site_label
 _atom_site_symmetry_multiplicity
 _atom_site_fract_x
 _atom_site_fract_y
 _atom_site_fract_z
 _atom_site_occupancy
  Sr  Sr0  1  0.49373804  0.15396801  0.33977004  1
  K  K1  1  0.81419706  0.15396701  0.66022906  1
  Mo  Mo2  1  0.18580307  0.84603308  0.33977107  1
  Sb  Sb3  1  0.84603208  0.33977003  0.18580205  1
  Sb  Sb4  1  0.50626209  0.84603208  0.66023010  1
  Sb  Sb5  1  0.84603210  0.66022906  0.50626208  1
  Sb  Sb6  1  0.66023007  0.50626205  0.84603309  1
  Se  Se7  1  0.15396805  0.66023006  0.81419809  1
  Se  Se8  1  0.33977005  0.49373805  0.15396704  1
  Se  Se9  1  0.15396803  0.33977103  0.49373805  1
  Se  Se10  1  0.33977003  0.18580202  0.84603207  1
  Br  Br11  1  0.66023009  0.81419808  0.15396807  1
  S  S12  1  0.50000006  0.50000005  0.50000007  1
  S  S13  1  1.00000010  0.50000005  1.00000011  1
  S  S14  1  0.00000000  0.00000000  0.50000003  1
  S  S15  1  0.50000010  1.00000010  1.00000012  1
