# generated using pymatgen
data_Li7MnO8
_symmetry_space_group_name_H-M   'P 1'
_cell_length_a   3.09869099
_cell_length_b   7.59289694
_cell_length_c   7.61633587
_cell_angle_alpha   109.42554474
_cell_angle_beta   90.00000000
_cell_angle_gamma   90.00000000
_symmetry_Int_Tables_number   1
_chemical_formula_structural   Li7MnO8
_chemical_formula_sum   'Li7 Mn1 O8'
_cell_volume   168.99655489
_cell_formula_units_Z   1
loop_
 _symmetry_equiv_pos_site_id
 _symmetry_equiv_pos_as_xyz
  1  'x, y, z'
loop_
 _atom_site_type_symbol
 _atom_site_label
 _atom_site_symmetry_multiplicity
 _atom_site_fract_x
 _atom_site_fract_y
 _atom_site_fract_z
 _atom_site_occupancy
  Li  Li0  1  0.75000000  0.56145801  0.18270503  1
  Li  Li1  1  0.25000000  0.43854201  0.81729502  1
  Li  Li2  1  0.25000000  0.19013200  0.06222701  1
  Li  Li3  1  0.75000000  0.80986802  0.93777303  1
  O  O4  1  0.25000000  0.68524302  0.56295403  1
  Li  Li5  1  0.25000000  0.93651502  0.30555404  1
  Li  Li6  1  0.75000000  0.06348500  0.69444600  1
  Li  Li7  1  0.75000000  0.31475701  0.43704601  1
  O  O8  1  0.25000000  0.19436100  0.57114501  1
  Mn  Mn9  1  0.25000000  0.93600502  0.82413904  1
  O  O10  1  0.75000000  0.06399500  0.17586100  1
  O  O11  1  0.75000000  0.80563902  0.42885504  1
  O  O12  1  0.75000000  0.56230401  0.69989402  1
  O  O13  1  0.25000000  0.68166802  0.05582503  1
  O  O14  1  0.25000000  0.43769601  0.30010602  1
  O  O15  1  0.75000000  0.31833201  0.94417501  1
