# generated using pymatgen
data_Li5TeOF11
_symmetry_space_group_name_H-M   'P 1'
_cell_length_a   5.17020607
_cell_length_b   5.17020559
_cell_length_c   9.87808514
_cell_angle_alpha   90.00000000
_cell_angle_beta   90.00000000
_cell_angle_gamma   120.00000763
_symmetry_Int_Tables_number   1
_chemical_formula_structural   Li5TeOF11
_chemical_formula_sum   'Li5 Te1 O1 F11'
_cell_volume   228.67517997
_cell_formula_units_Z   1
loop_
 _symmetry_equiv_pos_site_id
 _symmetry_equiv_pos_as_xyz
  1  'x, y, z'
loop_
 _atom_site_type_symbol
 _atom_site_label
 _atom_site_symmetry_multiplicity
 _atom_site_fract_x
 _atom_site_fract_y
 _atom_site_fract_z
 _atom_site_occupancy
  Li  Li0  1  0.66666668  0.33333333  0.74999999  1
  Li  Li1  1  0.33333338  0.66666666  0.25000000  1
  Li  Li2  1  0.00000000  0.00000000  0.00000000  1
  Li  Li3  1  0.00000000  0.00000000  0.49999999  1
  Li  Li4  1  0.33333338  0.66666666  0.74999999  1
  Te  Te5  1  0.66666668  0.33333333  0.25000000  1
  F  F6  1  0.01909103  0.36612900  0.85971399  1
  F  F7  1  0.98090901  0.34703800  0.35971400  1
  F  F8  1  0.36612900  0.01909100  0.35971400  1
  F  F9  1  0.65296204  0.63387099  0.35971400  1
  F  F10  1  0.34703802  0.36612900  0.64028599  1
  O  O11  1  0.34703807  0.98090899  0.85971399  1
  F  F12  1  0.63387104  0.65296199  0.85971399  1
  F  F13  1  0.63387106  0.98090899  0.64028599  1
  F  F14  1  0.65296199  0.01909100  0.14028600  1
  F  F15  1  0.01909105  0.65296199  0.64028599  1
  F  F16  1  0.98090903  0.63387099  0.14028600  1
  F  F17  1  0.36612902  0.34703800  0.14028600  1
