# generated using pymatgen
data_Li3PuN6
_symmetry_space_group_name_H-M   'P 1'
_cell_length_a   5.33349371
_cell_length_b   5.33349371
_cell_length_c   5.33349371
_cell_angle_alpha   60.59373856
_cell_angle_beta   60.59373856
_cell_angle_gamma   60.59373093
_symmetry_Int_Tables_number   1
_chemical_formula_structural   Li3PuN6
_chemical_formula_sum   'Li3 Pu1 N6'
_cell_volume   108.71903888
_cell_formula_units_Z   1
loop_
 _symmetry_equiv_pos_site_id
 _symmetry_equiv_pos_as_xyz
  1  'x, y, z'
loop_
 _atom_site_type_symbol
 _atom_site_label
 _atom_site_symmetry_multiplicity
 _atom_site_fract_x
 _atom_site_fract_y
 _atom_site_fract_z
 _atom_site_occupancy
  Li  Li0  1  0.75000000  0.75000001  0.75000003  1
  Li  Li1  1  0.25000000  0.25000000  0.25000001  1
  Li  Li2  1  0.00000000  0.00000000  0.00000000  1
  Pu  Pu3  1  0.50000000  0.50000000  0.50000002  1
  N  N4  1  0.19657100  0.75000001  0.30342902  1
  N  N5  1  0.75000000  0.30342900  0.19657101  1
  N  N6  1  0.30342900  0.19657100  0.75000003  1
  N  N7  1  0.80342901  0.25000000  0.69657103  1
  N  N8  1  0.69657100  0.80342901  0.25000002  1
  N  N9  1  0.25000000  0.69657101  0.80342903  1
