# generated using pymatgen
data_Na3Sr2La3O11
_symmetry_space_group_name_H-M   'P 1'
_cell_length_a   6.12935257
_cell_length_b   6.15228558
_cell_length_c   8.86220074
_cell_angle_alpha   90.00000000
_cell_angle_beta   90.00000000
_cell_angle_gamma   89.92049408
_symmetry_Int_Tables_number   1
_chemical_formula_structural   Na3Sr2La3O11
_chemical_formula_sum   'Na3 Sr2 La3 O11'
_cell_volume   334.18907980
_cell_formula_units_Z   1
loop_
 _symmetry_equiv_pos_site_id
 _symmetry_equiv_pos_as_xyz
  1  'x, y, z'
loop_
 _atom_site_type_symbol
 _atom_site_label
 _atom_site_symmetry_multiplicity
 _atom_site_fract_x
 _atom_site_fract_y
 _atom_site_fract_z
 _atom_site_occupancy
  Sr  Sr0  1  0.49087197  0.49303299  0.75000002  1
  Sr  Sr1  1  0.00191000  0.02430400  0.75000002  1
  Na  Na2  1  0.50637297  0.50649099  0.25000001  1
  La  La3  1  0.00521996  0.98779699  0.25000001  1
  La  La4  1  0.50496195  0.99846299  0.49559601  1
  La  La5  1  0.50496195  0.99846299  0.00440400  1
  Na  Na6  1  0.00475698  0.51317399  0.97924503  1
  Na  Na7  1  0.00475698  0.51317399  0.52075502  1
  O  O8  1  0.24972198  0.25632900  0.96954103  1
  O  O9  1  0.76582198  0.25398900  0.51217602  1
  O  O10  1  0.76020595  0.74096999  0.44460601  1
  O  O11  1  0.25008696  0.73883499  0.05049500  1
  O  O12  1  0.76020595  0.74096999  0.05539400  1
  O  O13  1  0.25008696  0.73883499  0.44950501  1
  O  O14  1  0.24972198  0.25632900  0.53045902  1
  O  O15  1  0.76582198  0.25398900  0.98782403  1
  O  O16  1  0.01482597  0.59148099  0.75000002  1
  O  O17  1  0.51920595  0.94203699  0.75000002  1
  O  O18  1  0.48858099  0.06793700  0.25000001  1
