# generated using pymatgen
data_CsRb4SrTeI12Br
_symmetry_space_group_name_H-M   'P 1'
_cell_length_a   6.72637510
_cell_length_b   6.72637510
_cell_length_c   18.11404991
_cell_angle_alpha   90.00000000
_cell_angle_beta   90.00000000
_cell_angle_gamma   90.00000000
_symmetry_Int_Tables_number   1
_chemical_formula_structural   CsRb4SrTeI12Br
_chemical_formula_sum   'Cs1 Rb4 Sr1 Te1 I12 Br1'
_cell_volume   819.55428458
_cell_formula_units_Z   1
loop_
 _symmetry_equiv_pos_site_id
 _symmetry_equiv_pos_as_xyz
  1  'x, y, z'
loop_
 _atom_site_type_symbol
 _atom_site_label
 _atom_site_symmetry_multiplicity
 _atom_site_fract_x
 _atom_site_fract_y
 _atom_site_fract_z
 _atom_site_occupancy
  Sr  Sr0  1  0.34134499  0.91438699  0.13714600  1
  Cs  Cs1  1  0.65865499  0.08561300  0.63714600  1
  Rb  Rb2  1  0.41438699  0.15865500  0.38714600  1
  Rb  Rb3  1  0.58561299  0.84134499  0.88714600  1
  Rb  Rb4  1  0.08561300  0.65865499  0.36285400  1
  Rb  Rb5  1  0.91438699  0.34134499  0.86285400  1
  I  I6  1  0.15865500  0.41438699  0.61285400  1
  I  I7  1  0.84134499  0.58561299  0.11285400  1
  I  I8  1  0.82770699  0.17229300  0.25000000  1
  I  I9  1  0.17229300  0.82770699  0.75000000  1
  I  I10  1  0.67229299  0.67229299  0.50000000  1
  I  I11  1  0.32770699  0.32770699  -0.00000000  1
  Te  Te12  1  0.33057099  0.41195899  0.20228900  1
  Br  Br13  1  0.66942899  0.58804099  0.70228900  1
  I  I14  1  0.91195899  0.16942900  0.45228900  1
  I  I15  1  0.08804100  0.83057099  0.95228900  1
  I  I16  1  0.58804099  0.66942899  0.29771100  1
  I  I17  1  0.41195899  0.33057099  0.79771100  1
  I  I18  1  0.16942900  0.91195899  0.54771100  1
  I  I19  1  0.83057099  0.08804100  0.04771100  1
