# generated using pymatgen
data_BH2C
_symmetry_space_group_name_H-M   'P 1'
_cell_length_a   4.33996916
_cell_length_b   4.33996916
_cell_length_c   5.73691797
_cell_angle_alpha   67.77472687
_cell_angle_beta   67.77472687
_cell_angle_gamma   60.00001526
_symmetry_Int_Tables_number   1
_chemical_formula_structural   BH2C
_chemical_formula_sum   'B1 H2 C1'
_cell_volume   84.18222924
_cell_formula_units_Z   1
loop_
 _symmetry_equiv_pos_site_id
 _symmetry_equiv_pos_as_xyz
  1  'x, y, z'
loop_
 _atom_site_type_symbol
 _atom_site_label
 _atom_site_symmetry_multiplicity
 _atom_site_fract_x
 _atom_site_fract_y
 _atom_site_fract_z
 _atom_site_occupancy
  B  B0  1  0.00000000  0.00000000  0.00000000  1
  H  H1  1  0.50000001  0.49999999  0.49999997  1
  H  H2  1  0.41979300  0.41979299  0.74062097  1
  C  C3  1  0.58020701  0.58020698  0.25937896  1
