# generated using pymatgen
data_Li2O2
_symmetry_space_group_name_H-M   'P 1'
_cell_length_a   3.57551599
_cell_length_b   6.56286287
_cell_length_c   7.32158899
_cell_angle_alpha   110.04631042
_cell_angle_beta   90.00000000
_cell_angle_gamma   90.00000000
_symmetry_Int_Tables_number   1
_chemical_formula_structural   Li2O2
_chemical_formula_sum   'Li6 O6'
_cell_volume   161.39693834
_cell_formula_units_Z   3
loop_
 _symmetry_equiv_pos_site_id
 _symmetry_equiv_pos_as_xyz
  1  'x, y, z'
loop_
 _atom_site_type_symbol
 _atom_site_label
 _atom_site_symmetry_multiplicity
 _atom_site_fract_x
 _atom_site_fract_y
 _atom_site_fract_z
 _atom_site_occupancy
  Li  Li0  1  0.27364900  0.36477599  0.78494898  1
  Li  Li1  1  0.77365000  0.63522398  0.21505097  1
  Li  Li2  1  0.74381100  0.86143497  0.78522996  1
  Li  Li3  1  0.24383100  0.13857100  0.21476899  1
  Li  Li4  1  0.73710900  0.71479398  0.55669696  1
  O  O5  1  0.23710700  0.28519699  0.44329799  1
  O  O6  1  0.26063800  0.90515497  0.85987995  1
  Li  Li7  1  0.76063500  0.09484600  0.14012400  1
  O  O8  1  0.27170800  0.37898799  0.11740898  1
  O  O9  1  0.77170900  0.62101598  0.88258997  1
  O  O10  1  0.77217700  0.13656000  0.75668999  1
  O  O11  1  0.27217600  0.86344197  0.24330995  1
