# generated using pymatgen
data_Li2O2
_symmetry_space_group_name_H-M   'P 1'
_cell_length_a   5.43157911
_cell_length_b   5.66030216
_cell_length_c   6.07135201
_cell_angle_alpha   62.21543121
_cell_angle_beta   67.94305420
_cell_angle_gamma   90.00000000
_symmetry_Int_Tables_number   1
_chemical_formula_structural   Li2O2
_chemical_formula_sum   'Li8 O8'
_cell_volume   149.52434174
_cell_formula_units_Z   4
loop_
 _symmetry_equiv_pos_site_id
 _symmetry_equiv_pos_as_xyz
  1  'x, y, z'
loop_
 _atom_site_type_symbol
 _atom_site_label
 _atom_site_symmetry_multiplicity
 _atom_site_fract_x
 _atom_site_fract_y
 _atom_site_fract_z
 _atom_site_occupancy
  Li  Li0  1  0.75443604  0.87675598  0.49640598  1
  Li  Li1  1  0.74556403  0.37316199  0.50359399  1
  Li  Li2  1  0.24556401  0.12324400  0.50359400  1
  Li  Li3  1  0.25443602  0.62683798  0.49640600  1
  Li  Li4  1  0.75000003  0.37274999  -0.00000002  1
  Li  Li5  1  0.25000002  0.62724998  -0.00000001  1
  Li  Li6  1  0.75000004  0.87511298  -0.00000003  1
  Li  Li7  1  0.25000001  0.12488700  -0.00000001  1
  O  O8  1  0.52448802  0.00421200  0.23050099  1
  O  O9  1  0.52504503  0.51314899  0.23035899  1
  O  O10  1  0.02504501  0.25649199  0.23035900  1
  O  O11  1  0.02448801  0.76528698  0.23050100  1
  O  O12  1  0.97495504  0.74350798  0.76964098  1
  O  O13  1  0.97551203  0.23471299  0.76949899  1
  O  O14  1  0.47551203  0.99578797  0.76949900  1
  O  O15  1  0.47495502  0.48685099  0.76964100  1
