# generated using pymatgen
data_Na2SrLiSN7O4
_symmetry_space_group_name_H-M   'P 1'
_cell_length_a   5.58370304
_cell_length_b   5.58370304
_cell_length_c   9.78797436
_cell_angle_alpha   90.00000000
_cell_angle_beta   90.00000000
_cell_angle_gamma   104.61603546
_symmetry_Int_Tables_number   1
_chemical_formula_structural   Na2SrLiSN7O4
_chemical_formula_sum   'Na2 Sr1 Li1 S1 N7 O4'
_cell_volume   295.29128317
_cell_formula_units_Z   1
loop_
 _symmetry_equiv_pos_site_id
 _symmetry_equiv_pos_as_xyz
  1  'x, y, z'
loop_
 _atom_site_type_symbol
 _atom_site_label
 _atom_site_symmetry_multiplicity
 _atom_site_fract_x
 _atom_site_fract_y
 _atom_site_fract_z
 _atom_site_occupancy
  Sr  Sr0  1  0.36596898  0.36596899  -0.00000000  1
  Li  Li1  1  0.86596896  0.86596898  0.49999998  1
  Na  Na2  1  0.38392499  0.17992500  0.83939497  1
  Na  Na3  1  0.00452299  0.17780300  0.41629498  1
  S  S4  1  0.50452297  0.67780298  0.08370500  1
  N  N5  1  0.03856498  0.69026498  0.39540099  1
  N  N6  1  0.69026499  0.03856500  0.60459898  1
  N  N7  1  0.19026498  0.53856499  0.89540097  1
  N  N8  1  0.53856498  0.19026500  0.10459900  1
  N  N9  1  0.67992496  0.88392498  0.33939499  1
  O  O10  1  0.08722400  0.08722400  -0.00000000  1
  N  N11  1  0.67780297  0.50452299  0.91629497  1
  O  O12  1  0.58722397  0.58722398  0.49999998  1
  N  N13  1  0.88392496  0.67992498  0.66060498  1
  O  O14  1  0.17992498  0.38392499  0.16060499  1
  O  O15  1  0.17780300  0.00452300  0.58370498  1
