# generated using pymatgen
data_CaH6O7
_symmetry_space_group_name_H-M   'P 1'
_cell_length_a   3.83109188
_cell_length_b   6.57091570
_cell_length_c   6.61215830
_cell_angle_alpha   60.58492279
_cell_angle_beta   87.81510162
_cell_angle_gamma   87.61292267
_symmetry_Int_Tables_number   1
_chemical_formula_structural   CaH6O7
_chemical_formula_sum   'Ca1 H6 O7'
_cell_volume   144.83899648
_cell_formula_units_Z   1
loop_
 _symmetry_equiv_pos_site_id
 _symmetry_equiv_pos_as_xyz
  1  'x, y, z'
loop_
 _atom_site_type_symbol
 _atom_site_label
 _atom_site_symmetry_multiplicity
 _atom_site_fract_x
 _atom_site_fract_y
 _atom_site_fract_z
 _atom_site_occupancy
  H  H0  1  0.21750104  0.66086201  0.66398200  1
  Ca  Ca1  1  0.72726004  0.33053401  0.32637401  1
  H  H2  1  0.13031604  0.71366302  0.12976602  1
  O  O3  1  0.23594001  0.13151500  0.13863500  1
  H  H4  1  0.24267301  0.13878500  0.69914399  1
  H  H5  1  0.75739604  0.27164301  0.86169099  1
  H  H6  1  0.64250907  0.86119702  0.85104201  1
  H  H7  1  0.64393807  0.84490002  0.28775802  1
  O  O8  1  0.23468604  0.61245901  0.07200902  1
  O  O9  1  0.25419401  0.07573900  0.30459700  1
  O  O10  1  0.21888402  0.30708401  0.59484499  1
  O  O11  1  0.72870704  0.38939001  0.91076700  1
  O  O12  1  0.71189407  0.91473002  0.68850901  1
  O  O13  1  0.73905506  0.68676802  0.38470502  1
