# generated using pymatgen
data_Ag2S3Cl
_symmetry_space_group_name_H-M   'P 1'
_cell_length_a   5.71437597
_cell_length_b   5.73688221
_cell_length_c   5.80583620
_cell_angle_alpha   112.68717957
_cell_angle_beta   90.00000000
_cell_angle_gamma   90.00000000
_symmetry_Int_Tables_number   1
_chemical_formula_structural   Ag2S3Cl
_chemical_formula_sum   'Ag4 S6 Cl2'
_cell_volume   175.60402519
_cell_formula_units_Z   2
loop_
 _symmetry_equiv_pos_site_id
 _symmetry_equiv_pos_as_xyz
  1  'x, y, z'
loop_
 _atom_site_type_symbol
 _atom_site_label
 _atom_site_symmetry_multiplicity
 _atom_site_fract_x
 _atom_site_fract_y
 _atom_site_fract_z
 _atom_site_occupancy
  Ag  Ag0  1  0.00909600  0.26414098  0.28782498  1
  Ag  Ag1  1  0.50909600  0.73585896  0.21217495  1
  Ag  Ag2  1  0.99090400  0.73585896  0.71217494  1
  Ag  Ag3  1  0.49090400  0.26414098  0.78782497  1
  S  S4  1  0.36542400  0.14142499  0.38173698  1
  S  S5  1  0.86542400  0.85857495  0.11826294  1
  Cl  Cl6  1  0.63457600  0.85857495  0.61826293  1
  S  S7  1  0.13457600  0.14142499  0.88173697  1
  S  S8  1  0.62874500  0.33830498  0.18495398  1
  S  S9  1  0.12874500  0.66169496  0.31504595  1
  Cl  Cl10  1  0.37125500  0.66169496  0.81504594  1
  S  S11  1  0.87125500  0.33830498  0.68495397  1
