# generated using pymatgen
data_Cu2PSO8
_symmetry_space_group_name_H-M   'P 1'
_cell_length_a   4.83823156
_cell_length_b   4.83823156
_cell_length_c   7.50463152
_cell_angle_alpha   87.87385559
_cell_angle_beta   87.87385559
_cell_angle_gamma   65.62071991
_symmetry_Int_Tables_number   1
_chemical_formula_structural   Cu2PSO8
_chemical_formula_sum   'Cu2 P1 S1 O8'
_cell_volume   159.85193786
_cell_formula_units_Z   1
loop_
 _symmetry_equiv_pos_site_id
 _symmetry_equiv_pos_as_xyz
  1  'x, y, z'
loop_
 _atom_site_type_symbol
 _atom_site_label
 _atom_site_symmetry_multiplicity
 _atom_site_fract_x
 _atom_site_fract_y
 _atom_site_fract_z
 _atom_site_occupancy
  Cu  Cu0  1  0.00000000  0.00000000  0.00000000  1
  Cu  Cu1  1  0.00000000  0.00000000  0.50000001  1
  P  P2  1  0.63647204  0.63647199  0.21473305  1
  S  S3  1  0.36352802  0.36352800  0.78526704  1
  O  O4  1  0.70571604  0.70571599  0.39000706  1
  O  O5  1  0.29428402  0.29428400  0.60999303  1
  O  O6  1  0.76167402  0.29605400  0.19505604  1
  O  O7  1  0.23832604  0.70394599  0.80494405  1
  O  O8  1  0.70394602  0.23832600  0.80494405  1
  O  O9  1  0.29605404  0.76167399  0.19505604  1
  O  O10  1  0.76070205  0.76070199  0.06247105  1
  O  O11  1  0.23929801  0.23929800  0.93752904  1
