# generated using pymatgen
data_Li5Cu(N3O)2
_symmetry_space_group_name_H-M   'P 1'
_cell_length_a   6.46468687
_cell_length_b   6.46468687
_cell_length_c   6.46468687
_cell_angle_alpha   60.00000000
_cell_angle_beta   60.00000000
_cell_angle_gamma   60.00000000
_symmetry_Int_Tables_number   1
_chemical_formula_structural   Li5Cu(N3O)2
_chemical_formula_sum   'Li5 Cu1 N6 O2'
_cell_volume   191.04139631
_cell_formula_units_Z   1
loop_
 _symmetry_equiv_pos_site_id
 _symmetry_equiv_pos_as_xyz
  1  'x, y, z'
loop_
 _atom_site_type_symbol
 _atom_site_label
 _atom_site_symmetry_multiplicity
 _atom_site_fract_x
 _atom_site_fract_y
 _atom_site_fract_z
 _atom_site_occupancy
  Li  Li0  1  0.37500001  0.87500001  0.87500001  1
  Li  Li1  1  0.87500001  0.87500001  0.37500001  1
  Li  Li2  1  0.87500001  0.37500001  0.87500001  1
  Li  Li3  1  0.87500001  0.87500001  0.87500001  1
  Cu  Cu4  1  0.25000000  0.25000000  0.25000000  1
  Li  Li5  1  0.50000001  0.50000001  0.50000001  1
  N  N6  1  0.11593500  0.11593500  0.11593500  1
  N  N7  1  0.63406501  0.09780500  0.63406501  1
  O  O8  1  0.09780500  0.63406501  0.63406501  1
  N  N9  1  0.63406501  0.63406501  0.09780500  1
  O  O10  1  0.65219501  0.11593500  0.11593500  1
  N  N11  1  0.11593500  0.11593500  0.65219501  1
  N  N12  1  0.63406501  0.63406501  0.63406501  1
  N  N13  1  0.11593500  0.65219501  0.11593500  1
