# generated using pymatgen
data_NaLiAgO3
_symmetry_space_group_name_H-M   'P 1'
_cell_length_a   3.01343608
_cell_length_b   4.19719410
_cell_length_c   5.23144960
_cell_angle_alpha   113.65010071
_cell_angle_beta   106.73895264
_cell_angle_gamma   90.00000000
_symmetry_Int_Tables_number   1
_chemical_formula_structural   NaLiAgO3
_chemical_formula_sum   'Na1 Li1 Ag1 O3'
_cell_volume   57.53613686
_cell_formula_units_Z   1
loop_
 _symmetry_equiv_pos_site_id
 _symmetry_equiv_pos_as_xyz
  1  'x, y, z'
loop_
 _atom_site_type_symbol
 _atom_site_label
 _atom_site_symmetry_multiplicity
 _atom_site_fract_x
 _atom_site_fract_y
 _atom_site_fract_z
 _atom_site_occupancy
  Li  Li0  1  0.00055900  0.00055900  0.00111800  1
  Na  Na1  1  0.33639301  0.33639299  0.67278600  1
  Ag  Ag2  1  0.66356201  0.66356198  0.32712401  1
  O  O3  1  0.00974401  0.50974398  0.01948799  1
  O  O4  1  0.32041802  0.82041797  0.64083599  1
  O  O5  1  0.66932500  0.16932499  0.33865002  1
