# generated using pymatgen
data_ZnAg2SnS4
_symmetry_space_group_name_H-M   'P 1'
_cell_length_a   5.57778597
_cell_length_b   5.57778597
_cell_length_c   7.24990177
_cell_angle_alpha   112.62388611
_cell_angle_beta   112.62388611
_cell_angle_gamma   90.00000000
_symmetry_Int_Tables_number   1
_chemical_formula_structural   ZnAg2SnS4
_chemical_formula_sum   'Zn1 Ag2 Sn1 S4'
_cell_volume   189.25841620
_cell_formula_units_Z   1
loop_
 _symmetry_equiv_pos_site_id
 _symmetry_equiv_pos_as_xyz
  1  'x, y, z'
loop_
 _atom_site_type_symbol
 _atom_site_label
 _atom_site_symmetry_multiplicity
 _atom_site_fract_x
 _atom_site_fract_y
 _atom_site_fract_z
 _atom_site_occupancy
  Zn  Zn0  1  0.00000000  0.00000000  0.00000000  1
  Ag  Ag1  1  0.75000003  0.25000001  0.50000004  1
  Ag  Ag2  1  0.25000005  0.75000003  0.50000005  1
  Sn  Sn3  1  0.50000004  0.50000002  0.00000005  1
  S  S4  1  0.63948005  0.63948002  0.76839105  1
  S  S5  1  0.12891101  0.12891100  0.76839100  1
  S  S6  1  0.36052006  0.87108903  0.23160907  1
  S  S7  1  0.87108904  0.36052001  0.23160906  1
