# generated using pymatgen
data_CuSiSbAs(SeS)2
_symmetry_space_group_name_H-M   'P 1'
_cell_length_a   7.11695194
_cell_length_b   7.17430210
_cell_length_c   7.29194260
_cell_angle_alpha   91.93479156
_cell_angle_beta   116.13160706
_cell_angle_gamma   116.90915680
_symmetry_Int_Tables_number   1
_chemical_formula_structural   CuSiSbAs(SeS)2
_chemical_formula_sum   'Cu1 Si1 Sb1 As1 Se2 S2'
_cell_volume   285.15758599
_cell_formula_units_Z   1
loop_
 _symmetry_equiv_pos_site_id
 _symmetry_equiv_pos_as_xyz
  1  'x, y, z'
loop_
 _atom_site_type_symbol
 _atom_site_label
 _atom_site_symmetry_multiplicity
 _atom_site_fract_x
 _atom_site_fract_y
 _atom_site_fract_z
 _atom_site_occupancy
  Cu  Cu0  1  0.93104597  0.84808898  0.77981199  1
  Sb  Sb1  1  0.06895399  0.15191100  0.22018800  1
  Si  Si2  1  0.34509700  0.17160400  0.51739800  1
  As  As3  1  0.78902197  0.78527899  0.01918298  1
  S  S4  1  0.11851996  0.68097499  0.80344298  1
  S  S5  1  0.65490296  0.82839598  0.48260198  1
  Se  Se6  1  0.21097799  0.21472100  0.98081700  1
  Se  Se7  1  0.88148000  0.31902499  0.19655700  1
