# generated using pymatgen
data_CsRb3BiTeS4I3BrCl2
_symmetry_space_group_name_H-M   'P 1'
_cell_length_a   6.78816509
_cell_length_b   8.37319183
_cell_length_c   8.81509209
_cell_angle_alpha   90.00000000
_cell_angle_beta   90.00000000
_cell_angle_gamma   90.00000000
_symmetry_Int_Tables_number   1
_chemical_formula_structural   CsRb3BiTeS4I3BrCl2
_chemical_formula_sum   'Cs1 Rb3 Bi1 Te1 S4 I3 Br1 Cl2'
_cell_volume   501.03756816
_cell_formula_units_Z   1
loop_
 _symmetry_equiv_pos_site_id
 _symmetry_equiv_pos_as_xyz
  1  'x, y, z'
loop_
 _atom_site_type_symbol
 _atom_site_label
 _atom_site_symmetry_multiplicity
 _atom_site_fract_x
 _atom_site_fract_y
 _atom_site_fract_z
 _atom_site_occupancy
  Rb  Rb0  1  0.48825999  0.54481401  0.74999999  1
  Cs  Cs1  1  0.51173999  0.45518601  0.25000000  1
  Rb  Rb2  1  0.01174000  0.04481400  0.74999999  1
  Rb  Rb3  1  0.98825999  0.95518602  0.25000000  1
  Te  Te4  1  0.63325399  0.33699201  0.93952099  1
  Bi  Bi5  1  0.36674600  0.66300801  0.43952100  1
  Br  Br6  1  0.86674599  0.83699202  0.93952099  1
  I  I7  1  0.13325400  0.16300800  0.43952100  1
  S  S8  1  0.64963699  0.07056100  0.25000000  1
  Cl  Cl9  1  0.35036300  0.92943902  0.74999999  1
  I  I10  1  0.85036299  0.57056101  0.25000000  1
  S  S11  1  0.14963700  0.42943901  0.74999999  1
  I  I12  1  0.13325400  0.16300800  0.06047900  1
  Cl  Cl13  1  0.86674599  0.83699202  0.56047899  1
  S  S14  1  0.36674600  0.66300801  0.06047900  1
  S  S15  1  0.63325399  0.33699201  0.56047899  1
