# generated using pymatgen
data_Na3NbO6
_symmetry_space_group_name_H-M   'P 1'
_cell_length_a   5.83176422
_cell_length_b   5.83176422
_cell_length_c   6.13913536
_cell_angle_alpha   61.64284134
_cell_angle_beta   61.64284134
_cell_angle_gamma   60.00000000
_symmetry_Int_Tables_number   1
_chemical_formula_structural   Na3NbO6
_chemical_formula_sum   'Na3 Nb1 O6'
_cell_volume   151.19636571
_cell_formula_units_Z   1
loop_
 _symmetry_equiv_pos_site_id
 _symmetry_equiv_pos_as_xyz
  1  'x, y, z'
loop_
 _atom_site_type_symbol
 _atom_site_label
 _atom_site_symmetry_multiplicity
 _atom_site_fract_x
 _atom_site_fract_y
 _atom_site_fract_z
 _atom_site_occupancy
  Na  Na0  1  0.70926897  0.70926897  0.87219301  1
  Na  Na1  1  0.20926899  0.20926899  0.37219300  1
  Na  Na2  1  0.99873796  0.99873796  0.00378603  1
  Nb  Nb3  1  0.49873798  0.49873798  0.50378601  1
  O  O4  1  0.29367599  0.61538598  0.20400601  1
  O  O5  1  0.88693196  0.29367599  0.20400601  1
  O  O6  1  0.61538597  0.88693196  0.20400602  1
  O  O7  1  0.38693198  0.11538600  0.70400600  1
  O  O8  1  0.11538599  0.79367597  0.70400601  1
  O  O9  1  0.79367597  0.38693198  0.70400601  1
