# generated using pymatgen
data_MnAlVSiO10
_symmetry_space_group_name_H-M   'P 1'
_cell_length_a   3.63468409
_cell_length_b   6.32489920
_cell_length_c   11.41933060
_cell_angle_alpha   90.00000000
_cell_angle_beta   90.00000000
_cell_angle_gamma   90.00000000
_symmetry_Int_Tables_number   1
_chemical_formula_structural   MnAlVSiO10
_chemical_formula_sum   'Mn1 Al1 V1 Si1 O10'
_cell_volume   262.51911048
_cell_formula_units_Z   1
loop_
 _symmetry_equiv_pos_site_id
 _symmetry_equiv_pos_as_xyz
  1  'x, y, z'
loop_
 _atom_site_type_symbol
 _atom_site_label
 _atom_site_symmetry_multiplicity
 _atom_site_fract_x
 _atom_site_fract_y
 _atom_site_fract_z
 _atom_site_occupancy
  Mn  Mn0  1  0.00000000  0.08398100  0.14887701  1
  Al  Al1  1  0.49999999  0.91601897  0.35112301  1
  V  V2  1  0.49999999  0.91601897  0.64887702  1
  Si  Si3  1  0.00000000  0.08398100  0.85112303  1
  O  O4  1  0.00000000  0.98488097  -0.00000000  1
  O  O5  1  0.00000000  0.33694199  0.13983700  1
  O  O6  1  0.49999999  0.00864500  0.18160001  1
  O  O7  1  0.00000000  0.99135497  0.31840001  1
  O  O8  1  0.49999999  0.66305798  0.36016301  1
  O  O9  1  0.49999999  0.01511900  0.50000002  1
  O  O10  1  0.49999999  0.66305798  0.63983702  1
  O  O11  1  0.00000000  0.99135497  0.68160002  1
  O  O12  1  0.49999999  0.00864500  0.81840003  1
  O  O13  1  0.00000000  0.33694199  0.86016303  1
