# generated using pymatgen
data_CsRb3BrCl5
_symmetry_space_group_name_H-M   'P 1'
_cell_length_a   7.73848772
_cell_length_b   7.73848772
_cell_length_c   8.48719597
_cell_angle_alpha   62.87765884
_cell_angle_beta   62.87765884
_cell_angle_gamma   60.00000381
_symmetry_Int_Tables_number   1
_chemical_formula_structural   CsRb3BrCl5
_chemical_formula_sum   'Cs1 Rb3 Br1 Cl5'
_cell_volume   374.23221839
_cell_formula_units_Z   1
loop_
 _symmetry_equiv_pos_site_id
 _symmetry_equiv_pos_as_xyz
  1  'x, y, z'
loop_
 _atom_site_type_symbol
 _atom_site_label
 _atom_site_symmetry_multiplicity
 _atom_site_fract_x
 _atom_site_fract_y
 _atom_site_fract_z
 _atom_site_occupancy
  Rb  Rb0  1  0.85950701  0.85950699  0.42147894  1
  Rb  Rb1  1  0.14049300  0.14049300  0.57852099  1
  Rb  Rb2  1  0.65641701  0.65641699  0.03074896  1
  Cs  Cs3  1  0.34358300  0.34358299  0.96925097  1
  Br  Br4  1  0.05456101  0.70370299  0.77382097  1
  Cl  Cl5  1  0.70370300  0.46791499  0.77382096  1
  Cl  Cl6  1  0.46791500  0.05456100  0.77382098  1
  Cl  Cl7  1  0.94543900  0.29629700  0.22617896  1
  Cl  Cl8  1  0.53208502  0.94543899  0.22617895  1
  Cl  Cl9  1  0.29629701  0.53208499  0.22617897  1
