# generated using pymatgen
data_Li6V2AgP6O
_symmetry_space_group_name_H-M   'P 1'
_cell_length_a   6.90046692
_cell_length_b   6.90046692
_cell_length_c   6.90046692
_cell_angle_alpha   60.00000000
_cell_angle_beta   60.00000000
_cell_angle_gamma   60.00000000
_symmetry_Int_Tables_number   1
_chemical_formula_structural   Li6V2AgP6O
_chemical_formula_sum   'Li6 V2 Ag1 P6 O1'
_cell_volume   232.33810175
_cell_formula_units_Z   1
loop_
 _symmetry_equiv_pos_site_id
 _symmetry_equiv_pos_as_xyz
  1  'x, y, z'
loop_
 _atom_site_type_symbol
 _atom_site_label
 _atom_site_symmetry_multiplicity
 _atom_site_fract_x
 _atom_site_fract_y
 _atom_site_fract_z
 _atom_site_occupancy
  Li  Li0  1  0.50000001  0.50000001  0.50000001  1
  Ag  Ag1  1  0.00000000  0.00000000  0.00000000  1
  Li  Li2  1  0.50000001  0.00000000  0.50000001  1
  Li  Li3  1  0.50000001  0.50000001  -0.00000000  1
  Li  Li4  1  -0.00000000  0.50000001  0.50000001  1
  P  P5  1  -0.00000000  0.50000001  0.00000000  1
  O  O6  1  0.50000001  0.00000000  -0.00000000  1
  P  P7  1  -0.00000000  0.00000000  0.50000001  1
  Li  Li8  1  0.57495101  0.14168300  0.14168300  1
  P  P9  1  0.85831701  0.85831701  0.42504900  1
  Li  Li10  1  0.85831701  0.42504900  0.85831701  1
  P  P11  1  0.85831701  0.85831701  0.85831701  1
  V  V12  1  0.14168300  0.57495101  0.14168300  1
  P  P13  1  0.14168300  0.14168300  0.14168300  1
  V  V14  1  0.42504900  0.85831701  0.85831701  1
  P  P15  1  0.14168300  0.14168300  0.57495101  1
