# generated using pymatgen
data_CsRb2BiF6
_symmetry_space_group_name_H-M   'P 1'
_cell_length_a   6.91695404
_cell_length_b   6.91695404
_cell_length_c   6.91695404
_cell_angle_alpha   60.00000000
_cell_angle_beta   60.00000000
_cell_angle_gamma   60.00000000
_symmetry_Int_Tables_number   1
_chemical_formula_structural   CsRb2BiF6
_chemical_formula_sum   'Cs1 Rb2 Bi1 F6'
_cell_volume   234.00744363
_cell_formula_units_Z   1
loop_
 _symmetry_equiv_pos_site_id
 _symmetry_equiv_pos_as_xyz
  1  'x, y, z'
loop_
 _atom_site_type_symbol
 _atom_site_label
 _atom_site_symmetry_multiplicity
 _atom_site_fract_x
 _atom_site_fract_y
 _atom_site_fract_z
 _atom_site_occupancy
  Rb  Rb0  1  0.74999998  0.74999998  0.74999998  1
  Cs  Cs1  1  0.24999999  0.24999999  0.24999999  1
  Rb  Rb2  1  0.49999999  0.49999999  0.49999999  1
  Bi  Bi3  1  0.00000000  0.00000000  0.00000000  1
  F  F4  1  0.77463198  0.22536800  0.77463198  1
  F  F5  1  0.22536800  0.77463198  0.77463198  1
  F  F6  1  0.77463198  0.22536800  0.22536800  1
  F  F7  1  0.77463198  0.77463198  0.22536800  1
  F  F8  1  0.22536800  0.22536800  0.77463198  1
  F  F9  1  0.22536800  0.77463198  0.22536800  1
