# generated using pymatgen
data_Li2O2
_symmetry_space_group_name_H-M   'P 1'
_cell_length_a   5.03220987
_cell_length_b   5.55062819
_cell_length_c   6.27552223
_cell_angle_alpha   90.00000000
_cell_angle_beta   90.00000000
_cell_angle_gamma   90.00000000
_symmetry_Int_Tables_number   1
_chemical_formula_structural   Li2O2
_chemical_formula_sum   'Li8 O8'
_cell_volume   175.28742232
_cell_formula_units_Z   4
loop_
 _symmetry_equiv_pos_site_id
 _symmetry_equiv_pos_as_xyz
  1  'x, y, z'
loop_
 _atom_site_type_symbol
 _atom_site_label
 _atom_site_symmetry_multiplicity
 _atom_site_fract_x
 _atom_site_fract_y
 _atom_site_fract_z
 _atom_site_occupancy
  Li  Li0  1  0.99298303  0.33383599  0.25021699  1
  Li  Li1  1  0.49298301  0.66616398  0.24978299  1
  Li  Li2  1  0.99298303  0.33383599  0.74978297  1
  Li  Li3  1  0.49298301  0.66616398  0.75021697  1
  Li  Li4  1  0.49897001  0.16718299  -0.00000000  1
  Li  Li5  1  0.99897003  0.83281697  0.49999998  1
  Li  Li6  1  0.99617803  0.83470597  -0.00000000  1
  Li  Li7  1  0.49617801  0.16529399  0.49999998  1
  O  O8  1  0.85437902  0.15335199  0.00000000  1
  O  O9  1  0.37526201  0.86424597  -0.00000000  1
  O  O10  1  0.89462702  0.68174998  0.26202799  1
  O  O11  1  0.39462701  0.31824999  0.23797199  1
  O  O12  1  0.87526202  0.13575400  0.49999998  1
  O  O13  1  0.35437901  0.84664797  0.49999998  1
  O  O14  1  0.39462701  0.31824999  0.76202797  1
  O  O15  1  0.89462702  0.68174998  0.73797197  1
