# generated using pymatgen
data_BaNa2SrO6
_symmetry_space_group_name_H-M   'P 1'
_cell_length_a   3.98382401
_cell_length_b   4.32703495
_cell_length_c   10.77669144
_cell_angle_alpha   88.64812469
_cell_angle_beta   87.25237274
_cell_angle_gamma   63.04427338
_symmetry_Int_Tables_number   1
_chemical_formula_structural   BaNa2SrO6
_chemical_formula_sum   'Ba1 Na2 Sr1 O6'
_cell_volume   165.39683416
_cell_formula_units_Z   1
loop_
 _symmetry_equiv_pos_site_id
 _symmetry_equiv_pos_as_xyz
  1  'x, y, z'
loop_
 _atom_site_type_symbol
 _atom_site_label
 _atom_site_symmetry_multiplicity
 _atom_site_fract_x
 _atom_site_fract_y
 _atom_site_fract_z
 _atom_site_occupancy
  Ba  Ba0  1  0.72720201  0.65892097  0.67056403  1
  Sr  Sr1  1  0.94878500  0.10154000  0.97734604  1
  Na  Na2  1  0.37309300  0.19878799  0.33828301  1
  Na  Na3  1  0.38301900  0.32429499  0.89038803  1
  O  O4  1  0.04571800  0.00277500  0.77748202  1
  O  O5  1  0.05217101  0.96650096  0.25654001  1
  O  O6  1  0.12936800  0.06743500  0.51470302  1
  O  O7  1  0.72741800  0.61370797  0.36239702  1
  O  O8  1  0.69147301  0.68803997  0.98494204  1
  O  O9  1  0.39841900  0.28266299  0.13202301  1
