# generated using pymatgen
data_Li4MoO5
_symmetry_space_group_name_H-M   'P 1'
_cell_length_a   6.43139601
_cell_length_b   6.46997404
_cell_length_c   6.55370235
_cell_angle_alpha   60.42172623
_cell_angle_beta   81.02403259
_cell_angle_gamma   71.57406616
_symmetry_Int_Tables_number   1
_chemical_formula_structural   Li4MoO5
_chemical_formula_sum   'Li4 Mo1 O5'
_cell_volume   225.00858799
_cell_formula_units_Z   1
loop_
 _symmetry_equiv_pos_site_id
 _symmetry_equiv_pos_as_xyz
  1  'x, y, z'
loop_
 _atom_site_type_symbol
 _atom_site_label
 _atom_site_symmetry_multiplicity
 _atom_site_fract_x
 _atom_site_fract_y
 _atom_site_fract_z
 _atom_site_occupancy
  Mo  Mo0  1  0.99709101  0.85177299  0.16713103  1
  Li  Li1  1  0.99759201  0.15898600  0.49313001  1
  Li  Li2  1  0.49709101  0.01890400  0.83286900  1
  Li  Li3  1  0.49759200  0.65211599  0.50687001  1
  O  O4  1  0.86758001  0.21239200  0.16972401  1
  O  O5  1  0.87996901  0.86100099  0.83992202  1
  Li  Li6  1  0.37996900  0.70092299  0.16007801  1
  O  O7  1  0.88276701  0.53827799  0.50190302  1
  O  O8  1  0.36758000  0.38211600  0.83027601  1
  O  O9  1  0.38276701  0.04018100  0.49809700  1
