# generated using pymatgen
data_CsRb3IBr4ClO4
_symmetry_space_group_name_H-M   'P 1'
_cell_length_a   7.59243107
_cell_length_b   8.13508415
_cell_length_c   7.62629509
_cell_angle_alpha   90.00000000
_cell_angle_beta   63.97415924
_cell_angle_gamma   90.00000000
_symmetry_Int_Tables_number   1
_chemical_formula_structural   CsRb3IBr4ClO4
_chemical_formula_sum   'Cs1 Rb3 I1 Br4 Cl1 O4'
_cell_volume   423.27353328
_cell_formula_units_Z   1
loop_
 _symmetry_equiv_pos_site_id
 _symmetry_equiv_pos_as_xyz
  1  'x, y, z'
loop_
 _atom_site_type_symbol
 _atom_site_label
 _atom_site_symmetry_multiplicity
 _atom_site_fract_x
 _atom_site_fract_y
 _atom_site_fract_z
 _atom_site_occupancy
  Rb  Rb0  1  -0.00000000  0.49999999  0.50000000  1
  Cs  Cs1  1  0.00000000  0.00000000  0.00000000  1
  Rb  Rb2  1  0.39784499  0.11200800  0.24088501  1
  Rb  Rb3  1  0.60215498  0.61200799  0.25911502  1
  Br  Br4  1  0.39784499  0.38799199  0.74088501  1
  Br  Br5  1  0.60215498  0.88799198  0.75911502  1
  I  I6  1  0.18064900  0.66221399  0.07436101  1
  Br  Br7  1  0.18064900  0.83778598  0.57436100  1
  Br  Br8  1  0.81935098  0.16221400  0.42563903  1
  Cl  Cl9  1  0.81935098  0.33778599  0.92563902  1
  O  O10  1  0.33901199  0.38711599  0.43657701  1
  O  O11  1  0.66098798  0.88711598  0.06342302  1
  O  O12  1  0.33901199  0.11288400  0.93657701  1
  O  O13  1  0.66098798  0.61288399  0.56342302  1
