# generated using pymatgen
data_AgWSeS
_symmetry_space_group_name_H-M   'P 1'
_cell_length_a   4.22496843
_cell_length_b   4.22496843
_cell_length_c   6.92533398
_cell_angle_alpha   89.99989319
_cell_angle_beta   89.99989319
_cell_angle_gamma   60.00412750
_symmetry_Int_Tables_number   1
_chemical_formula_structural   AgWSeS
_chemical_formula_sum   'Ag1 W1 Se1 S1'
_cell_volume   107.06224659
_cell_formula_units_Z   1
loop_
 _symmetry_equiv_pos_site_id
 _symmetry_equiv_pos_as_xyz
  1  'x, y, z'
loop_
 _atom_site_type_symbol
 _atom_site_label
 _atom_site_symmetry_multiplicity
 _atom_site_fract_x
 _atom_site_fract_y
 _atom_site_fract_z
 _atom_site_occupancy
  Ag  Ag0  1  0.66666670  0.66666667  0.00012597  1
  W  W1  1  0.33333335  0.33333334  0.49713798  1
  Se  Se2  1  0.33333335  0.33333334  0.10853998  1
  S  S3  1  0.66666670  0.66666667  0.64219597  1
