# generated using pymatgen
data_K3NaAg4Se3S7
_symmetry_space_group_name_H-M   'P 1'
_cell_length_a   6.01734877
_cell_length_b   7.69126701
_cell_length_c   11.71738434
_cell_angle_alpha   103.06797791
_cell_angle_beta   90.00000000
_cell_angle_gamma   90.00000000
_symmetry_Int_Tables_number   1
_chemical_formula_structural   K3NaAg4Se3S7
_chemical_formula_sum   'K3 Na1 Ag4 Se3 S7'
_cell_volume   528.24865619
_cell_formula_units_Z   1
loop_
 _symmetry_equiv_pos_site_id
 _symmetry_equiv_pos_as_xyz
  1  'x, y, z'
loop_
 _atom_site_type_symbol
 _atom_site_label
 _atom_site_symmetry_multiplicity
 _atom_site_fract_x
 _atom_site_fract_y
 _atom_site_fract_z
 _atom_site_occupancy
  K  K0  1  0.52157702  0.25000000  0.25000000  1
  K  K1  1  0.00000000  0.00000000  0.00000000  1
  Na  Na2  1  0.47842302  0.75000001  0.75000000  1
  K  K3  1  0.00000000  0.50000001  0.50000000  1
  Ag  Ag4  1  0.75002703  0.53281101  0.03186202  1
  Ag  Ag5  1  0.24997301  0.03281100  0.53186198  1
  Ag  Ag6  1  0.24997301  0.46718901  0.96813798  1
  Ag  Ag7  1  0.75002703  0.96718901  0.46813802  1
  Se  Se8  1  0.24920301  0.75000001  0.25000002  1
  Se  Se9  1  0.75079703  0.25000000  0.74999998  1
  S  S10  1  0.03087500  0.04459800  0.31139399  1
  S  S11  1  0.52981302  0.19308900  0.92641898  1
  S  S12  1  0.47018702  0.80691101  0.07358103  1
  S  S13  1  0.52981302  0.30691100  0.57358099  1
  S  S14  1  0.03087500  0.45540201  0.18860601  1
  S  S15  1  0.47018702  0.69308901  0.42641901  1
  S  S16  1  0.96912504  0.54459801  0.81139399  1
  Se  Se17  1  0.96912504  0.95540201  0.68860601  1
