# generated using pymatgen
data_CsKRbInCl6
_symmetry_space_group_name_H-M   'P 1'
_cell_length_a   8.11936951
_cell_length_b   8.11936951
_cell_length_c   8.11936951
_cell_angle_alpha   60.00000000
_cell_angle_beta   60.00000000
_cell_angle_gamma   60.00000000
_symmetry_Int_Tables_number   1
_chemical_formula_structural   CsKRbInCl6
_chemical_formula_sum   'Cs1 Rb1 K1 In1 Cl6'
_cell_volume   378.48783123
_cell_formula_units_Z   1
loop_
 _symmetry_equiv_pos_site_id
 _symmetry_equiv_pos_as_xyz
  1  'x, y, z'
loop_
 _atom_site_type_symbol
 _atom_site_label
 _atom_site_symmetry_multiplicity
 _atom_site_fract_x
 _atom_site_fract_y
 _atom_site_fract_z
 _atom_site_occupancy
  Rb  Rb0  1  0.49999998  0.49999998  0.49999998  1
  Cs  Cs1  1  0.24999999  0.24999999  0.24999999  1
  K  K2  1  0.74999997  0.74999997  0.74999997  1
  In  In3  1  0.00000000  0.00000000  0.00000000  1
  Cl  Cl4  1  0.21747399  0.78252597  0.21747399  1
  Cl  Cl5  1  0.21747399  0.21747399  0.78252597  1
  Cl  Cl6  1  0.78252597  0.21747399  0.78252597  1
  Cl  Cl7  1  0.21747399  0.78252597  0.78252597  1
  Cl  Cl8  1  0.78252597  0.21747399  0.21747399  1
  Cl  Cl9  1  0.78252597  0.78252597  0.21747399  1
