# generated using pymatgen
data_Na2SrSO6
_symmetry_space_group_name_H-M   'P 1'
_cell_length_a   5.63040161
_cell_length_b   5.63040161
_cell_length_c   5.72743893
_cell_angle_alpha   60.55888748
_cell_angle_beta   60.55888748
_cell_angle_gamma   60.00000381
_symmetry_Int_Tables_number   1
_chemical_formula_structural   Na2SrSO6
_chemical_formula_sum   'Na2 Sr1 S1 O6'
_cell_volume   129.46183929
_cell_formula_units_Z   1
loop_
 _symmetry_equiv_pos_site_id
 _symmetry_equiv_pos_as_xyz
  1  'x, y, z'
loop_
 _atom_site_type_symbol
 _atom_site_label
 _atom_site_symmetry_multiplicity
 _atom_site_fract_x
 _atom_site_fract_y
 _atom_site_fract_z
 _atom_site_occupancy
  Sr  Sr0  1  0.78619498  0.78619500  0.64141504  1
  Na  Na1  1  0.28499399  0.28499400  0.14501801  1
  Na  Na2  1  0.50332999  0.50333000  0.49001003  1
  S  S3  1  0.01050600  0.01050600  0.96848203  1
  O  O4  1  0.98728500  0.12142600  0.33221802  1
  O  O5  1  0.12142599  0.55907100  0.33221802  1
  O  O6  1  0.55907098  0.98728501  0.33221803  1
  O  O7  1  0.45481300  0.08223900  0.83960603  1
  O  O8  1  0.08223899  0.62334200  0.83960604  1
  O  O9  1  0.62334199  0.45481300  0.83960604  1
