# generated using pymatgen
data_Na3SrLi3BiO12
_symmetry_space_group_name_H-M   'P 1'
_cell_length_a   4.00848103
_cell_length_b   7.98824596
_cell_length_c   8.92408943
_cell_angle_alpha   116.58765411
_cell_angle_beta   90.00000000
_cell_angle_gamma   90.00000000
_symmetry_Int_Tables_number   1
_chemical_formula_structural   Na3SrLi3BiO12
_chemical_formula_sum   'Na3 Sr1 Li3 Bi1 O12'
_cell_volume   255.53739448
_cell_formula_units_Z   1
loop_
 _symmetry_equiv_pos_site_id
 _symmetry_equiv_pos_as_xyz
  1  'x, y, z'
loop_
 _atom_site_type_symbol
 _atom_site_label
 _atom_site_symmetry_multiplicity
 _atom_site_fract_x
 _atom_site_fract_y
 _atom_site_fract_z
 _atom_site_occupancy
  Sr  Sr0  1  0.50000000  0.38573799  0.25655698  1
  Na  Na1  1  0.50000000  0.12918100  0.74344299  1
  Na  Na2  1  0.50000000  0.87081898  0.25655696  1
  Li  Li3  1  0.50000000  0.61426199  0.74344297  1
  Na  Na4  1  0.00000000  0.00000000  0.00000000  1
  Li  Li5  1  0.99999999  0.74940199  0.49880397  1
  Bi  Bi6  1  0.00000000  0.49999999  0.99999998  1
  Li  Li7  1  0.00000000  0.25059800  0.50119599  1
  O  O8  1  0.99999999  0.62504699  0.25009397  1
  O  O9  1  0.00000000  0.37495299  0.74990598  1
  O  O10  1  0.00000000  0.12999200  0.25998399  1
  O  O11  1  0.00000000  0.87000798  0.74001596  1
  O  O12  1  0.00000000  0.49999999  0.49999998  1
  O  O13  1  0.00000000  0.25808500  0.99999999  1
  O  O14  1  0.00000000  0.00000000  0.50000000  1
  O  O15  1  0.00000000  0.74191499  0.99999996  1
  O  O16  1  0.50000000  0.74725199  0.49450397  1
  O  O17  1  0.50000000  0.49999999  0.99999998  1
  O  O18  1  0.50000000  0.25274800  0.50549599  1
  O  O19  1  0.50000000  0.00000000  -0.00000000  1
