# generated using pymatgen
data_NaSr3Li2BiPbO12
_symmetry_space_group_name_H-M   'P 1'
_cell_length_a   5.82887697
_cell_length_b   6.06382418
_cell_length_c   8.33515930
_cell_angle_alpha   90.00000000
_cell_angle_beta   90.00000000
_cell_angle_gamma   90.00000000
_symmetry_Int_Tables_number   1
_chemical_formula_structural   NaSr3Li2BiPbO12
_chemical_formula_sum   'Na1 Sr3 Li2 Bi1 Pb1 O12'
_cell_volume   294.60858194
_cell_formula_units_Z   1
loop_
 _symmetry_equiv_pos_site_id
 _symmetry_equiv_pos_as_xyz
  1  'x, y, z'
loop_
 _atom_site_type_symbol
 _atom_site_label
 _atom_site_symmetry_multiplicity
 _atom_site_fract_x
 _atom_site_fract_y
 _atom_site_fract_z
 _atom_site_occupancy
  Sr  Sr0  1  0.50000000  0.79020398  0.76396397  1
  Sr  Sr1  1  0.50000000  0.79020398  0.23603599  1
  Sr  Sr2  1  0.00000000  0.20979599  0.73603597  1
  Na  Na3  1  0.00000000  0.20979599  0.26396399  1
  Li  Li4  1  0.00000000  0.72605598  0.49999998  1
  Bi  Bi5  1  0.50000000  0.27394399  -0.00000000  1
  Pb  Pb6  1  0.50000000  0.23728299  0.49999998  1
  Li  Li7  1  0.00000000  0.76271698  -0.00000000  1
  O  O8  1  0.50000000  0.21908599  0.73303797  1
  O  O9  1  0.50000000  0.21908599  0.26696199  1
  O  O10  1  0.00000000  0.78091398  0.76696197  1
  O  O11  1  0.00000000  0.78091398  0.23303799  1
  O  O12  1  0.73374700  0.00174700  0.49999998  1
  O  O13  1  0.26625300  0.00174700  0.49999998  1
  O  O14  1  0.74276700  0.45101699  0.49999998  1
  O  O15  1  0.25723300  0.45101699  0.49999998  1
  O  O16  1  0.24276700  0.54898298  -0.00000000  1
  O  O17  1  0.75723300  0.54898298  -0.00000000  1
  O  O18  1  0.76625300  0.99825297  -0.00000000  1
  O  O19  1  0.23374700  0.99825297  -0.00000000  1
