# generated using pymatgen
data_Na3SrCu3AgS6
_symmetry_space_group_name_H-M   'P 1'
_cell_length_a   7.53436899
_cell_length_b   7.54644251
_cell_length_c   7.54644251
_cell_angle_alpha   65.42377472
_cell_angle_beta   83.64222717
_cell_angle_gamma   96.35777283
_symmetry_Int_Tables_number   1
_chemical_formula_structural   Na3SrCu3AgS6
_chemical_formula_sum   'Na3 Sr1 Cu3 Ag1 S6'
_cell_volume   381.92315941
_cell_formula_units_Z   1
loop_
 _symmetry_equiv_pos_site_id
 _symmetry_equiv_pos_as_xyz
  1  'x, y, z'
loop_
 _atom_site_type_symbol
 _atom_site_label
 _atom_site_symmetry_multiplicity
 _atom_site_fract_x
 _atom_site_fract_y
 _atom_site_fract_z
 _atom_site_occupancy
  Na  Na0  1  0.15631303  0.36671901  0.63328102  1
  Sr  Sr1  1  1.00000009  0.80371602  0.80371599  1
  Na  Na2  1  0.00000001  0.19628401  0.19628401  1
  Na  Na3  1  0.50000007  0.74317002  0.74317001  1
  Cu  Cu4  1  0.50000004  0.25683001  0.25682999  1
  Ag  Ag5  1  0.84368707  0.63328102  0.36671898  1
  Cu  Cu6  1  0.65061504  0.17891101  0.82108900  1
  Cu  Cu7  1  0.34938507  0.82108902  0.17891100  1
  S  S8  1  0.34341102  0.09771900  0.90228101  1
  S  S9  1  0.77314804  0.16070400  0.55438298  1
  S  S10  1  0.77314806  0.44561701  0.83929600  1
  S  S11  1  0.22685205  0.55438302  0.16070400  1
  S  S12  1  0.22685206  0.83929602  0.44561702  1
  S  S13  1  0.65658909  0.90228103  0.09771899  1
