# generated using pymatgen
data_Na2Ag2S3
_symmetry_space_group_name_H-M   'P 1'
_cell_length_a   6.20583010
_cell_length_b   6.20583010
_cell_length_c   7.67149496
_cell_angle_alpha   113.85812378
_cell_angle_beta   113.85812378
_cell_angle_gamma   90.00000000
_symmetry_Int_Tables_number   1
_chemical_formula_structural   Na2Ag2S3
_chemical_formula_sum   'Na2 Ag2 S3'
_cell_volume   242.33918593
_cell_formula_units_Z   1
loop_
 _symmetry_equiv_pos_site_id
 _symmetry_equiv_pos_as_xyz
  1  'x, y, z'
loop_
 _atom_site_type_symbol
 _atom_site_label
 _atom_site_symmetry_multiplicity
 _atom_site_fract_x
 _atom_site_fract_y
 _atom_site_fract_z
 _atom_site_occupancy
  Na  Na0  1  0.24999994  0.74999996  0.49999992  1
  Na  Na1  1  0.74999995  0.24999999  0.49999993  1
  Ag  Ag2  1  0.49999995  0.49999997  -0.00000006  1
  Ag  Ag3  1  0.63317597  0.09857099  0.73174694  1
  S  S4  1  0.90142890  0.90142895  0.26825288  1
  S  S5  1  0.09857096  0.63317597  0.73174693  1
  S  S6  1  0.36682396  0.36682398  0.26825295  1
