# generated using pymatgen
data_Na2LiAlO4
_symmetry_space_group_name_H-M   'P 1'
_cell_length_a   3.24122190
_cell_length_b   3.24122143
_cell_length_c   12.52261925
_cell_angle_alpha   90.00000000
_cell_angle_beta   90.00000000
_cell_angle_gamma   120.00000763
_symmetry_Int_Tables_number   1
_chemical_formula_structural   Na2LiAlO4
_chemical_formula_sum   'Na2 Li1 Al1 O4'
_cell_volume   113.93134934
_cell_formula_units_Z   1
loop_
 _symmetry_equiv_pos_site_id
 _symmetry_equiv_pos_as_xyz
  1  'x, y, z'
loop_
 _atom_site_type_symbol
 _atom_site_label
 _atom_site_symmetry_multiplicity
 _atom_site_fract_x
 _atom_site_fract_y
 _atom_site_fract_z
 _atom_site_occupancy
  Al  Al0  1  0.00000000  0.00000000  0.00000000  1
  Li  Li1  1  0.00000000  0.00000000  0.49999999  1
  Na  Na2  1  0.33333338  0.66666670  0.25000000  1
  Na  Na3  1  0.66666670  0.33333335  0.74999999  1
  O  O4  1  0.66666670  0.33333335  0.58202099  1
  O  O5  1  0.33333338  0.66666670  0.08202100  1
  O  O6  1  0.66666670  0.33333335  0.91797898  1
  O  O7  1  0.33333338  0.66666670  0.41797899  1
