# generated using pymatgen
data_SrZn(Si2O5)2
_symmetry_space_group_name_H-M   'P 1'
_cell_length_a   5.66529322
_cell_length_b   5.66529322
_cell_length_c   7.20614338
_cell_angle_alpha   103.89424133
_cell_angle_beta   103.89424133
_cell_angle_gamma   106.15042877
_symmetry_Int_Tables_number   1
_chemical_formula_structural   SrZn(Si2O5)2
_chemical_formula_sum   'Sr1 Zn1 Si4 O10'
_cell_volume   203.63898831
_cell_formula_units_Z   1
loop_
 _symmetry_equiv_pos_site_id
 _symmetry_equiv_pos_as_xyz
  1  'x, y, z'
loop_
 _atom_site_type_symbol
 _atom_site_label
 _atom_site_symmetry_multiplicity
 _atom_site_fract_x
 _atom_site_fract_y
 _atom_site_fract_z
 _atom_site_occupancy
  Sr  Sr0  1  0.33173796  0.66826196  0.24999996  1
  Zn  Zn1  1  0.66826196  0.33173798  0.74999996  1
  Si  Si2  1  0.00000000  0.00000000  0.00000000  1
  Si  Si3  1  0.00000000  0.00000000  0.49999999  1
  Si  Si4  1  0.67819496  0.32180498  0.24999997  1
  Si  Si5  1  0.32180496  0.67819496  0.74999996  1
  O  O6  1  0.38054397  0.26087199  0.07828398  1
  O  O7  1  0.73912795  0.61945596  0.42171595  1
  O  O8  1  0.10204097  0.67192396  0.88034796  1
  O  O9  1  0.32807596  0.89795895  0.61965195  1
  O  O10  1  0.89795895  0.32807598  0.11965196  1
  O  O11  1  0.67192397  0.10204099  0.38034797  1
  O  O12  1  0.61945595  0.73912796  0.92171594  1
  O  O13  1  0.26087198  0.38054398  0.57828397  1
  O  O14  1  0.08171097  0.91828895  0.24999996  1
  O  O15  1  0.91828895  0.08171100  0.74999996  1
