# generated using pymatgen
data_Na2Li4PrNdO12
_symmetry_space_group_name_H-M   'P 1'
_cell_length_a   5.29992819
_cell_length_b   5.80563307
_cell_length_c   7.67750597
_cell_angle_alpha   90.00000000
_cell_angle_beta   90.00000000
_cell_angle_gamma   90.00000000
_symmetry_Int_Tables_number   1
_chemical_formula_structural   Na2Li4PrNdO12
_chemical_formula_sum   'Na2 Li4 Pr1 Nd1 O12'
_cell_volume   236.23254662
_cell_formula_units_Z   1
loop_
 _symmetry_equiv_pos_site_id
 _symmetry_equiv_pos_as_xyz
  1  'x, y, z'
loop_
 _atom_site_type_symbol
 _atom_site_label
 _atom_site_symmetry_multiplicity
 _atom_site_fract_x
 _atom_site_fract_y
 _atom_site_fract_z
 _atom_site_occupancy
  Pr  Pr0  1  0.03028000  0.41658800  0.25000000  1
  Li  Li1  1  0.96971997  0.58341199  0.75000000  1
  Na  Na2  1  0.53027998  0.08341200  0.75000000  1
  Nd  Nd3  1  0.46971998  0.91658799  0.25000000  1
  Na  Na4  1  0.00000000  0.00000000  0.00000000  1
  Li  Li5  1  0.49999998  0.49999999  -0.00000000  1
  Li  Li6  1  0.00000000  0.00000000  0.50000000  1
  Li  Li7  1  0.49999998  0.49999999  0.50000000  1
  O  O8  1  0.32115099  0.19131100  0.06376000  1
  O  O9  1  0.67884898  0.80868899  0.93624000  1
  O  O10  1  0.82115097  0.30868900  0.93624000  1
  O  O11  1  0.67884898  0.80868899  0.56376000  1
  O  O12  1  0.17884899  0.69131099  0.06376000  1
  O  O13  1  0.32115099  0.19131100  0.43624000  1
  O  O14  1  0.17884899  0.69131099  0.43624000  1
  O  O15  1  0.82115097  0.30868900  0.56376000  1
  O  O16  1  0.63483898  0.55319499  0.25000000  1
  O  O17  1  0.36516099  0.44680499  0.75000000  1
  O  O18  1  0.13483900  0.94680499  0.75000000  1
  O  O19  1  0.86516097  0.05319500  0.25000000  1
