# generated using pymatgen
data_Li3VZnBO10
_symmetry_space_group_name_H-M   'P 1'
_cell_length_a   5.31012344
_cell_length_b   5.38601255
_cell_length_c   9.23027706
_cell_angle_alpha   73.63674164
_cell_angle_beta   74.38469696
_cell_angle_gamma   60.75215912
_symmetry_Int_Tables_number   1
_chemical_formula_structural   Li3VZnBO10
_chemical_formula_sum   'Li3 V1 Zn1 B1 O10'
_cell_volume   218.26027058
_cell_formula_units_Z   1
loop_
 _symmetry_equiv_pos_site_id
 _symmetry_equiv_pos_as_xyz
  1  'x, y, z'
loop_
 _atom_site_type_symbol
 _atom_site_label
 _atom_site_symmetry_multiplicity
 _atom_site_fract_x
 _atom_site_fract_y
 _atom_site_fract_z
 _atom_site_occupancy
  Li  Li0  1  0.48688899  0.48791802  0.49053204  1
  Li  Li1  1  0.73996498  0.74099903  0.73728306  1
  B  B2  1  0.98689497  0.98784804  0.99054608  1
  Li  Li3  1  0.23991899  0.24100701  0.23729802  1
  O  O4  1  0.36509399  0.36419602  0.39095503  1
  Zn  Zn5  1  0.86509498  0.86408004  0.89098707  1
  V  V6  1  0.14097600  0.14090101  0.11466801  1
  O  O7  1  0.64110398  0.64095403  0.61461505  1
  O  O8  1  0.84261499  0.45863102  0.34244404  1
  O  O9  1  0.34265797  0.95850204  0.84247205  1
  O  O10  1  0.22433198  0.60775603  0.10768502  1
  O  O11  1  0.72428000  0.10782700  0.60770604  1
  O  O12  1  0.28420897  0.90047104  0.40053703  1
  O  O13  1  0.78426699  0.40036902  0.90046306  1
  O  O14  1  0.66581800  0.04924400  0.16589802  1
  O  O15  1  0.16588598  0.54929602  0.66591104  1
