# generated using pymatgen
data_KRb2SbCl6
_symmetry_space_group_name_H-M   'P 1'
_cell_length_a   8.06385517
_cell_length_b   8.06385517
_cell_length_c   8.06385517
_cell_angle_alpha   60.00000000
_cell_angle_beta   60.00000000
_cell_angle_gamma   60.00000000
_symmetry_Int_Tables_number   1
_chemical_formula_structural   KRb2SbCl6
_chemical_formula_sum   'Rb2 K1 Sb1 Cl6'
_cell_volume   370.77731877
_cell_formula_units_Z   1
loop_
 _symmetry_equiv_pos_site_id
 _symmetry_equiv_pos_as_xyz
  1  'x, y, z'
loop_
 _atom_site_type_symbol
 _atom_site_label
 _atom_site_symmetry_multiplicity
 _atom_site_fract_x
 _atom_site_fract_y
 _atom_site_fract_z
 _atom_site_occupancy
  Rb  Rb0  1  0.25000001  0.25000001  0.25000001  1
  K  K1  1  0.75000004  0.75000004  0.75000004  1
  Rb  Rb2  1  0.50000003  0.50000003  0.50000003  1
  Sb  Sb3  1  0.00000000  0.00000000  0.00000000  1
  Cl  Cl4  1  0.24591901  0.75408104  0.24591901  1
  Cl  Cl5  1  0.24591901  0.24591901  0.75408104  1
  Cl  Cl6  1  0.75408104  0.24591901  0.75408104  1
  Cl  Cl7  1  0.24591901  0.75408104  0.75408104  1
  Cl  Cl8  1  0.75408104  0.24591901  0.24591901  1
  Cl  Cl9  1  0.75408104  0.75408104  0.24591901  1
