# generated using pymatgen
data_Cs2K2Rb2NaOF6
_symmetry_space_group_name_H-M   'P 1'
_cell_length_a   7.35643291
_cell_length_b   7.35643291
_cell_length_c   7.35649252
_cell_angle_alpha   98.51134491
_cell_angle_beta   98.51134491
_cell_angle_gamma   115.37129211
_symmetry_Int_Tables_number   1
_chemical_formula_structural   Cs2K2Rb2NaOF6
_chemical_formula_sum   'Cs2 Rb2 K2 Na1 O1 F6'
_cell_volume   345.65194606
_cell_formula_units_Z   1
loop_
 _symmetry_equiv_pos_site_id
 _symmetry_equiv_pos_as_xyz
  1  'x, y, z'
loop_
 _atom_site_type_symbol
 _atom_site_label
 _atom_site_symmetry_multiplicity
 _atom_site_fract_x
 _atom_site_fract_y
 _atom_site_fract_z
 _atom_site_occupancy
  Rb  Rb0  1  0.37444201  0.37444201  0.66445998  1
  K  K1  1  0.20275202  0.79724801  0.49999998  1
  Rb  Rb2  1  0.79724801  0.20275200  0.49999997  1
  Cs  Cs3  1  0.25332801  0.74667201  -0.00000002  1
  Na  Na4  1  0.74667201  0.25332800  -0.00000003  1
  Cs  Cs5  1  0.62555801  0.62555801  0.33553997  1
  K  K6  1  0.15935800  0.15935800  0.14840699  1
  F  F7  1  0.84064202  0.84064201  0.85159296  1
  O  O8  1  0.09422900  0.09422900  0.86964300  1
  F  F9  1  0.40041801  0.15225600  0.26249699  1
  F  F10  1  0.15225601  0.40041801  0.26249699  1
  F  F11  1  0.84774402  0.59958201  0.73750296  1
  F  F12  1  0.59958202  0.84774401  0.73750296  1
  F  F13  1  0.90577102  0.90577101  0.13035695  1
