# generated using pymatgen
data_SrLi3BiSb2PbSeO10F
_symmetry_space_group_name_H-M   'P 1'
_cell_length_a   7.61769247
_cell_length_b   7.61769247
_cell_length_c   7.61769247
_cell_angle_alpha   60.00000000
_cell_angle_beta   60.00000000
_cell_angle_gamma   60.00000000
_symmetry_Int_Tables_number   1
_chemical_formula_structural   SrLi3BiSb2PbSeO10F
_chemical_formula_sum   'Sr1 Li3 Bi1 Sb2 Pb1 Se1 O10 F1'
_cell_volume   312.57577040
_cell_formula_units_Z   1
loop_
 _symmetry_equiv_pos_site_id
 _symmetry_equiv_pos_as_xyz
  1  'x, y, z'
loop_
 _atom_site_type_symbol
 _atom_site_label
 _atom_site_symmetry_multiplicity
 _atom_site_fract_x
 _atom_site_fract_y
 _atom_site_fract_z
 _atom_site_occupancy
  Li  Li0  1  0.37500000  0.87500000  0.87500000  1
  Li  Li1  1  0.87500000  0.87500000  0.37500000  1
  Sr  Sr2  1  0.87500000  0.87500000  0.87500000  1
  Bi  Bi3  1  0.87500000  0.37500000  0.87500000  1
  Pb  Pb4  1  0.37500000  0.87500000  0.37500000  1
  Li  Li5  1  0.87500000  0.37500000  0.37500000  1
  Sb  Sb6  1  0.37500000  0.37500000  0.37500000  1
  Se  Se7  1  0.37500000  0.37500000  0.87500000  1
  Sb  Sb8  1  0.93530100  0.56469900  0.93530100  1
  O  O9  1  0.81469900  0.81469900  0.18530100  1
  O  O10  1  0.18530100  0.81469900  0.18530100  1
  O  O11  1  0.93530100  0.56469900  0.56469900  1
  F  F12  1  0.56469900  0.93530100  0.93530100  1
  O  O13  1  0.56469900  0.56469900  0.93530100  1
  O  O14  1  0.18530100  0.18530100  0.81469900  1
  O  O15  1  0.18530100  0.81469900  0.81469900  1
  O  O16  1  0.81469900  0.18530100  0.18530100  1
  O  O17  1  0.56469900  0.93530100  0.56469900  1
  O  O18  1  0.93530100  0.93530100  0.56469900  1
  O  O19  1  0.81469900  0.18530100  0.81469900  1
