# generated using pymatgen
data_LiAlSi4(PO3)2
_symmetry_space_group_name_H-M   'P 1'
_cell_length_a   3.61865807
_cell_length_b   4.79729319
_cell_length_c   11.55150795
_cell_angle_alpha   90.00000000
_cell_angle_beta   90.00000000
_cell_angle_gamma   90.00000000
_symmetry_Int_Tables_number   1
_chemical_formula_structural   LiAlSi4(PO3)2
_chemical_formula_sum   'Li1 Al1 Si4 P2 O6'
_cell_volume   200.53144818
_cell_formula_units_Z   1
loop_
 _symmetry_equiv_pos_site_id
 _symmetry_equiv_pos_as_xyz
  1  'x, y, z'
loop_
 _atom_site_type_symbol
 _atom_site_label
 _atom_site_symmetry_multiplicity
 _atom_site_fract_x
 _atom_site_fract_y
 _atom_site_fract_z
 _atom_site_occupancy
  Li  Li0  1  0.00000000  0.61173298  0.64949600  1
  Al  Al1  1  0.49999999  0.38826698  0.85050400  1
  Si  Si2  1  0.49999999  0.38826698  0.14949600  1
  Si  Si3  1  0.00000000  0.61173298  0.35050400  1
  Si  Si4  1  0.49999999  0.51171698  0.68183600  1
  Si  Si5  1  0.00000000  0.48828298  0.81816400  1
  P  P6  1  0.00000000  0.48828298  0.18183600  1
  P  P7  1  0.49999999  0.51171698  0.31816400  1
  O  O8  1  0.00000000  0.94713296  0.35497600  1
  O  O9  1  0.49999999  0.05286700  0.14502400  1
  O  O10  1  0.49999999  0.05286700  0.85497600  1
  O  O11  1  0.49999999  0.49872998  -0.00000000  1
  O  O12  1  0.00000000  0.50126998  0.50000000  1
  O  O13  1  0.00000000  0.94713296  0.64502400  1
