# generated using pymatgen
data_NaSrLiCuAg2SbSeS4
_symmetry_space_group_name_H-M   'P 1'
_cell_length_a   4.15017605
_cell_length_b   9.34643364
_cell_length_c   10.82410431
_cell_angle_alpha   106.05107117
_cell_angle_beta   90.00000000
_cell_angle_gamma   102.82765961
_symmetry_Int_Tables_number   1
_chemical_formula_structural   NaSrLiCuAg2SbSeS4
_chemical_formula_sum   'Na1 Sr1 Li1 Cu1 Ag2 Sb1 Se1 S4'
_cell_volume   392.57654105
_cell_formula_units_Z   1
loop_
 _symmetry_equiv_pos_site_id
 _symmetry_equiv_pos_as_xyz
  1  'x, y, z'
loop_
 _atom_site_type_symbol
 _atom_site_label
 _atom_site_symmetry_multiplicity
 _atom_site_fract_x
 _atom_site_fract_y
 _atom_site_fract_z
 _atom_site_occupancy
  Li  Li0  1  0.13901800  0.27803600  0.41599900  1
  Sr  Sr1  1  0.86098198  0.72196400  0.58400100  1
  Ag  Ag2  1  0.23842499  0.47685000  0.30234400  1
  Na  Na3  1  0.76157499  0.52315000  0.69765599  1
  Ag  Ag4  1  0.56301099  0.12602200  0.08287600  1
  Cu  Cu5  1  0.43698899  0.87397800  0.91712399  1
  Se  Se6  1  0.15317000  0.30634000  0.05415100  1
  Sb  Sb7  1  0.84682998  0.69366000  0.94584899  1
  S  S8  1  0.16313099  0.32626200  0.67278199  1
  S  S9  1  0.83686898  0.67373800  0.32721800  1
  S  S10  1  0.54368199  0.08736400  0.32393600  1
  S  S11  1  0.45631799  0.91263600  0.67606400  1
