# generated using pymatgen
data_Li4V2SiPO6
_symmetry_space_group_name_H-M   'P 1'
_cell_length_a   5.86597395
_cell_length_b   5.99831438
_cell_length_c   5.99831438
_cell_angle_alpha   61.66962433
_cell_angle_beta   60.72719193
_cell_angle_gamma   60.72719193
_symmetry_Int_Tables_number   1
_chemical_formula_structural   Li4V2SiPO6
_chemical_formula_sum   'Li4 V2 Si1 P1 O6'
_cell_volume   152.71213191
_cell_formula_units_Z   1
loop_
 _symmetry_equiv_pos_site_id
 _symmetry_equiv_pos_as_xyz
  1  'x, y, z'
loop_
 _atom_site_type_symbol
 _atom_site_label
 _atom_site_symmetry_multiplicity
 _atom_site_fract_x
 _atom_site_fract_y
 _atom_site_fract_z
 _atom_site_occupancy
  Li  Li0  1  0.87570801  0.37429200  0.87429201  1
  Si  Si1  1  0.12429201  0.62570800  0.12570799  1
  Li  Li2  1  0.00000002  0.99999999  0.49999998  1
  Li  Li3  1  0.50000000  0.00000000  0.50000001  1
  Li  Li4  1  0.50000001  0.50000000  0.50000000  1
  V  V5  1  0.50000000  0.00000000  0.00000001  1
  V  V6  1  0.25601300  0.20936600  0.27860700  1
  P  P7  1  0.25601402  0.77860600  0.70936599  1
  O  O8  1  0.70769302  0.77457000  0.27457000  1
  O  O9  1  0.24316702  0.77457000  0.27456999  1
  O  O10  1  0.74398702  0.79063399  0.72139300  1
  O  O11  1  0.74398600  0.22139400  0.29063401  1
  O  O12  1  0.29230700  0.22543000  0.72543000  1
  O  O13  1  0.75683300  0.22543000  0.72543001  1
