# generated using pymatgen
data_KNa2CuHS6O
_symmetry_space_group_name_H-M   'P 1'
_cell_length_a   6.58960819
_cell_length_b   6.77615452
_cell_length_c   7.67497253
_cell_angle_alpha   94.35435486
_cell_angle_beta   90.00000000
_cell_angle_gamma   119.09342194
_symmetry_Int_Tables_number   1
_chemical_formula_structural   KNa2CuHS6O
_chemical_formula_sum   'K1 Na2 Cu1 H1 S6 O1'
_cell_volume   298.33221283
_cell_formula_units_Z   1
loop_
 _symmetry_equiv_pos_site_id
 _symmetry_equiv_pos_as_xyz
  1  'x, y, z'
loop_
 _atom_site_type_symbol
 _atom_site_label
 _atom_site_symmetry_multiplicity
 _atom_site_fract_x
 _atom_site_fract_y
 _atom_site_fract_z
 _atom_site_occupancy
  Na  Na0  1  0.00000000  0.00000000  0.00000000  1
  K  K1  1  0.31713899  0.63427801  0.86172601  1
  Cu  Cu2  1  0.00000000  0.00000000  0.50000001  1
  Na  Na3  1  0.68286098  0.36572201  0.13827400  1
  O  O4  1  0.33693798  0.67387601  0.33984300  1
  H  H5  1  0.66306198  0.32612400  0.66015701  1
  S  S6  1  0.60883498  0.77401301  0.21209699  1
  S  S7  1  0.83482197  0.22598700  0.78790302  1
  S  S8  1  0.39116499  0.22598700  0.78790302  1
  S  S9  1  0.16517799  0.77401301  0.21209699  1
  S  S10  1  0.81909297  0.63818601  0.73081101  1
  S  S11  1  0.18090699  0.36181401  0.26918900  1
