# generated using pymatgen
data_Li3Cu(SeS3)2
_symmetry_space_group_name_H-M   'P 1'
_cell_length_a   6.27132607
_cell_length_b   6.27132607
_cell_length_c   6.27132607
_cell_angle_alpha   90.00000000
_cell_angle_beta   90.00000000
_cell_angle_gamma   90.00000000
_symmetry_Int_Tables_number   1
_chemical_formula_structural   Li3Cu(SeS3)2
_chemical_formula_sum   'Li3 Cu1 Se2 S6'
_cell_volume   246.64831047
_cell_formula_units_Z   1
loop_
 _symmetry_equiv_pos_site_id
 _symmetry_equiv_pos_as_xyz
  1  'x, y, z'
loop_
 _atom_site_type_symbol
 _atom_site_label
 _atom_site_symmetry_multiplicity
 _atom_site_fract_x
 _atom_site_fract_y
 _atom_site_fract_z
 _atom_site_occupancy
  Li  Li0  1  0.49999999  0.49999999  -0.00000000  1
  Li  Li1  1  0.49999999  0.00000000  0.49999999  1
  Li  Li2  1  0.00000000  0.49999999  0.49999999  1
  Cu  Cu3  1  0.00000000  0.00000000  0.00000000  1
  Se  Se4  1  0.13192900  0.86807099  0.36807100  1
  S  S5  1  0.86807099  0.36807100  0.13192900  1
  S  S6  1  0.36807100  0.13192900  0.86807099  1
  S  S7  1  0.63192899  0.63192899  0.63192899  1
  S  S8  1  0.86807099  0.13192900  0.63192899  1
  S  S9  1  0.13192900  0.63192899  0.86807099  1
  Se  Se10  1  0.63192899  0.86807099  0.13192900  1
  S  S11  1  0.36807100  0.36807100  0.36807100  1
