# generated using pymatgen
data_NaLi2AgS2Cl
_symmetry_space_group_name_H-M   'P 1'
_cell_length_a   3.80619788
_cell_length_b   6.76978636
_cell_length_c   6.76978636
_cell_angle_alpha   108.73212433
_cell_angle_beta   90.00000000
_cell_angle_gamma   90.00000000
_symmetry_Int_Tables_number   1
_chemical_formula_structural   NaLi2AgS2Cl
_chemical_formula_sum   'Na1 Li2 Ag1 S2 Cl1'
_cell_volume   165.19815628
_cell_formula_units_Z   1
loop_
 _symmetry_equiv_pos_site_id
 _symmetry_equiv_pos_as_xyz
  1  'x, y, z'
loop_
 _atom_site_type_symbol
 _atom_site_label
 _atom_site_symmetry_multiplicity
 _atom_site_fract_x
 _atom_site_fract_y
 _atom_site_fract_z
 _atom_site_occupancy
  Li  Li0  1  0.50000002  0.00000000  0.49999999  1
  Li  Li1  1  0.50000002  0.50000000  0.00000003  1
  Na  Na2  1  0.00000000  0.00000000  0.00000000  1
  Ag  Ag3  1  0.50000002  0.23344400  0.23344401  1
  S  S4  1  0.50000002  0.76655600  0.76655603  1
  Cl  Cl5  1  -0.00000000  0.24003500  0.75996500  1
  S  S6  1  -0.00000000  0.75996500  0.24003504  1
