# generated using pymatgen
data_NaAgS2
_symmetry_space_group_name_H-M   'P 1'
_cell_length_a   5.93613195
_cell_length_b   5.93613195
_cell_length_c   7.45328093
_cell_angle_alpha   113.46711731
_cell_angle_beta   113.46711731
_cell_angle_gamma   90.00000000
_symmetry_Int_Tables_number   1
_chemical_formula_structural   NaAgS2
_chemical_formula_sum   'Na2 Ag2 S4'
_cell_volume   217.02672928
_cell_formula_units_Z   2
loop_
 _symmetry_equiv_pos_site_id
 _symmetry_equiv_pos_as_xyz
  1  'x, y, z'
loop_
 _atom_site_type_symbol
 _atom_site_label
 _atom_site_symmetry_multiplicity
 _atom_site_fract_x
 _atom_site_fract_y
 _atom_site_fract_z
 _atom_site_occupancy
  Na  Na0  1  0.00000000  0.00000000  0.00000000  1
  Na  Na1  1  0.74999997  0.24999999  0.49999996  1
  Ag  Ag2  1  0.49999996  0.49999999  -0.00000006  1
  Ag  Ag3  1  0.24999995  0.74999998  0.49999994  1
  S  S4  1  0.74012295  0.74012298  0.48024592  1
  S  S5  1  0.49012294  0.99012297  0.98024592  1
  S  S6  1  0.25987698  0.25987699  0.51975398  1
  S  S7  1  0.00987697  0.50987699  0.01975397  1
