# generated using pymatgen
data_Li6VFe2O11
_symmetry_space_group_name_H-M   'P 1'
_cell_length_a   6.35986519
_cell_length_b   6.38229847
_cell_length_c   6.38780689
_cell_angle_alpha   90.94661713
_cell_angle_beta   90.96466064
_cell_angle_gamma   90.75106049
_symmetry_Int_Tables_number   1
_chemical_formula_structural   Li6VFe2O11
_chemical_formula_sum   'Li6 V1 Fe2 O11'
_cell_volume   259.18927668
_cell_formula_units_Z   1
loop_
 _symmetry_equiv_pos_site_id
 _symmetry_equiv_pos_as_xyz
  1  'x, y, z'
loop_
 _atom_site_type_symbol
 _atom_site_label
 _atom_site_symmetry_multiplicity
 _atom_site_fract_x
 _atom_site_fract_y
 _atom_site_fract_z
 _atom_site_occupancy
  Li  Li0  1  0.56107498  0.05500500  0.74763102  1
  Li  Li1  1  0.94270897  0.24797799  0.43737503  1
  Li  Li2  1  0.25292398  0.43152699  0.94571499  1
  Li  Li3  1  0.43775996  0.95084698  0.25099698  1
  Li  Li4  1  0.06039798  0.75052498  0.56458797  1
  Li  Li5  1  0.74641896  0.56551699  0.05624201  1
  Fe  Fe6  1  0.49824397  0.49769699  0.49979800  1
  Fe  Fe7  1  0.00124700  0.00332300  0.00045800  1
  O  O8  1  0.04168598  0.69684399  0.91072997  1
  O  O9  1  0.70179295  0.90799898  0.04412600  1
  O  O10  1  0.91305497  0.03769700  0.69802903  1
  V  V11  1  0.95509896  0.30310799  0.09208203  1
  O  O12  1  0.29929599  0.08916200  0.95702301  1
  O  O13  1  0.09000497  0.95699498  0.30045297  1
  O  O14  1  0.80048496  0.57545399  0.41882801  1
  O  O15  1  0.57333797  0.42303399  0.79867401  1
  O  O16  1  0.41767697  0.79692998  0.57164199  1
  O  O17  1  0.19697198  0.43206399  0.57537199  1
  O  O18  1  0.43245997  0.57506399  0.19962400  1
  O  O19  1  0.57735798  0.20322900  0.43061301  1
