# generated using pymatgen
data_LiN
_symmetry_space_group_name_H-M   'P 1'
_cell_length_a   5.79622984
_cell_length_b   5.96834803
_cell_length_c   8.23252296
_cell_angle_alpha   90.00000000
_cell_angle_beta   90.63947296
_cell_angle_gamma   90.00000000
_symmetry_Int_Tables_number   1
_chemical_formula_structural   LiN
_chemical_formula_sum   'Li10 N10'
_cell_volume   284.77747779
_cell_formula_units_Z   10
loop_
 _symmetry_equiv_pos_site_id
 _symmetry_equiv_pos_as_xyz
  1  'x, y, z'
loop_
 _atom_site_type_symbol
 _atom_site_label
 _atom_site_symmetry_multiplicity
 _atom_site_fract_x
 _atom_site_fract_y
 _atom_site_fract_z
 _atom_site_occupancy
  Li  Li0  1  0.48027501  0.54882700  0.25752501  1
  Li  Li1  1  0.01972500  0.04882700  0.24247499  1
  Li  Li2  1  0.51972501  0.45117300  0.74247500  1
  Li  Li3  1  0.98027503  0.95117300  0.75752502  1
  Li  Li4  1  0.50000001  1.00000000  0.00000002  1
  Li  Li5  1  0.00000000  0.50000000  0.49999999  1
  Li  Li6  1  0.50000001  0.00000000  0.50000001  1
  Li  Li7  1  0.00000000  0.50000000  0.00000000  1
  N  N8  1  0.20498301  0.79442100  0.05664401  1
  N  N9  1  0.29501701  0.29442100  0.44335600  1
  Li  Li10  1  0.79501702  0.20557900  0.94335601  1
  N  N11  1  0.70498302  0.70557900  0.55664402  1
  N  N12  1  0.61173602  0.96133900  0.24996102  1
  N  N13  1  0.88826403  0.46133900  0.25003903  1
  N  N14  1  0.38826401  0.03866100  0.75003900  1
  N  N15  1  0.11173600  0.53866100  0.74996098  1
  Li  Li16  1  0.79199102  0.20823600  0.56345402  1
  N  N17  1  0.70800902  0.70823600  0.93654601  1
  N  N18  1  0.20800901  0.79176400  0.43654600  1
  N  N19  1  0.29199101  0.29176400  0.06345401  1
