# generated using pymatgen
data_Rb2LiMnTeF13
_symmetry_space_group_name_H-M   'P 1'
_cell_length_a   7.44400406
_cell_length_b   7.45641756
_cell_length_c   7.44944620
_cell_angle_alpha   119.96907806
_cell_angle_beta   90.00000000
_cell_angle_gamma   119.94494629
_symmetry_Int_Tables_number   1
_chemical_formula_structural   Rb2LiMnTeF13
_chemical_formula_sum   'Rb2 Li1 Mn1 Te1 F13'
_cell_volume   292.75828317
_cell_formula_units_Z   1
loop_
 _symmetry_equiv_pos_site_id
 _symmetry_equiv_pos_as_xyz
  1  'x, y, z'
loop_
 _atom_site_type_symbol
 _atom_site_label
 _atom_site_symmetry_multiplicity
 _atom_site_fract_x
 _atom_site_fract_y
 _atom_site_fract_z
 _atom_site_occupancy
  Li  Li0  1  0.72704102  0.31016803  0.90508400  1
  Rb  Rb1  1  0.41687306  0.68983207  0.09491605  1
  Mn  Mn2  1  0.01027700  0.00000000  0.49999999  1
  Rb  Rb3  1  0.01027700  0.00000000  0.00000000  1
  Te  Te4  1  0.51261504  0.50864005  0.50432003  1
  F  F5  1  0.00397504  0.49136105  0.49568103  1
  F  F6  1  0.05696201  0.13051301  0.81525699  1
  F  F7  1  0.68998703  0.38322604  0.44161302  1
  F  F8  1  0.05749307  0.74323307  0.80449904  1
  F  F9  1  0.67852106  0.74580307  0.43832905  1
  F  F10  1  0.67852106  0.74580307  0.80747404  1
  F  F11  1  0.05749407  0.74323407  0.43873505  1
  F  F12  1  0.92645007  0.86948809  0.18474406  1
  F  F13  1  0.30676105  0.61677406  0.55838703  1
  F  F14  1  0.93271802  0.25419803  0.19252701  1
  F  F15  1  0.31426002  0.25676603  0.56126501  1
  F  F16  1  0.31426102  0.25676703  0.19550102  1
  F  F17  1  0.93271802  0.25419803  0.56167201  1
