# generated using pymatgen
data_Rb7BaTePbIO7
_symmetry_space_group_name_H-M   'P 1'
_cell_length_a   6.55965996
_cell_length_b   8.27064228
_cell_length_c   8.27064133
_cell_angle_alpha   120.00000000
_cell_angle_beta   90.00000000
_cell_angle_gamma   90.00000000
_symmetry_Int_Tables_number   1
_chemical_formula_structural   Rb7BaTePbIO7
_chemical_formula_sum   'Rb7 Ba1 Te1 Pb1 I1 O7'
_cell_volume   388.58889293
_cell_formula_units_Z   1
loop_
 _symmetry_equiv_pos_site_id
 _symmetry_equiv_pos_as_xyz
  1  'x, y, z'
loop_
 _atom_site_type_symbol
 _atom_site_label
 _atom_site_symmetry_multiplicity
 _atom_site_fract_x
 _atom_site_fract_y
 _atom_site_fract_z
 _atom_site_occupancy
  Ba  Ba0  1  0.50000000  0.66666662  0.33333327  1
  Rb  Rb1  1  0.50000000  0.33333331  0.66666662  1
  Rb  Rb2  1  -0.00000000  0.33333331  0.66666662  1
  Rb  Rb3  1  -0.00000000  0.66666662  0.33333327  1
  Rb  Rb4  1  0.75000000  0.00000000  0.75106998  1
  Rb  Rb5  1  0.75000000  0.75106995  -0.00000006  1
  Rb  Rb6  1  0.75000000  0.24892998  0.24892997  1
  Rb  Rb7  1  0.25000000  0.00000000  0.24892999  1
  I  I8  1  0.25000000  0.24892998  0.99999995  1
  O  O9  1  0.25000000  0.75106995  0.75106992  1
  O  O10  1  0.75000000  0.00000000  0.39091099  1
  Te  Te11  1  0.75000000  0.39091097  -0.00000003  1
  O  O12  1  0.75000000  0.60908896  0.60908894  1
  O  O13  1  0.25000000  0.00000000  0.60908898  1
  Pb  Pb14  1  0.25000000  0.60908896  0.99999992  1
  O  O15  1  0.25000000  0.39091097  0.39091096  1
  O  O16  1  0.50000000  0.00000000  -0.00000000  1
  O  O17  1  0.00000000  0.00000000  0.00000000  1
