# generated using pymatgen
data_K3BaBiPb3O10
_symmetry_space_group_name_H-M   'P 1'
_cell_length_a   5.75771618
_cell_length_b   5.81409740
_cell_length_c   13.44704151
_cell_angle_alpha   83.91485596
_cell_angle_beta   77.63793945
_cell_angle_gamma   60.32027054
_symmetry_Int_Tables_number   1
_chemical_formula_structural   K3BaBiPb3O10
_chemical_formula_sum   'K3 Ba1 Bi1 Pb3 O10'
_cell_volume   382.02736739
_cell_formula_units_Z   1
loop_
 _symmetry_equiv_pos_site_id
 _symmetry_equiv_pos_as_xyz
  1  'x, y, z'
loop_
 _atom_site_type_symbol
 _atom_site_label
 _atom_site_symmetry_multiplicity
 _atom_site_fract_x
 _atom_site_fract_y
 _atom_site_fract_z
 _atom_site_occupancy
  K  K0  1  0.07817000  0.99999999  0.84366001  1
  K  K1  1  0.92182997  0.99999999  0.15634000  1
  Bi  Bi2  1  0.67182998  0.49999999  0.65634001  1
  Ba  Ba3  1  0.82816997  0.49999999  0.34366001  1
  K  K4  1  0.49927098  0.49999999  0.00145800  1
  Pb  Pb5  1  0.00072900  0.49999999  0.99854201  1
  Pb  Pb6  1  0.25072899  0.00000000  0.49854201  1
  Pb  Pb7  1  0.74927097  0.00000000  0.50145801  1
  O  O8  1  0.49999998  0.00000000  1.00000002  1
  O  O9  1  0.24999999  0.49999999  0.50000001  1
  O  O10  1  0.39328999  0.33216500  0.89003202  1
  O  O11  1  0.61548698  0.66783499  0.10996800  1
  O  O12  1  0.27454499  0.33216500  0.10996800  1
  O  O13  1  0.71667798  0.66783499  0.89003202  1
  O  O14  1  0.35670999  0.16783500  0.60996801  1
  O  O15  1  0.13451300  0.83216499  0.39003200  1
  O  O16  1  0.03332200  0.83216499  0.60996801  1
  O  O17  1  0.47545498  0.16783500  0.39003201  1
