# generated using pymatgen
data_Li2MnO5
_symmetry_space_group_name_H-M   'P 1'
_cell_length_a   3.72746611
_cell_length_b   5.40723038
_cell_length_c   11.47812557
_cell_angle_alpha   90.00000000
_cell_angle_beta   90.00000000
_cell_angle_gamma   110.16191101
_symmetry_Int_Tables_number   1
_chemical_formula_structural   Li2MnO5
_chemical_formula_sum   'Li4 Mn2 O10'
_cell_volume   217.16844005
_cell_formula_units_Z   2
loop_
 _symmetry_equiv_pos_site_id
 _symmetry_equiv_pos_as_xyz
  1  'x, y, z'
loop_
 _atom_site_type_symbol
 _atom_site_label
 _atom_site_symmetry_multiplicity
 _atom_site_fract_x
 _atom_site_fract_y
 _atom_site_fract_z
 _atom_site_occupancy
  Li  Li0  1  0.89922796  0.79845399  0.75000003  1
  Li  Li1  1  0.10077299  0.20154700  0.25000001  1
  Li  Li2  1  0.20400899  0.40801599  0.59872202  1
  Li  Li3  1  0.79599197  0.59198499  0.40127701  1
  Mn  Mn4  1  0.79599197  0.59198499  0.09872300  1
  Mn  Mn5  1  0.20400899  0.40801599  0.90127803  1
  O  O6  1  0.69903898  0.39807899  0.25000001  1
  O  O7  1  0.30096198  0.60192199  0.75000003  1
  O  O8  1  0.23805499  0.47610699  0.07674100  1
  O  O9  1  0.76194897  0.52389399  0.92325903  1
  O  O10  1  0.76194897  0.52389399  0.57674102  1
  O  O11  1  0.23805499  0.47610699  0.42325802  1
  O  O12  1  0.04151500  0.08302900  0.63016502  1
  O  O13  1  0.95848496  0.91696999  0.36983501  1
  O  O14  1  0.04151500  0.08302900  0.86983503  1
  O  O15  1  0.95848496  0.91696999  0.13016600  1
