# generated using pymatgen
data_KBa2Te(ClO5)2
_symmetry_space_group_name_H-M   'P 1'
_cell_length_a   4.14855003
_cell_length_b   7.50472307
_cell_length_c   10.17900181
_cell_angle_alpha   90.00000000
_cell_angle_beta   90.00000000
_cell_angle_gamma   90.00000000
_symmetry_Int_Tables_number   1
_chemical_formula_structural   KBa2Te(ClO5)2
_chemical_formula_sum   'K1 Ba2 Te1 Cl2 O10'
_cell_volume   316.91018355
_cell_formula_units_Z   1
loop_
 _symmetry_equiv_pos_site_id
 _symmetry_equiv_pos_as_xyz
  1  'x, y, z'
loop_
 _atom_site_type_symbol
 _atom_site_label
 _atom_site_symmetry_multiplicity
 _atom_site_fract_x
 _atom_site_fract_y
 _atom_site_fract_z
 _atom_site_occupancy
  K  K0  1  0.25000000  0.79806699  0.11419300  1
  Ba  Ba1  1  0.25000000  0.29806700  0.38580701  1
  Te  Te2  1  0.74999999  0.20193300  0.88580702  1
  Ba  Ba3  1  0.74999999  0.70193299  0.61419301  1
  O  O4  1  0.25000000  0.69559599  0.41581501  1
  Cl  Cl5  1  0.25000000  0.19559600  0.08418500  1
  O  O6  1  0.74999999  0.30440400  0.58418501  1
  Cl  Cl7  1  0.74999999  0.80440399  0.91581502  1
  O  O8  1  0.74999999  0.55437199  0.17984700  1
  O  O9  1  0.74999999  0.05437200  0.32015301  1
  O  O10  1  0.25000000  0.44562800  0.82015302  1
  O  O11  1  0.25000000  0.94562799  0.67984701  1
  O  O12  1  0.25000000  0.87765199  0.03834700  1
  O  O13  1  0.25000000  0.37765200  0.46165301  1
  O  O14  1  0.74999999  0.12234800  0.96165302  1
  O  O15  1  0.74999999  0.62234799  0.53834701  1
