# generated using pymatgen
data_Na3AgS3
_symmetry_space_group_name_H-M   'P 1'
_cell_length_a   6.62427807
_cell_length_b   6.62427807
_cell_length_c   8.07509422
_cell_angle_alpha   114.21533966
_cell_angle_beta   114.21533966
_cell_angle_gamma   90.00000000
_symmetry_Int_Tables_number   1
_chemical_formula_structural   Na3AgS3
_chemical_formula_sum   'Na3 Ag1 S3'
_cell_volume   288.63805135
_cell_formula_units_Z   1
loop_
 _symmetry_equiv_pos_site_id
 _symmetry_equiv_pos_as_xyz
  1  'x, y, z'
loop_
 _atom_site_type_symbol
 _atom_site_label
 _atom_site_symmetry_multiplicity
 _atom_site_fract_x
 _atom_site_fract_y
 _atom_site_fract_z
 _atom_site_occupancy
  Na  Na0  1  0.75000000  0.25000000  0.50000004  1
  Na  Na1  1  0.25000001  0.75000000  0.50000005  1
  Na  Na2  1  0.50000001  0.50000000  0.00000002  1
  Ag  Ag3  1  0.37360401  0.37360400  0.24965303  1
  S  S4  1  0.12395101  0.62639600  0.75034705  1
  S  S5  1  0.87604901  0.87604900  0.24965304  1
  S  S6  1  0.62639600  0.12395100  0.75034705  1
