# generated using pymatgen
data_SrBiO3
_symmetry_space_group_name_H-M   'P 1'
_cell_length_a   5.80764008
_cell_length_b   5.95888519
_cell_length_c   8.25613022
_cell_angle_alpha   90.00000000
_cell_angle_beta   90.04848480
_cell_angle_gamma   90.00000000
_symmetry_Int_Tables_number   1
_chemical_formula_structural   SrBiO3
_chemical_formula_sum   'Sr4 Bi4 O12'
_cell_volume   285.72029528
_cell_formula_units_Z   4
loop_
 _symmetry_equiv_pos_site_id
 _symmetry_equiv_pos_as_xyz
  1  'x, y, z'
loop_
 _atom_site_type_symbol
 _atom_site_label
 _atom_site_symmetry_multiplicity
 _atom_site_fract_x
 _atom_site_fract_y
 _atom_site_fract_z
 _atom_site_occupancy
  Sr  Sr0  1  0.48979399  0.95367197  0.75197900  1
  Sr  Sr1  1  0.01020600  0.45367199  0.74802098  1
  Sr  Sr2  1  0.51020599  0.04632800  0.24802101  1
  Sr  Sr3  1  0.98979399  0.54632798  0.25197903  1
  Bi  Bi4  1  0.00000000  0.00000000  0.49999998  1
  Bi  Bi5  1  0.49999999  0.49999998  0.00000002  1
  Bi  Bi6  1  0.49999999  0.49999998  0.50000001  1
  Bi  Bi7  1  0.00000000  0.00000000  0.00000000  1
  O  O8  1  0.31977200  0.23033799  0.55116600  1
  O  O9  1  0.18022800  0.73033798  0.94883398  1
  O  O10  1  0.68022799  0.76966198  0.44883401  1
  O  O11  1  0.81977199  0.26966199  0.05116603  1
  O  O12  1  0.22724800  0.68491598  0.54082299  1
  O  O13  1  0.27275200  0.18491599  0.95917698  1
  O  O14  1  0.77275199  0.31508399  0.45917702  1
  O  O15  1  0.72724799  0.81508397  0.04082303  1
  O  O16  1  0.91259799  0.03167300  0.77192601  1
  O  O17  1  0.58740199  0.53167298  0.72807400  1
  O  O18  1  0.08740200  0.96832697  0.22807400  1
  O  O19  1  0.41259799  0.46832698  0.27192601  1
