# generated using pymatgen
data_Li2O2
_symmetry_space_group_name_H-M   'P 1'
_cell_length_a   5.09274101
_cell_length_b   5.13884497
_cell_length_c   7.63720179
_cell_angle_alpha   103.13167572
_cell_angle_beta   108.50098419
_cell_angle_gamma   99.86972809
_symmetry_Int_Tables_number   1
_chemical_formula_structural   Li2O2
_chemical_formula_sum   'Li10 O10'
_cell_volume   178.05384795
_cell_formula_units_Z   5
loop_
 _symmetry_equiv_pos_site_id
 _symmetry_equiv_pos_as_xyz
  1  'x, y, z'
loop_
 _atom_site_type_symbol
 _atom_site_label
 _atom_site_symmetry_multiplicity
 _atom_site_fract_x
 _atom_site_fract_y
 _atom_site_fract_z
 _atom_site_occupancy
  Li  Li0  1  0.80718803  0.49466799  0.59907402  1
  Li  Li1  1  0.39050303  0.49530899  0.79712601  1
  Li  Li2  1  0.00000003  0.49999999  0.00000002  1
  Li  Li3  1  0.60949703  0.50469099  0.20287402  1
  Li  Li4  1  0.19281203  0.50533199  0.40092601  1
  Li  Li5  1  0.00000000  0.00000000  0.50000000  1
  Li  Li6  1  0.60090800  0.00616600  0.69866500  1
  Li  Li7  1  0.39909206  0.99383398  0.30133503  1
  Li  Li8  1  0.19523706  0.99993898  0.89031803  1
  Li  Li9  1  0.80476300  0.00006100  0.10968200  1
  O  O10  1  0.58403404  0.77668498  0.45472703  1
  O  O11  1  0.22422304  0.77253598  0.66741802  1
  O  O12  1  0.79010905  0.78254998  0.84781702  1
  O  O13  1  0.40674704  0.76788598  0.06331703  1
  O  O14  1  0.02242704  0.76772498  0.24605602  1
  O  O15  1  0.97757301  0.23227499  0.75394401  1
  O  O16  1  0.59325301  0.23211399  0.93668300  1
  O  O17  1  0.20989101  0.21744999  0.15218301  1
  O  O18  1  0.77577701  0.22746399  0.33258201  1
  O  O19  1  0.41596601  0.22331499  0.54527300  1
