# generated using pymatgen
data_Li3LuCu3AgS8
_symmetry_space_group_name_H-M   'P 1'
_cell_length_a   6.48499393
_cell_length_b   6.87729883
_cell_length_c   8.05035877
_cell_angle_alpha   90.00000000
_cell_angle_beta   89.69582367
_cell_angle_gamma   90.00000000
_symmetry_Int_Tables_number   1
_chemical_formula_structural   Li3LuCu3AgS8
_chemical_formula_sum   'Li3 Lu1 Cu3 Ag1 S8'
_cell_volume   359.03483311
_cell_formula_units_Z   1
loop_
 _symmetry_equiv_pos_site_id
 _symmetry_equiv_pos_as_xyz
  1  'x, y, z'
loop_
 _atom_site_type_symbol
 _atom_site_label
 _atom_site_symmetry_multiplicity
 _atom_site_fract_x
 _atom_site_fract_y
 _atom_site_fract_z
 _atom_site_occupancy
  Li  Li0  1  0.39224800  0.33826201  0.76875096  1
  Lu  Lu1  1  0.89224801  0.66173802  0.26875097  1
  Li  Li2  1  0.39519200  0.83132802  0.52455397  1
  Li  Li3  1  0.89519201  0.16867200  0.02455398  1
  Ag  Ag4  1  0.89313701  0.17114300  0.52649596  1
  Cu  Cu5  1  0.39313700  0.82885702  0.02649599  1
  Cu  Cu6  1  0.89316501  0.67169302  0.77166095  1
  Cu  Cu7  1  0.39316500  0.32830701  0.27166098  1
  S  S8  1  0.77228601  0.33770001  0.77195496  1
  S  S9  1  0.27228600  0.66230002  0.27195498  1
  S  S10  1  0.77441201  0.83873502  0.52445197  1
  S  S11  1  0.27441200  0.16126500  0.02445199  1
  S  S12  1  0.76271601  0.83277902  0.01935399  1
  S  S13  1  0.26271600  0.16722100  0.51935397  1
  S  S14  1  0.26687400  0.67607802  0.77767596  1
  S  S15  1  0.76687401  0.32392201  0.27767598  1
