# generated using pymatgen
data_RbCu3S4
_symmetry_space_group_name_H-M   'P 1'
_cell_length_a   4.05540657
_cell_length_b   4.05540657
_cell_length_c   11.69981289
_cell_angle_alpha   80.01963806
_cell_angle_beta   80.01963806
_cell_angle_gamma   59.99998856
_symmetry_Int_Tables_number   1
_chemical_formula_structural   RbCu3S4
_chemical_formula_sum   'Rb1 Cu3 S4'
_cell_volume   163.26868164
_cell_formula_units_Z   1
loop_
 _symmetry_equiv_pos_site_id
 _symmetry_equiv_pos_as_xyz
  1  'x, y, z'
loop_
 _atom_site_type_symbol
 _atom_site_label
 _atom_site_symmetry_multiplicity
 _atom_site_fract_x
 _atom_site_fract_y
 _atom_site_fract_z
 _atom_site_occupancy
  Rb  Rb0  1  0.50000000  0.50000001  0.50000000  1
  Cu  Cu1  1  0.69654400  0.69654402  0.91036800  1
  Cu  Cu2  1  0.30345600  0.30345601  0.08963201  1
  Cu  Cu3  1  0.91351699  0.91351702  0.25944902  1
  S  S4  1  0.08648300  0.08648300  0.74055098  1
  S  S5  1  0.76529899  0.76529902  0.70410300  1
  S  S6  1  0.23470100  0.23470101  0.29589700  1
  S  S7  1  0.00000000  0.00000000  0.00000000  1
