# generated using pymatgen
data_SrAg4(Se2S)3
_symmetry_space_group_name_H-M   'P 1'
_cell_length_a   5.90050793
_cell_length_b   5.90050793
_cell_length_c   12.04864502
_cell_angle_alpha   90.00000000
_cell_angle_beta   90.00000000
_cell_angle_gamma   90.00000000
_symmetry_Int_Tables_number   1
_chemical_formula_structural   SrAg4(Se2S)3
_chemical_formula_sum   'Sr1 Ag4 Se6 S3'
_cell_volume   419.48555025
_cell_formula_units_Z   1
loop_
 _symmetry_equiv_pos_site_id
 _symmetry_equiv_pos_as_xyz
  1  'x, y, z'
loop_
 _atom_site_type_symbol
 _atom_site_label
 _atom_site_symmetry_multiplicity
 _atom_site_fract_x
 _atom_site_fract_y
 _atom_site_fract_z
 _atom_site_occupancy
  Sr  Sr0  1  0.50000001  0.00000000  0.25443500  1
  Ag  Ag1  1  0.50000001  0.00000000  0.74556500  1
  Ag  Ag2  1  0.00000000  0.50000001  0.74556500  1
  Ag  Ag3  1  0.00000000  0.50000001  0.25443500  1
  Ag  Ag4  1  0.50000001  0.50000001  -0.00000000  1
  Se  Se5  1  0.00000000  0.00000000  0.50000000  1
  Se  Se6  1  0.77309601  0.77309601  0.11272800  1
  Se  Se7  1  0.27283300  0.72716701  0.38209800  1
  Se  Se8  1  0.72716701  0.72716701  0.61790200  1
  S  S9  1  0.72716701  0.27283300  0.38209800  1
  Se  Se10  1  0.77309601  0.22690400  0.88727200  1
  S  S11  1  0.27283300  0.27283300  0.61790200  1
  S  S12  1  0.22690400  0.22690400  0.11272800  1
  Se  Se13  1  0.22690400  0.77309601  0.88727200  1
