# generated using pymatgen
data_NaBeB2CS3O2
_symmetry_space_group_name_H-M   'P 1'
_cell_length_a   6.15811396
_cell_length_b   6.15811396
_cell_length_c   6.76399899
_cell_angle_alpha   62.92139435
_cell_angle_beta   62.92139435
_cell_angle_gamma   60.00000000
_symmetry_Int_Tables_number   1
_chemical_formula_structural   NaBeB2CS3O2
_chemical_formula_sum   'Na1 Be1 B2 C1 S3 O2'
_cell_volume   188.97812612
_cell_formula_units_Z   1
loop_
 _symmetry_equiv_pos_site_id
 _symmetry_equiv_pos_as_xyz
  1  'x, y, z'
loop_
 _atom_site_type_symbol
 _atom_site_label
 _atom_site_symmetry_multiplicity
 _atom_site_fract_x
 _atom_site_fract_y
 _atom_site_fract_z
 _atom_site_occupancy
  B  B0  1  0.00000000  0.00000000  0.00000000  1
  Na  Na1  1  0.50000001  0.50000000  0.49999997  1
  Be  Be2  1  0.75000001  0.75000001  0.74999996  1
  B  B3  1  0.25000000  0.25000000  0.24999999  1
  C  C4  1  0.95606301  0.75000001  0.74999995  1
  S  S5  1  0.54393701  0.95606301  0.74999996  1
  S  S6  1  0.45606300  0.04393700  0.24999999  1
  S  S7  1  0.04393700  0.25000000  0.24999999  1
  O  O8  1  0.25000000  0.45606300  0.24999998  1
  O  O9  1  0.75000001  0.54393700  0.74999996  1
