# generated using pymatgen
data_K3SrAgHgSeS3Cl2
_symmetry_space_group_name_H-M   'P 1'
_cell_length_a   4.49403191
_cell_length_b   8.95908833
_cell_length_c   11.92241383
_cell_angle_alpha   90.00000000
_cell_angle_beta   90.00000000
_cell_angle_gamma   104.52536774
_symmetry_Int_Tables_number   1
_chemical_formula_structural   K3SrAgHgSeS3Cl2
_chemical_formula_sum   'K3 Sr1 Ag1 Hg1 Se1 S3 Cl2'
_cell_volume   464.68213875
_cell_formula_units_Z   1
loop_
 _symmetry_equiv_pos_site_id
 _symmetry_equiv_pos_as_xyz
  1  'x, y, z'
loop_
 _atom_site_type_symbol
 _atom_site_label
 _atom_site_symmetry_multiplicity
 _atom_site_fract_x
 _atom_site_fract_y
 _atom_site_fract_z
 _atom_site_occupancy
  Sr  Sr0  1  0.74705608  0.49411199  0.25000000  1
  K  K1  1  0.25294407  0.50588799  0.75000001  1
  K  K2  1  0.00000000  0.00000000  0.00000000  1
  K  K3  1  0.00000000  0.00000000  0.50000001  1
  Hg  Hg4  1  0.46486313  0.92972598  0.25000000  1
  Ag  Ag5  1  0.53513702  0.07027400  0.75000001  1
  Se  Se6  1  0.38016411  0.76032798  0.43698001  1
  Cl  Cl7  1  0.61983604  0.23967199  0.56302001  1
  S  S8  1  0.93938314  0.87876598  0.75000001  1
  S  S9  1  0.06061702  0.12123400  0.25000000  1
  S  S10  1  0.38016411  0.76032798  0.06302000  1
  Cl  Cl11  1  0.61983604  0.23967199  0.93698001  1
