# generated using pymatgen
data_KNaAg2TeS3
_symmetry_space_group_name_H-M   'P 1'
_cell_length_a   4.30442905
_cell_length_b   4.30442905
_cell_length_c   9.41990852
_cell_angle_alpha   90.00000000
_cell_angle_beta   90.00000000
_cell_angle_gamma   90.00000000
_symmetry_Int_Tables_number   1
_chemical_formula_structural   KNaAg2TeS3
_chemical_formula_sum   'K1 Na1 Ag2 Te1 S3'
_cell_volume   174.53309645
_cell_formula_units_Z   1
loop_
 _symmetry_equiv_pos_site_id
 _symmetry_equiv_pos_as_xyz
  1  'x, y, z'
loop_
 _atom_site_type_symbol
 _atom_site_label
 _atom_site_symmetry_multiplicity
 _atom_site_fract_x
 _atom_site_fract_y
 _atom_site_fract_z
 _atom_site_occupancy
  K  K0  1  0.00000000  0.49999999  0.83279904  1
  Na  Na1  1  0.49999999  0.00000000  0.16720101  1
  Ag  Ag2  1  0.49999999  0.49999999  0.50000003  1
  Ag  Ag3  1  0.00000000  0.00000000  0.50000003  1
  Te  Te4  1  0.00000000  0.49999999  0.32441602  1
  S  S5  1  0.49999999  0.00000000  0.67558403  1
  S  S6  1  0.49999999  0.49999999  -0.00000000  1
  S  S7  1  0.00000000  0.00000000  0.00000000  1
