# generated using pymatgen
data_KNaAlAsH4OF8
_symmetry_space_group_name_H-M   'P 1'
_cell_length_a   7.30469894
_cell_length_b   7.30469894
_cell_length_c   7.30469894
_cell_angle_alpha   60.00000000
_cell_angle_beta   60.00000000
_cell_angle_gamma   60.00000000
_symmetry_Int_Tables_number   1
_chemical_formula_structural   KNaAlAsH4OF8
_chemical_formula_sum   'K1 Na1 Al1 As1 H4 O1 F8'
_cell_volume   275.60809359
_cell_formula_units_Z   1
loop_
 _symmetry_equiv_pos_site_id
 _symmetry_equiv_pos_as_xyz
  1  'x, y, z'
loop_
 _atom_site_type_symbol
 _atom_site_label
 _atom_site_symmetry_multiplicity
 _atom_site_fract_x
 _atom_site_fract_y
 _atom_site_fract_z
 _atom_site_occupancy
  K  K0  1  0.00000000  0.00000000  0.00000000  1
  Na  Na1  1  0.19227499  0.42317499  0.19227499  1
  Al  Al2  1  0.19227499  0.19227499  0.19227499  1
  As  As3  1  0.19227499  0.19227499  0.42317499  1
  H  H4  1  0.42317499  0.19227499  0.19227499  1
  H  H5  1  0.80772498  0.57682498  0.80772498  1
  O  O6  1  0.80772498  0.80772498  0.80772498  1
  F  F7  1  0.80772498  0.80772498  0.57682498  1
  F  F8  1  0.57682498  0.80772498  0.80772498  1
  H  H9  1  0.24999999  0.24999999  0.24999999  1
  H  H10  1  0.74999998  0.74999998  0.74999998  1
  F  F11  1  0.76109998  0.76109998  0.23889999  1
  F  F12  1  0.23889999  0.76109998  0.76109998  1
  F  F13  1  0.23889999  0.76109998  0.23889999  1
  F  F14  1  0.23889999  0.23889999  0.76109998  1
  F  F15  1  0.76109998  0.23889999  0.23889999  1
  F  F16  1  0.76109998  0.23889999  0.76109998  1
