# generated using pymatgen
data_NaLiAl2SiB(HO6)2
_symmetry_space_group_name_H-M   'P 1'
_cell_length_a   6.06271315
_cell_length_b   6.06271315
_cell_length_c   6.06271362
_cell_angle_alpha   104.09609985
_cell_angle_beta   104.09609985
_cell_angle_gamma   104.09610748
_symmetry_Int_Tables_number   1
_chemical_formula_structural   NaLiAl2SiB(HO6)2
_chemical_formula_sum   'Na1 Li1 Al2 Si1 B1 H2 O12'
_cell_volume   198.46374251
_cell_formula_units_Z   1
loop_
 _symmetry_equiv_pos_site_id
 _symmetry_equiv_pos_as_xyz
  1  'x, y, z'
loop_
 _atom_site_type_symbol
 _atom_site_label
 _atom_site_symmetry_multiplicity
 _atom_site_fract_x
 _atom_site_fract_y
 _atom_site_fract_z
 _atom_site_occupancy
  Na  Na0  1  0.50000003  0.50000002  0.49999996  1
  Li  Li1  1  0.04639804  0.95360203  0.49999996  1
  Al  Al2  1  0.50000001  0.04639800  0.95360195  1
  Al  Al3  1  0.95360204  0.50000002  0.04639796  1
  Si  Si4  1  0.45170003  0.54830002  0.99999994  1
  B  B5  1  0.00000002  0.45170002  0.54829998  1
  H  H6  1  0.54830005  1.00000003  0.45169995  1
  H  H7  1  0.00000000  0.00000000  0.00000000  1
  O  O8  1  0.47608204  0.70581102  0.87025894  1
  O  O9  1  0.87025904  0.47608202  0.70581094  1
  O  O10  1  0.12974102  0.29418901  0.52391797  1
  O  O11  1  0.70581105  0.87025903  0.47608194  1
  O  O12  1  0.29418903  0.52391802  0.12974098  1
  O  O13  1  0.52391802  0.12974100  0.29418897  1
  O  O14  1  0.85506302  0.14493700  0.99999994  1
  O  O15  1  0.00000004  0.85506303  0.14493698  1
  O  O16  1  0.14493705  1.00000003  0.85506295  1
  O  O17  1  0.59572303  0.40427701  0.99999994  1
  O  O18  1  0.00000003  0.59572302  0.40427698  1
  O  O19  1  0.40427705  1.00000003  0.59572295  1
