# generated using pymatgen
data_Sr3Ag4SeS12
_symmetry_space_group_name_H-M   'P 1'
_cell_length_a   3.84345603
_cell_length_b   8.30690765
_cell_length_c   13.79083443
_cell_angle_alpha   90.00000000
_cell_angle_beta   90.00000000
_cell_angle_gamma   90.00000000
_symmetry_Int_Tables_number   1
_chemical_formula_structural   Sr3Ag4SeS12
_chemical_formula_sum   'Sr3 Ag4 Se1 S12'
_cell_volume   440.30320210
_cell_formula_units_Z   1
loop_
 _symmetry_equiv_pos_site_id
 _symmetry_equiv_pos_as_xyz
  1  'x, y, z'
loop_
 _atom_site_type_symbol
 _atom_site_label
 _atom_site_symmetry_multiplicity
 _atom_site_fract_x
 _atom_site_fract_y
 _atom_site_fract_z
 _atom_site_occupancy
  Sr  Sr0  1  0.25000000  0.06185700  0.18109299  1
  Sr  Sr1  1  0.25000000  0.56185702  0.31890699  1
  Sr  Sr2  1  0.74999999  0.93814304  0.81890697  1
  Ag  Ag3  1  0.74999999  0.43814302  0.68109298  1
  Ag  Ag4  1  0.25000000  0.32143401  0.94434897  1
  Ag  Ag5  1  0.25000000  0.82143403  0.55565098  1
  Ag  Ag6  1  0.74999999  0.67856603  0.05565100  1
  Se  Se7  1  0.74999999  0.17856601  0.44434899  1
  S  S8  1  0.25000000  0.48234202  0.10868000  1
  S  S9  1  0.25000000  0.98234204  0.39131999  1
  S  S10  1  0.74999999  0.51765802  0.89131997  1
  S  S11  1  0.74999999  0.01765800  0.60867998  1
  S  S12  1  0.25000000  0.35731601  0.51020298  1
  S  S13  1  0.25000000  0.85731604  0.98979697  1
  S  S14  1  0.74999999  0.64268403  0.48979698  1
  S  S15  1  0.74999999  0.14268401  0.01020300  1
  S  S16  1  0.25000000  0.19831101  0.78062598  1
  S  S17  1  0.25000000  0.69831103  0.71937398  1
  S  S18  1  0.74999999  0.80168903  0.21937399  1
  S  S19  1  0.74999999  0.30168901  0.28062599  1
