# generated using pymatgen
data_Li4VO7
_symmetry_space_group_name_H-M   'P 1'
_cell_length_a   4.90268564
_cell_length_b   4.97560453
_cell_length_c   5.09460402
_cell_angle_alpha   82.08946991
_cell_angle_beta   61.23964310
_cell_angle_gamma   73.38191223
_symmetry_Int_Tables_number   1
_chemical_formula_structural   Li4VO7
_chemical_formula_sum   'Li4 V1 O7'
_cell_volume   104.39563518
_cell_formula_units_Z   1
loop_
 _symmetry_equiv_pos_site_id
 _symmetry_equiv_pos_as_xyz
  1  'x, y, z'
loop_
 _atom_site_type_symbol
 _atom_site_label
 _atom_site_symmetry_multiplicity
 _atom_site_fract_x
 _atom_site_fract_y
 _atom_site_fract_z
 _atom_site_occupancy
  Li  Li0  1  0.16667398  0.49999602  0.66666670  1
  Li  Li1  1  0.66666666  0.00000400  0.66666669  1
  Li  Li2  1  0.50798498  0.49999802  0.98402604  1
  Li  Li3  1  0.82534397  0.49999202  0.34932504  1
  V  V4  1  0.32641896  0.99999905  0.34717805  1
  O  O5  1  0.00694000  0.00000200  0.98612301  1
  O  O6  1  0.39938897  0.76514504  0.66666671  1
  O  O7  1  0.93393298  0.23486401  0.66666670  1
  O  O8  1  0.76529697  0.77642804  0.01623705  1
  O  O9  1  0.11490897  0.77641404  0.31709004  1
  O  O10  1  0.21841799  0.22357801  0.01624901  1
  O  O11  1  0.56803299  0.22358001  0.31709102  1
