# generated using pymatgen
data_RbNa(ClO)2
_symmetry_space_group_name_H-M   'P 1'
_cell_length_a   4.02014112
_cell_length_b   4.02014112
_cell_length_c   6.98386288
_cell_angle_alpha   90.00000000
_cell_angle_beta   90.00000000
_cell_angle_gamma   90.00000000
_symmetry_Int_Tables_number   1
_chemical_formula_structural   RbNa(ClO)2
_chemical_formula_sum   'Rb1 Na1 Cl2 O2'
_cell_volume   112.86994196
_cell_formula_units_Z   1
loop_
 _symmetry_equiv_pos_site_id
 _symmetry_equiv_pos_as_xyz
  1  'x, y, z'
loop_
 _atom_site_type_symbol
 _atom_site_label
 _atom_site_symmetry_multiplicity
 _atom_site_fract_x
 _atom_site_fract_y
 _atom_site_fract_z
 _atom_site_occupancy
  Na  Na0  1  0.00000000  0.49999998  0.80088601  1
  Rb  Rb1  1  0.49999998  0.00000000  0.19911400  1
  Cl  Cl2  1  0.00000000  0.00000000  0.00000000  1
  Cl  Cl3  1  0.49999998  0.49999998  0.00000000  1
  O  O4  1  0.00000000  0.49999998  0.35001601  1
  O  O5  1  0.49999998  0.00000000  0.64998401  1
