# generated using pymatgen
data_K2NaCl4O6F
_symmetry_space_group_name_H-M   'P 1'
_cell_length_a   4.79459715
_cell_length_b   5.32763720
_cell_length_c   9.51156330
_cell_angle_alpha   90.00000000
_cell_angle_beta   90.00000000
_cell_angle_gamma   90.00000000
_symmetry_Int_Tables_number   1
_chemical_formula_structural   K2NaCl4O6F
_chemical_formula_sum   'K2 Na1 Cl4 O6 F1'
_cell_volume   242.96217554
_cell_formula_units_Z   1
loop_
 _symmetry_equiv_pos_site_id
 _symmetry_equiv_pos_as_xyz
  1  'x, y, z'
loop_
 _atom_site_type_symbol
 _atom_site_label
 _atom_site_symmetry_multiplicity
 _atom_site_fract_x
 _atom_site_fract_y
 _atom_site_fract_z
 _atom_site_occupancy
  K  K0  1  0.47459299  0.49999998  0.29843899  1
  Na  Na1  1  0.97459297  0.00000000  0.70156098  1
  K  K2  1  0.88621397  0.00000000  0.13253100  1
  Cl  Cl3  1  0.38621399  0.49999998  0.86746897  1
  Cl  Cl4  1  0.48021699  0.00000000  0.47953398  1
  Cl  Cl5  1  0.98021697  0.49999998  0.52046598  1
  Cl  Cl6  1  0.59164498  0.00000000  0.14002100  1
  O  O7  1  0.09164500  0.49999998  0.85997897  1
  O  O8  1  0.98540197  0.78058397  0.20309099  1
  O  O9  1  0.98540197  0.21941599  0.20309099  1
  O  O10  1  0.48540198  0.71941597  0.79690897  1
  O  O11  1  0.48540198  0.28058399  0.79690897  1
  O  O12  1  0.97922797  0.00000000  0.99277097  1
  F  F13  1  0.47922799  0.49999998  0.00722900  1
