# generated using pymatgen
data_LiVO3
_symmetry_space_group_name_H-M   'P 1'
_cell_length_a   6.79800653
_cell_length_b   6.90288734
_cell_length_c   7.51817513
_cell_angle_alpha   117.11071014
_cell_angle_beta   105.71845245
_cell_angle_gamma   90.76979065
_symmetry_Int_Tables_number   1
_chemical_formula_structural   LiVO3
_chemical_formula_sum   'Li4 V4 O12'
_cell_volume   298.40801359
_cell_formula_units_Z   4
loop_
 _symmetry_equiv_pos_site_id
 _symmetry_equiv_pos_as_xyz
  1  'x, y, z'
loop_
 _atom_site_type_symbol
 _atom_site_label
 _atom_site_symmetry_multiplicity
 _atom_site_fract_x
 _atom_site_fract_y
 _atom_site_fract_z
 _atom_site_occupancy
  Li  Li0  1  0.49536402  0.75972100  0.99821503  1
  Li  Li1  1  0.50463601  0.24027900  0.00178502  1
  Li  Li2  1  0.00000001  0.50000000  0.00000000  1
  Li  Li3  1  0.00000001  0.50000000  0.50000001  1
  V  V4  1  0.47715102  0.73982800  0.46942103  1
  V  V5  1  0.52284901  0.26017200  0.53057903  1
  V  V6  1  0.00000000  0.00000000  0.00000000  1
  V  V7  1  0.00000000  0.00000000  0.50000000  1
  O  O8  1  0.17170702  0.72053400  0.42699302  1
  O  O9  1  0.82829301  0.27946600  0.57300704  1
  O  O10  1  0.39933601  0.57788600  0.15705702  1
  O  O11  1  0.60066401  0.42211400  0.84294303  1
  O  O12  1  0.53839802  0.89028900  0.77904303  1
  O  O13  1  0.46160200  0.10971100  0.22095702  1
  O  O14  1  0.88791102  0.86462800  0.15216204  1
  O  O15  1  0.88411700  0.27929100  0.13415304  1
  O  O16  1  0.11208900  0.13537200  0.84783801  1
  O  O17  1  0.11588302  0.72070900  0.86584702  1
  O  O18  1  0.77953102  0.75322400  0.49167504  1
  O  O19  1  0.22046901  0.24677600  0.50832501  1
