# generated using pymatgen
data_KAgTeS
_symmetry_space_group_name_H-M   'P 1'
_cell_length_a   6.05052805
_cell_length_b   6.30260038
_cell_length_c   6.30260038
_cell_angle_alpha   104.13337708
_cell_angle_beta   90.00000000
_cell_angle_gamma   90.00000000
_symmetry_Int_Tables_number   1
_chemical_formula_structural   KAgTeS
_chemical_formula_sum   'K2 Ag2 Te2 S2'
_cell_volume   233.06852307
_cell_formula_units_Z   2
loop_
 _symmetry_equiv_pos_site_id
 _symmetry_equiv_pos_as_xyz
  1  'x, y, z'
loop_
 _atom_site_type_symbol
 _atom_site_label
 _atom_site_symmetry_multiplicity
 _atom_site_fract_x
 _atom_site_fract_y
 _atom_site_fract_z
 _atom_site_occupancy
  K  K0  1  0.25000000  0.31220201  0.96843702  1
  K  K1  1  0.25000000  0.96843702  0.31220200  1
  Ag  Ag2  1  0.74999999  0.68779801  0.03156300  1
  Ag  Ag3  1  0.74999999  0.03156300  0.68779801  1
  Te  Te4  1  0.50000000  0.50000001  0.50000001  1
  Te  Te5  1  -0.00000000  0.50000001  0.50000001  1
  S  S6  1  0.25000000  0.75177802  0.75177801  1
  S  S7  1  0.74999999  0.24822201  0.24822200  1
