# generated using pymatgen
data_Sr4La3NdO12
_symmetry_space_group_name_H-M   'P 1'
_cell_length_a   5.80956507
_cell_length_b   6.02656603
_cell_length_c   8.39538860
_cell_angle_alpha   90.00000000
_cell_angle_beta   90.00000000
_cell_angle_gamma   90.00000000
_symmetry_Int_Tables_number   1
_chemical_formula_structural   Sr4La3NdO12
_chemical_formula_sum   'Sr4 La3 Nd1 O12'
_cell_volume   293.93705783
_cell_formula_units_Z   1
loop_
 _symmetry_equiv_pos_site_id
 _symmetry_equiv_pos_as_xyz
  1  'x, y, z'
loop_
 _atom_site_type_symbol
 _atom_site_label
 _atom_site_symmetry_multiplicity
 _atom_site_fract_x
 _atom_site_fract_y
 _atom_site_fract_z
 _atom_site_occupancy
  Sr  Sr0  1  0.01387000  0.44525400  0.25000001  1
  Sr  Sr1  1  0.98612999  0.55474600  0.75000004  1
  Sr  Sr2  1  0.51386999  0.05474600  0.75000004  1
  La  La3  1  0.48612999  0.94525400  0.25000001  1
  Sr  Sr4  1  0.00000000  0.00000000  0.00000000  1
  La  La5  1  0.49999999  0.50000000  0.00000000  1
  Nd  Nd6  1  0.00000000  0.00000000  0.50000002  1
  La  La7  1  0.49999999  0.50000000  0.50000002  1
  O  O8  1  0.31483400  0.18787300  0.06714500  1
  O  O9  1  0.68516599  0.81212700  0.93285504  1
  O  O10  1  0.81483399  0.31212700  0.93285504  1
  O  O11  1  0.68516599  0.81212700  0.56714503  1
  O  O12  1  0.18516600  0.68787300  0.06714500  1
  O  O13  1  0.31483400  0.18787300  0.43285502  1
  O  O14  1  0.18516600  0.68787300  0.43285502  1
  O  O15  1  0.81483399  0.31212700  0.56714503  1
  O  O16  1  0.62996099  0.55871200  0.25000001  1
  O  O17  1  0.37003900  0.44128800  0.75000004  1
  O  O18  1  0.12996100  0.94128800  0.75000004  1
  O  O19  1  0.87003899  0.05871200  0.25000001  1
