# generated using pymatgen
data_SrLiCuPO4
_symmetry_space_group_name_H-M   'P 1'
_cell_length_a   4.75132608
_cell_length_b   5.64427805
_cell_length_c   5.64427805
_cell_angle_alpha   79.79592133
_cell_angle_beta   65.10873413
_cell_angle_gamma   65.10873413
_symmetry_Int_Tables_number   1
_chemical_formula_structural   SrLiCuPO4
_chemical_formula_sum   'Sr1 Li1 Cu1 P1 O4'
_cell_volume   124.55174297
_cell_formula_units_Z   1
loop_
 _symmetry_equiv_pos_site_id
 _symmetry_equiv_pos_as_xyz
  1  'x, y, z'
loop_
 _atom_site_type_symbol
 _atom_site_label
 _atom_site_symmetry_multiplicity
 _atom_site_fract_x
 _atom_site_fract_y
 _atom_site_fract_z
 _atom_site_occupancy
  Sr  Sr0  1  0.75000001  0.49999999  0.50000001  1
  Li  Li1  1  0.25000004  0.49999999  0.49999998  1
  P  P2  1  0.00000000  0.00000000  0.00000000  1
  Cu  Cu3  1  0.05277106  0.63754398  0.25691397  1
  O  O4  1  0.69031499  0.25691399  0.36245602  1
  O  O5  1  0.30968506  0.74308598  0.63754397  1
  O  O6  1  0.94722899  0.36245599  0.74308602  1
  O  O7  1  0.49999998  0.00000000  0.00000002  1
