# generated using pymatgen
data_RbAg2SCl4
_symmetry_space_group_name_H-M   'P 1'
_cell_length_a   5.22990704
_cell_length_b   5.22990704
_cell_length_c   10.13413811
_cell_angle_alpha   90.00000000
_cell_angle_beta   90.00000000
_cell_angle_gamma   90.00000000
_symmetry_Int_Tables_number   1
_chemical_formula_structural   RbAg2SCl4
_chemical_formula_sum   'Rb1 Ag2 S1 Cl4'
_cell_volume   277.18821183
_cell_formula_units_Z   1
loop_
 _symmetry_equiv_pos_site_id
 _symmetry_equiv_pos_as_xyz
  1  'x, y, z'
loop_
 _atom_site_type_symbol
 _atom_site_label
 _atom_site_symmetry_multiplicity
 _atom_site_fract_x
 _atom_site_fract_y
 _atom_site_fract_z
 _atom_site_occupancy
  Rb  Rb0  1  0.00000000  0.50000000  0.30283100  1
  Ag  Ag1  1  0.50000000  0.00000000  0.69716899  1
  Cl  Cl2  1  0.50000000  0.00000000  0.08377800  1
  Ag  Ag3  1  0.00000000  0.50000000  0.91622199  1
  S  S4  1  0.00000000  0.50000000  0.66666666  1
  Cl  Cl5  1  0.50000000  0.00000000  0.33333333  1
  Cl  Cl6  1  0.00000000  0.00000000  0.00000000  1
  Cl  Cl7  1  0.50000000  0.50000000  -0.00000000  1
