# generated using pymatgen
data_NaSe2S3
_symmetry_space_group_name_H-M   'P 1'
_cell_length_a   4.73718405
_cell_length_b   4.87211132
_cell_length_c   5.84495974
_cell_angle_alpha   88.53241730
_cell_angle_beta   84.99392700
_cell_angle_gamma   80.95958710
_symmetry_Int_Tables_number   1
_chemical_formula_structural   NaSe2S3
_chemical_formula_sum   'Na1 Se2 S3'
_cell_volume   132.70849007
_cell_formula_units_Z   1
loop_
 _symmetry_equiv_pos_site_id
 _symmetry_equiv_pos_as_xyz
  1  'x, y, z'
loop_
 _atom_site_type_symbol
 _atom_site_label
 _atom_site_symmetry_multiplicity
 _atom_site_fract_x
 _atom_site_fract_y
 _atom_site_fract_z
 _atom_site_occupancy
  Na  Na0  1  0.81635098  0.54450803  0.04353699  1
  S  S1  1  0.43758797  0.98514305  0.26845697  1
  Se  Se2  1  0.01171699  0.28394701  0.60253400  1
  Se  Se3  1  0.30214998  0.73404204  0.74063499  1
  S  S4  1  0.01526400  0.01117300  0.02358200  1
  S  S5  1  0.54193098  0.44118702  0.44625599  1
