# generated using pymatgen
data_Li3VO7F
_symmetry_space_group_name_H-M   'P 1'
_cell_length_a   3.06262803
_cell_length_b   3.06262755
_cell_length_c   17.32389450
_cell_angle_alpha   90.00000000
_cell_angle_beta   90.00000000
_cell_angle_gamma   120.00000763
_symmetry_Int_Tables_number   1
_chemical_formula_structural   Li3VO7F
_chemical_formula_sum   'Li3 V1 O7 F1'
_cell_volume   140.72283220
_cell_formula_units_Z   1
loop_
 _symmetry_equiv_pos_site_id
 _symmetry_equiv_pos_as_xyz
  1  'x, y, z'
loop_
 _atom_site_type_symbol
 _atom_site_label
 _atom_site_symmetry_multiplicity
 _atom_site_fract_x
 _atom_site_fract_y
 _atom_site_fract_z
 _atom_site_occupancy
  Li  Li0  1  0.00000000  0.00000000  0.00000000  1
  Li  Li1  1  0.33333335  0.66666665  0.66662298  1
  V  V2  1  0.66666667  0.33333333  0.33333332  1
  Li  Li3  1  0.00000000  0.00000000  0.49999999  1
  O  O4  1  0.33333335  0.66666665  0.16677300  1
  O  O5  1  0.66666667  0.33333333  0.83322698  1
  O  O6  1  0.33333335  0.66666665  0.27345899  1
  O  O7  1  0.66666667  0.33333333  0.93964897  1
  O  O8  1  0.00000000  0.00000000  0.60659898  1
  O  O9  1  0.00000000  0.00000000  0.39340099  1
  F  F10  1  0.33333335  0.66666665  0.06035100  1
  O  O11  1  0.66666667  0.33333333  0.72654098  1
