# generated using pymatgen
data_Na3LiO4
_symmetry_space_group_name_H-M   'P 1'
_cell_length_a   4.62915611
_cell_length_b   4.62915611
_cell_length_c   6.13573885
_cell_angle_alpha   112.16213989
_cell_angle_beta   112.16213989
_cell_angle_gamma   90.00000000
_symmetry_Int_Tables_number   1
_chemical_formula_structural   Na3LiO4
_chemical_formula_sum   'Na3 Li1 O4'
_cell_volume   111.21003809
_cell_formula_units_Z   1
loop_
 _symmetry_equiv_pos_site_id
 _symmetry_equiv_pos_as_xyz
  1  'x, y, z'
loop_
 _atom_site_type_symbol
 _atom_site_label
 _atom_site_symmetry_multiplicity
 _atom_site_fract_x
 _atom_site_fract_y
 _atom_site_fract_z
 _atom_site_occupancy
  Li  Li0  1  0.00000000  0.00000000  0.00000000  1
  Na  Na1  1  0.74999998  0.24999999  0.49999999  1
  Na  Na2  1  0.49999999  0.49999999  0.00000000  1
  Na  Na3  1  0.24999999  0.74999998  0.49999999  1
  O  O4  1  0.47147599  0.97147598  0.94295199  1
  O  O5  1  0.27852399  0.27852399  0.55704799  1
  O  O6  1  0.72147598  0.72147598  0.44295199  1
  O  O7  1  0.02852400  0.52852399  0.05704800  1
