# generated using pymatgen
data_K2Sr2CuAsS2(N2O3)2
_symmetry_space_group_name_H-M   'P 1'
_cell_length_a   6.27901602
_cell_length_b   6.27901554
_cell_length_c   11.26716518
_cell_angle_alpha   90.00000000
_cell_angle_beta   90.00000000
_cell_angle_gamma   120.00000000
_symmetry_Int_Tables_number   1
_chemical_formula_structural   K2Sr2CuAsS2(N2O3)2
_chemical_formula_sum   'K2 Sr2 Cu1 As1 S2 N4 O6'
_cell_volume   384.70554139
_cell_formula_units_Z   1
loop_
 _symmetry_equiv_pos_site_id
 _symmetry_equiv_pos_as_xyz
  1  'x, y, z'
loop_
 _atom_site_type_symbol
 _atom_site_label
 _atom_site_symmetry_multiplicity
 _atom_site_fract_x
 _atom_site_fract_y
 _atom_site_fract_z
 _atom_site_occupancy
  K  K0  1  -0.00000001  0.37624400  0.80096499  1
  Sr  Sr1  1  0.33333331  0.66666667  0.29176200  1
  Sr  Sr2  1  -0.00000002  0.62375600  0.19903500  1
  K  K3  1  0.62375598  0.62375600  0.80096499  1
  As  As4  1  0.33333331  0.66666667  0.70823799  1
  Cu  Cu5  1  0.37624400  0.00000000  0.80096499  1
  S  S6  1  0.37624399  0.37624400  0.19903500  1
  S  S7  1  0.66666665  0.33333334  0.29176200  1
  N  N8  1  0.66666665  0.33333334  0.70823799  1
  O  O9  1  0.62375596  1.00000001  0.19903500  1
  O  O10  1  0.00000000  0.00000000  0.22452600  1
  O  O11  1  0.49999998  0.50000000  -0.00000000  1
  N  N12  1  0.33333331  0.66666667  0.49999999  1
  N  N13  1  0.00000000  0.00000000  0.77547399  1
  N  N14  1  -0.00000002  0.50000000  0.99999998  1
  O  O15  1  0.66666665  0.33333334  0.49999999  1
  O  O16  1  0.50000000  0.00000000  -0.00000000  1
  O  O17  1  0.00000000  0.00000000  0.49999999  1
