# generated using pymatgen
data_K2SeSBrCl
_symmetry_space_group_name_H-M   'P 1'
_cell_length_a   4.31220579
_cell_length_b   9.23329353
_cell_length_c   10.82036591
_cell_angle_alpha   90.00000000
_cell_angle_beta   90.00000000
_cell_angle_gamma   90.00000000
_symmetry_Int_Tables_number   1
_chemical_formula_structural   K2SeSBrCl
_chemical_formula_sum   'K4 Se2 S2 Br2 Cl2'
_cell_volume   430.82219406
_cell_formula_units_Z   2
loop_
 _symmetry_equiv_pos_site_id
 _symmetry_equiv_pos_as_xyz
  1  'x, y, z'
loop_
 _atom_site_type_symbol
 _atom_site_label
 _atom_site_symmetry_multiplicity
 _atom_site_fract_x
 _atom_site_fract_y
 _atom_site_fract_z
 _atom_site_occupancy
  K  K0  1  0.25000001  0.39339302  0.66323301  1
  K  K1  1  0.75000004  0.60660703  0.33676700  1
  K  K2  1  0.25000001  0.89339305  0.83676701  1
  K  K3  1  0.75000004  0.10660701  0.16323300  1
  Se  Se4  1  0.25000001  0.66272803  0.54875500  1
  Se  Se5  1  0.75000004  0.33727202  0.45124500  1
  Cl  Cl6  1  0.25000001  0.16272801  0.95124501  1
  Br  Br7  1  0.75000004  0.83727204  0.04875500  1
  S  S8  1  0.25000001  0.99255205  0.31184600  1
  Cl  Cl9  1  0.75000004  0.00744800  0.68815401  1
  Br  Br10  1  0.25000001  0.49255202  0.18815400  1
  S  S11  1  0.75000004  0.50744803  0.81184601  1
