# generated using pymatgen
data_KSrCu4AgSeS11O
_symmetry_space_group_name_H-M   'P 1'
_cell_length_a   6.70521593
_cell_length_b   8.98454475
_cell_length_c   9.30097675
_cell_angle_alpha   90.00000000
_cell_angle_beta   90.00000000
_cell_angle_gamma   89.91795349
_symmetry_Int_Tables_number   1
_chemical_formula_structural   KSrCu4AgSeS11O
_chemical_formula_sum   'K1 Sr1 Cu4 Ag1 Se1 S11 O1'
_cell_volume   560.32107570
_cell_formula_units_Z   1
loop_
 _symmetry_equiv_pos_site_id
 _symmetry_equiv_pos_as_xyz
  1  'x, y, z'
loop_
 _atom_site_type_symbol
 _atom_site_label
 _atom_site_symmetry_multiplicity
 _atom_site_fract_x
 _atom_site_fract_y
 _atom_site_fract_z
 _atom_site_occupancy
  K  K0  1  0.20632200  0.00408200  0.80045002  1
  Sr  Sr1  1  0.79367805  0.99591805  0.30045001  1
  Cu  Cu2  1  0.29968702  0.48085102  0.43530301  1
  Ag  Ag3  1  0.70031303  0.51914903  0.93530302  1
  Cu  Cu4  1  0.31272604  0.79071704  0.29322601  1
  Cu  Cu5  1  0.68727402  0.20928301  0.79322602  1
  Se  Se6  1  0.20385603  0.64728603  0.10474700  1
  Cu  Cu7  1  0.79614402  0.35271402  0.60474702  1
  O  O8  1  0.39774604  0.69399604  0.93825602  1
  S  S9  1  0.60225402  0.30600402  0.43825601  1
  S  S10  1  0.30419400  0.00160200  0.23034201  1
  S  S11  1  0.69580605  0.99839805  0.73034202  1
  S  S12  1  0.20668502  0.43042802  0.16857600  1
  S  S13  1  0.79331503  0.56957203  0.66857602  1
  S  S14  1  0.12212003  0.73359504  0.46117001  1
  S  S15  1  0.87788002  0.26640501  0.96117003  1
  S  S16  1  0.07033801  0.27201301  0.54338401  1
  S  S17  1  0.92966204  0.72798704  0.04338400  1
  S  S18  1  0.57636504  0.69062104  0.33466601  1
  S  S19  1  0.42363502  0.30937902  0.83466602  1
