# generated using pymatgen
data_NaSr5NdPbO8
_symmetry_space_group_name_H-M   'P 1'
_cell_length_a   6.26719809
_cell_length_b   6.26719809
_cell_length_c   6.58098221
_cell_angle_alpha   90.00000000
_cell_angle_beta   90.00000000
_cell_angle_gamma   90.00000000
_symmetry_Int_Tables_number   1
_chemical_formula_structural   NaSr5NdPbO8
_chemical_formula_sum   'Na1 Sr5 Nd1 Pb1 O8'
_cell_volume   258.48631770
_cell_formula_units_Z   1
loop_
 _symmetry_equiv_pos_site_id
 _symmetry_equiv_pos_as_xyz
  1  'x, y, z'
loop_
 _atom_site_type_symbol
 _atom_site_label
 _atom_site_symmetry_multiplicity
 _atom_site_fract_x
 _atom_site_fract_y
 _atom_site_fract_z
 _atom_site_occupancy
  Sr  Sr0  1  0.84423699  0.15576300  0.76297498  1
  Sr  Sr1  1  0.65576299  0.65576299  0.73702498  1
  Nd  Nd2  1  0.15576300  0.84423699  0.23702499  1
  Sr  Sr3  1  0.15576300  0.84423699  0.76297498  1
  Sr  Sr4  1  0.00000000  0.49999999  -0.00000000  1
  Sr  Sr5  1  0.34423700  0.34423700  0.26297499  1
  Pb  Pb6  1  0.49999999  0.00000000  0.49999998  1
  Na  Na7  1  0.65576299  0.65576299  0.26297499  1
  O  O8  1  0.84423699  0.15576300  0.23702499  1
  O  O9  1  0.34423700  0.34423700  0.73702498  1
  O  O10  1  0.00000000  0.49999999  0.49999998  1
  O  O11  1  0.49999999  0.00000000  0.00000000  1
  O  O12  1  0.34365200  0.65634799  0.49999998  1
  O  O13  1  0.65634799  0.34365200  0.49999998  1
  O  O14  1  0.84365199  0.84365199  -0.00000000  1
  O  O15  1  0.15634800  0.15634800  -0.00000000  1
