# generated using pymatgen
data_Rb4S2Br3Cl7
_symmetry_space_group_name_H-M   'P 1'
_cell_length_a   6.61256123
_cell_length_b   6.61256123
_cell_length_c   10.94956779
_cell_angle_alpha   90.00000000
_cell_angle_beta   90.00000000
_cell_angle_gamma   90.00000000
_symmetry_Int_Tables_number   1
_chemical_formula_structural   Rb4S2Br3Cl7
_chemical_formula_sum   'Rb4 S2 Br3 Cl7'
_cell_volume   478.78042874
_cell_formula_units_Z   1
loop_
 _symmetry_equiv_pos_site_id
 _symmetry_equiv_pos_as_xyz
  1  'x, y, z'
loop_
 _atom_site_type_symbol
 _atom_site_label
 _atom_site_symmetry_multiplicity
 _atom_site_fract_x
 _atom_site_fract_y
 _atom_site_fract_z
 _atom_site_occupancy
  Rb  Rb0  1  0.00000000  0.00000000  0.75000001  1
  Rb  Rb1  1  0.00000000  0.00000000  0.25000000  1
  Rb  Rb2  1  0.49999998  0.00000000  0.50000001  1
  Rb  Rb3  1  0.00000000  0.49999998  -0.00000000  1
  Br  Br4  1  0.79038597  0.20093599  -0.00000000  1
  Cl  Cl5  1  0.79906397  0.79038597  0.50000001  1
  Br  Br6  1  0.20093599  0.20961399  0.50000001  1
  Cl  Cl7  1  0.20961399  0.79906397  -0.00000000  1
  Cl  Cl8  1  0.21153999  0.35089199  0.15584900  1
  Cl  Cl9  1  0.64910798  0.21153999  0.65584901  1
  S  S10  1  0.35089199  0.78845997  0.65584901  1
  Br  Br11  1  0.78845997  0.64910798  0.15584900  1
  Cl  Cl12  1  0.78845997  0.64910798  0.84415102  1
  Cl  Cl13  1  0.35089199  0.78845997  0.34415101  1
  Cl  Cl14  1  0.64910798  0.21153999  0.34415101  1
  S  S15  1  0.21153999  0.35089199  0.84415102  1
