# generated using pymatgen
data_KSeSBrCl2
_symmetry_space_group_name_H-M   'P 1'
_cell_length_a   5.04942226
_cell_length_b   5.04942226
_cell_length_c   7.15215302
_cell_angle_alpha   90.00000000
_cell_angle_beta   90.00000000
_cell_angle_gamma   101.36933899
_symmetry_Int_Tables_number   1
_chemical_formula_structural   KSeSBrCl2
_chemical_formula_sum   'K1 Se1 S1 Br1 Cl2'
_cell_volume   178.77764305
_cell_formula_units_Z   1
loop_
 _symmetry_equiv_pos_site_id
 _symmetry_equiv_pos_as_xyz
  1  'x, y, z'
loop_
 _atom_site_type_symbol
 _atom_site_label
 _atom_site_symmetry_multiplicity
 _atom_site_fract_x
 _atom_site_fract_y
 _atom_site_fract_z
 _atom_site_occupancy
  K  K0  1  0.37736204  0.62263701  0.25000000  1
  Cl  Cl1  1  0.62263702  0.37736200  0.75000000  1
  Br  Br2  1  0.00000000  0.00000000  0.50000000  1
  Se  Se3  1  0.00000000  0.00000000  0.00000000  1
  S  S4  1  0.80792301  0.19207700  0.25000000  1
  Cl  Cl5  1  0.19207705  0.80792301  0.75000000  1
