# generated using pymatgen
data_Li3VO3
_symmetry_space_group_name_H-M   'P 1'
_cell_length_a   5.88546181
_cell_length_b   5.88546181
_cell_length_c   7.05664635
_cell_angle_alpha   114.64630890
_cell_angle_beta   114.64630890
_cell_angle_gamma   90.00000000
_symmetry_Int_Tables_number   1
_chemical_formula_structural   Li3VO3
_chemical_formula_sum   'Li6 V2 O6'
_cell_volume   197.40063079
_cell_formula_units_Z   2
loop_
 _symmetry_equiv_pos_site_id
 _symmetry_equiv_pos_as_xyz
  1  'x, y, z'
loop_
 _atom_site_type_symbol
 _atom_site_label
 _atom_site_symmetry_multiplicity
 _atom_site_fract_x
 _atom_site_fract_y
 _atom_site_fract_z
 _atom_site_occupancy
  Li  Li0  1  0.50000004  0.50000003  1.00000002  1
  Li  Li1  1  0.25000003  0.75000004  0.50000003  1
  Li  Li2  1  0.87500006  0.62500003  0.75000004  1
  Li  Li3  1  0.37500002  0.12500001  0.25000001  1
  Li  Li4  1  0.87500004  0.12500001  0.75000002  1
  Li  Li5  1  0.87500004  0.12500001  0.25000002  1
  V  V6  1  0.62234405  0.86239304  0.72478504  1
  V  V7  1  0.13760802  0.37765702  0.27521602  1
  O  O8  1  0.13760803  0.89755905  0.27521503  1
  O  O9  1  0.12765602  0.38760702  0.77521501  1
  O  O10  1  0.64755904  0.38760802  0.77521602  1
  O  O11  1  0.61239205  0.87234304  0.22478404  1
  O  O12  1  0.10244103  0.86239204  0.72478403  1
  O  O13  1  0.61239204  0.35244102  0.22478503  1
