# generated using pymatgen
data_Li4Mn3O11
_symmetry_space_group_name_H-M   'P 1'
_cell_length_a   4.68969822
_cell_length_b   5.62289286
_cell_length_c   7.76212740
_cell_angle_alpha   93.75374603
_cell_angle_beta   89.99517822
_cell_angle_gamma   89.99897766
_symmetry_Int_Tables_number   1
_chemical_formula_structural   Li4Mn3O11
_chemical_formula_sum   'Li4 Mn3 O11'
_cell_volume   204.24562060
_cell_formula_units_Z   1
loop_
 _symmetry_equiv_pos_site_id
 _symmetry_equiv_pos_as_xyz
  1  'x, y, z'
loop_
 _atom_site_type_symbol
 _atom_site_label
 _atom_site_symmetry_multiplicity
 _atom_site_fract_x
 _atom_site_fract_y
 _atom_site_fract_z
 _atom_site_occupancy
  Li  Li0  1  0.49667394  0.50776501  0.99969100  1
  Li  Li1  1  0.50376096  0.16505700  0.66930500  1
  Li  Li2  1  0.48204292  0.82829802  0.33041499  1
  Li  Li3  1  0.00607295  0.66882502  0.65955300  1
  Mn  Mn4  1  0.00583298  0.33868101  0.33519800  1
  Mn  Mn5  1  0.00873793  0.99398702  0.00456799  1
  Mn  Mn6  1  0.19458595  0.63016102  0.43282600  1
  O  O7  1  0.30312493  0.79606902  0.10170699  1
  O  O8  1  0.19582192  0.96582702  0.76746000  1
  O  O9  1  0.19755397  0.29844601  0.10124699  1
  O  O10  1  0.30261295  0.46381601  0.76756400  1
  O  O11  1  0.30339898  0.13149100  0.43586200  1
  O  O12  1  0.69310590  0.86722702  0.56198599  1
  O  O13  1  0.69944593  0.53566601  0.23188798  1
  O  O14  1  0.69807095  0.20220600  0.90387900  1
  O  O15  1  0.80206496  0.03559400  0.23598999  1
  O  O16  1  0.80630491  0.70229102  0.89432899  1
  O  O17  1  0.80078894  0.36859401  0.56652999  1
