# generated using pymatgen
data_Li3AlB3N5
_symmetry_space_group_name_H-M   'P 1'
_cell_length_a   4.53037024
_cell_length_b   4.89130306
_cell_length_c   8.40787888
_cell_angle_alpha   90.00000000
_cell_angle_beta   90.00000000
_cell_angle_gamma   90.00000000
_symmetry_Int_Tables_number   1
_chemical_formula_structural   Li3AlB3N5
_chemical_formula_sum   'Li3 Al1 B3 N5'
_cell_volume   186.31366724
_cell_formula_units_Z   1
loop_
 _symmetry_equiv_pos_site_id
 _symmetry_equiv_pos_as_xyz
  1  'x, y, z'
loop_
 _atom_site_type_symbol
 _atom_site_label
 _atom_site_symmetry_multiplicity
 _atom_site_fract_x
 _atom_site_fract_y
 _atom_site_fract_z
 _atom_site_occupancy
  Li  Li0  1  0.49999997  0.00399000  0.75809101  1
  Al  Al1  1  0.00000000  0.49595699  0.76667101  1
  Li  Li2  1  0.49999997  0.00399000  0.24190900  1
  Li  Li3  1  0.00000000  0.49595699  0.23332900  1
  B  B4  1  0.00000000  0.01099400  0.50000001  1
  B  B5  1  0.00000000  0.99714599  0.00000000  1
  B  B6  1  0.49999997  0.57284599  0.50000001  1
  N  N7  1  0.00000000  0.99485099  0.78448101  1
  N  N8  1  0.00000000  0.99485099  0.21551900  1
  N  N9  1  0.49999997  0.44402199  0.63573701  1
  N  N10  1  0.49999997  0.44402199  0.36426301  1
  N  N11  1  0.49999997  0.84037599  0.50000001  1
