# generated using pymatgen
data_SrLiNbO6
_symmetry_space_group_name_H-M   'P 1'
_cell_length_a   4.92531776
_cell_length_b   5.32647181
_cell_length_c   5.32647181
_cell_angle_alpha   120.00000000
_cell_angle_beta   90.00000000
_cell_angle_gamma   90.00000000
_symmetry_Int_Tables_number   1
_chemical_formula_structural   SrLiNbO6
_chemical_formula_sum   'Sr1 Li1 Nb1 O6'
_cell_volume   121.01637834
_cell_formula_units_Z   1
loop_
 _symmetry_equiv_pos_site_id
 _symmetry_equiv_pos_as_xyz
  1  'x, y, z'
loop_
 _atom_site_type_symbol
 _atom_site_label
 _atom_site_symmetry_multiplicity
 _atom_site_fract_x
 _atom_site_fract_y
 _atom_site_fract_z
 _atom_site_occupancy
  Sr  Sr0  1  0.00000000  0.00000000  0.00000000  1
  Li  Li1  1  0.50000002  0.66666669  0.33333334  1
  Nb  Nb2  1  0.50000002  0.33333334  0.66666668  1
  O  O3  1  0.27671801  0.63340402  -0.00000000  1
  O  O4  1  0.27671801  0.36659601  0.36659601  1
  O  O5  1  0.27671801  1.00000003  0.63340401  1
  O  O6  1  0.72328203  0.63340402  0.63340401  1
  O  O7  1  0.72328203  0.00000000  0.36659601  1
  O  O8  1  0.72328203  0.36659601  -0.00000000  1
