# generated using pymatgen
data_NaSrO3
_symmetry_space_group_name_H-M   'P 1'
_cell_length_a   5.66377592
_cell_length_b   5.82606411
_cell_length_c   8.10996628
_cell_angle_alpha   90.00000000
_cell_angle_beta   90.12825775
_cell_angle_gamma   90.00000000
_symmetry_Int_Tables_number   1
_chemical_formula_structural   NaSrO3
_chemical_formula_sum   'Na4 Sr4 O12'
_cell_volume   267.60811710
_cell_formula_units_Z   4
loop_
 _symmetry_equiv_pos_site_id
 _symmetry_equiv_pos_as_xyz
  1  'x, y, z'
loop_
 _atom_site_type_symbol
 _atom_site_label
 _atom_site_symmetry_multiplicity
 _atom_site_fract_x
 _atom_site_fract_y
 _atom_site_fract_z
 _atom_site_occupancy
  Sr  Sr0  1  0.01067300  0.45031299  0.25038499  1
  Sr  Sr1  1  0.98932698  0.54968699  0.74961495  1
  Sr  Sr2  1  0.48932699  0.95031298  0.24961498  1
  Sr  Sr3  1  0.51067299  0.04968700  0.75038496  1
  Na  Na4  1  0.00000000  0.00000000  0.00000000  1
  Na  Na5  1  0.49999999  0.49999999  0.49999997  1
  Na  Na6  1  0.00000000  0.00000000  0.49999998  1
  Na  Na7  1  0.49999999  0.49999999  -0.00000001  1
  O  O8  1  0.19965400  0.69705399  0.04927899  1
  O  O9  1  0.80034599  0.30294599  0.95072094  1
  O  O10  1  0.30034600  0.19705400  0.45072097  1
  O  O11  1  0.69965399  0.80294598  0.54927896  1
  O  O12  1  0.30496000  0.20061900  0.04878199  1
  O  O13  1  0.69503999  0.79938098  0.95121794  1
  O  O14  1  0.19504000  0.70061899  0.45121798  1
  O  O15  1  0.80495999  0.29938099  0.54878196  1
  O  O16  1  0.90660199  0.03162800  0.25074597  1
  O  O17  1  0.09339800  0.96837198  0.74925396  1
  O  O18  1  0.59339799  0.53162799  0.24925398  1
  O  O19  1  0.40660199  0.46837199  0.75074596  1
