# generated using pymatgen
data_K2NaCu2Te(AsS)3
_symmetry_space_group_name_H-M   'P 1'
_cell_length_a   6.77143908
_cell_length_b   6.77143908
_cell_length_c   6.77143908
_cell_angle_alpha   90.00000000
_cell_angle_beta   90.00000000
_cell_angle_gamma   90.00000000
_symmetry_Int_Tables_number   1
_chemical_formula_structural   K2NaCu2Te(AsS)3
_chemical_formula_sum   'K2 Na1 Cu2 Te1 As3 S3'
_cell_volume   310.48664607
_cell_formula_units_Z   1
loop_
 _symmetry_equiv_pos_site_id
 _symmetry_equiv_pos_as_xyz
  1  'x, y, z'
loop_
 _atom_site_type_symbol
 _atom_site_label
 _atom_site_symmetry_multiplicity
 _atom_site_fract_x
 _atom_site_fract_y
 _atom_site_fract_z
 _atom_site_occupancy
  Na  Na0  1  0.62499999  0.37500000  0.87499999  1
  K  K1  1  0.37500000  0.87499999  0.62499999  1
  K  K2  1  0.87499999  0.62499999  0.37500000  1
  Te  Te3  1  0.12500000  0.12500000  0.12500000  1
  As  As4  1  0.83191199  0.83191199  0.83191199  1
  Cu  Cu5  1  0.58191199  0.91808799  0.08191200  1
  As  As6  1  0.91808799  0.08191200  0.58191199  1
  Cu  Cu7  1  0.08191200  0.58191199  0.91808799  1
  S  S8  1  0.41808800  0.41808800  0.41808800  1
  S  S9  1  0.16808800  0.33191200  0.66808799  1
  S  S10  1  0.66808799  0.16808800  0.33191200  1
  As  As11  1  0.33191200  0.66808799  0.16808800  1
