# generated using pymatgen
data_KRbSI(ClO2)2
_symmetry_space_group_name_H-M   'P 1'
_cell_length_a   5.10801315
_cell_length_b   5.96074820
_cell_length_c   7.86972523
_cell_angle_alpha   90.00000000
_cell_angle_beta   108.21788788
_cell_angle_gamma   90.00000000
_symmetry_Int_Tables_number   1
_chemical_formula_structural   KRbSI(ClO2)2
_chemical_formula_sum   'Rb1 K1 S1 I1 Cl2 O4'
_cell_volume   227.60331228
_cell_formula_units_Z   1
loop_
 _symmetry_equiv_pos_site_id
 _symmetry_equiv_pos_as_xyz
  1  'x, y, z'
loop_
 _atom_site_type_symbol
 _atom_site_label
 _atom_site_symmetry_multiplicity
 _atom_site_fract_x
 _atom_site_fract_y
 _atom_site_fract_z
 _atom_site_occupancy
  Rb  Rb0  1  0.18230499  0.74999998  0.76887198  1
  K  K1  1  0.81769497  0.24999999  0.23112798  1
  I  I2  1  0.76069197  0.24999999  0.76125297  1
  S  S3  1  0.23930799  0.74999998  0.23874699  1
  Cl  Cl4  1  0.30372499  0.95341697  0.17172599  1
  O  O5  1  0.69627497  0.45341699  0.82827397  1
  O  O6  1  0.69627497  0.04658300  0.82827397  1
  O  O7  1  0.30372499  0.54658298  0.17172599  1
  Cl  Cl8  1  0.09131300  0.74999998  0.36208799  1
  O  O9  1  0.90868697  0.24999999  0.63791197  1
