# generated using pymatgen
data_Li2AlV(SiO7)2
_symmetry_space_group_name_H-M   'P 1'
_cell_length_a   5.47677612
_cell_length_b   6.15155077
_cell_length_c   7.30675793
_cell_angle_alpha   90.00000000
_cell_angle_beta   90.00000000
_cell_angle_gamma   90.00000000
_symmetry_Int_Tables_number   1
_chemical_formula_structural   Li2AlV(SiO7)2
_chemical_formula_sum   'Li2 Al1 V1 Si2 O14'
_cell_volume   246.16954361
_cell_formula_units_Z   1
loop_
 _symmetry_equiv_pos_site_id
 _symmetry_equiv_pos_as_xyz
  1  'x, y, z'
loop_
 _atom_site_type_symbol
 _atom_site_label
 _atom_site_symmetry_multiplicity
 _atom_site_fract_x
 _atom_site_fract_y
 _atom_site_fract_z
 _atom_site_occupancy
  Li  Li0  1  0.49999999  0.00000000  -0.00000000  1
  Li  Li1  1  0.00000000  0.50000002  -0.00000000  1
  O  O2  1  0.00000000  0.50000002  0.50000000  1
  Al  Al3  1  0.49999999  0.00000000  0.50000000  1
  Si  Si4  1  0.00867300  0.04562500  0.25000000  1
  V  V5  1  0.50867299  0.45437502  0.75000001  1
  O  O6  1  0.49132699  0.54562502  0.25000000  1
  Si  Si7  1  0.99132698  0.95437504  0.75000001  1
  O  O8  1  0.91521298  0.20593401  0.43244100  1
  O  O9  1  0.41521299  0.29406601  0.56755901  1
  O  O10  1  0.58478699  0.70593403  0.06755900  1
  O  O11  1  0.08478700  0.79406603  0.93244101  1
  O  O12  1  0.08478700  0.79406603  0.56755901  1
  O  O13  1  0.58478699  0.70593403  0.43244100  1
  O  O14  1  0.41521299  0.29406601  0.93244101  1
  O  O15  1  0.91521298  0.20593401  0.06755900  1
  O  O16  1  0.33469699  0.07134400  0.25000000  1
  O  O17  1  0.83469698  0.42865602  0.75000001  1
  O  O18  1  0.16530300  0.57134402  0.25000000  1
  O  O19  1  0.66530299  0.92865603  0.75000001  1
