# generated using pymatgen
data_Na2SrO3
_symmetry_space_group_name_H-M   'P 1'
_cell_length_a   3.58233261
_cell_length_b   3.58233261
_cell_length_c   10.08772850
_cell_angle_alpha   79.77239227
_cell_angle_beta   79.77239227
_cell_angle_gamma   59.99998856
_symmetry_Int_Tables_number   1
_chemical_formula_structural   Na2SrO3
_chemical_formula_sum   'Na2 Sr1 O3'
_cell_volume   109.73124857
_cell_formula_units_Z   1
loop_
 _symmetry_equiv_pos_site_id
 _symmetry_equiv_pos_as_xyz
  1  'x, y, z'
loop_
 _atom_site_type_symbol
 _atom_site_label
 _atom_site_symmetry_multiplicity
 _atom_site_fract_x
 _atom_site_fract_y
 _atom_site_fract_z
 _atom_site_occupancy
  Sr  Sr0  1  0.87752201  0.87752200  0.36743395  1
  Na  Na1  1  0.12247800  0.12247800  0.63256597  1
  Na  Na2  1  0.80393201  0.80393200  0.58820395  1
  O  O3  1  0.19606800  0.19606800  0.41179598  1
  O  O4  1  0.60558201  0.60558200  0.18325397  1
  O  O5  1  0.39441801  0.39441800  0.81674595  1
