# generated using pymatgen
data_K3CuSbTe2AsS8
_symmetry_space_group_name_H-M   'P 1'
_cell_length_a   6.49001217
_cell_length_b   6.96613741
_cell_length_c   12.51991844
_cell_angle_alpha   100.59906769
_cell_angle_beta   90.00000000
_cell_angle_gamma   117.76367188
_symmetry_Int_Tables_number   1
_chemical_formula_structural   K3CuSbTe2AsS8
_chemical_formula_sum   'K3 Cu1 Sb1 Te2 As1 S8'
_cell_volume   489.92596806
_cell_formula_units_Z   1
loop_
 _symmetry_equiv_pos_site_id
 _symmetry_equiv_pos_as_xyz
  1  'x, y, z'
loop_
 _atom_site_type_symbol
 _atom_site_label
 _atom_site_symmetry_multiplicity
 _atom_site_fract_x
 _atom_site_fract_y
 _atom_site_fract_z
 _atom_site_occupancy
  K  K0  1  0.49999995  0.49999996  0.49999999  1
  Sb  Sb1  1  -0.00000004  0.49999996  -0.00000002  1
  K  K2  1  0.11852900  0.00000000  0.75000002  1
  K  K3  1  0.88147098  0.00000000  0.25000001  1
  Te  Te4  1  0.53710292  0.83677894  0.60341098  1
  Te  Te5  1  0.46289697  0.16322099  0.39658900  1
  Cu  Cu6  1  0.70032397  0.16322099  0.89658901  1
  As  As7  1  0.29967592  0.83677894  0.10341097  1
  S  S8  1  0.62927695  0.42842997  0.65902700  1
  S  S9  1  0.37072294  0.57156996  0.34097298  1
  S  S10  1  0.20084795  0.57157096  0.84097300  1
  S  S11  1  0.79915294  0.42842997  0.15902699  1
  S  S12  1  0.20416697  0.31008998  0.04020399  1
  S  S13  1  0.79583292  0.68990995  0.95979599  1
  S  S14  1  0.89407692  0.68990995  0.45979598  1
  S  S15  1  0.10592297  0.31008998  0.54020400  1
