# generated using pymatgen
data_ZnCu2TeS4
_symmetry_space_group_name_H-M   'P 1'
_cell_length_a   5.56292582
_cell_length_b   5.56292582
_cell_length_c   6.85972548
_cell_angle_alpha   113.92104340
_cell_angle_beta   113.92104340
_cell_angle_gamma   90.00000000
_symmetry_Int_Tables_number   1
_chemical_formula_structural   ZnCu2TeS4
_chemical_formula_sum   'Zn1 Cu2 Te1 S4'
_cell_volume   173.91280590
_cell_formula_units_Z   1
loop_
 _symmetry_equiv_pos_site_id
 _symmetry_equiv_pos_as_xyz
  1  'x, y, z'
loop_
 _atom_site_type_symbol
 _atom_site_label
 _atom_site_symmetry_multiplicity
 _atom_site_fract_x
 _atom_site_fract_y
 _atom_site_fract_z
 _atom_site_occupancy
  Zn  Zn0  1  0.50000004  0.50000003  0.00000004  1
  Cu  Cu1  1  0.25000004  0.75000004  0.50000003  1
  Cu  Cu2  1  0.75000005  0.25000001  0.50000002  1
  Te  Te3  1  0.00000000  0.00000000  0.00000000  1
  S  S4  1  0.87500006  0.34539802  0.25000004  1
  S  S5  1  0.09539801  0.12500001  0.74999999  1
  S  S6  1  0.37500005  0.90460205  0.25000005  1
  S  S7  1  0.65460205  0.62500003  0.75000003  1
