# generated using pymatgen
data_Na2Li2CuO8
_symmetry_space_group_name_H-M   'P 1'
_cell_length_a   5.30956793
_cell_length_b   5.34915400
_cell_length_c   6.91961098
_cell_angle_alpha   90.00000000
_cell_angle_beta   112.56063080
_cell_angle_gamma   90.00000000
_symmetry_Int_Tables_number   1
_chemical_formula_structural   Na2Li2CuO8
_chemical_formula_sum   'Na2 Li2 Cu1 O8'
_cell_volume   181.48914746
_cell_formula_units_Z   1
loop_
 _symmetry_equiv_pos_site_id
 _symmetry_equiv_pos_as_xyz
  1  'x, y, z'
loop_
 _atom_site_type_symbol
 _atom_site_label
 _atom_site_symmetry_multiplicity
 _atom_site_fract_x
 _atom_site_fract_y
 _atom_site_fract_z
 _atom_site_occupancy
  Li  Li0  1  0.63369000  0.50000000  0.26737999  1
  Na  Na1  1  0.86543501  0.00000000  0.73086997  1
  Li  Li2  1  0.13456500  0.00000000  0.26912999  1
  Na  Na3  1  0.36631000  0.50000000  0.73261997  1
  Cu  Cu4  1  0.00000000  0.50000000  -0.00000000  1
  O  O5  1  0.24809600  0.73835400  0.99999997  1
  O  O6  1  0.75190401  0.73835400  0.99999996  1
  O  O7  1  0.83842101  0.50000000  0.67684197  1
  O  O8  1  0.16157900  0.50000000  0.32315799  1
  O  O9  1  0.75190401  0.26164600  0.99999996  1
  O  O10  1  0.31175400  0.00000000  0.62350798  1
  O  O11  1  0.68824601  0.00000000  0.37649198  1
  O  O12  1  0.24809600  0.26164600  0.99999997  1
