# generated using pymatgen
data_Li2VCu(BiO5)2
_symmetry_space_group_name_H-M   'P 1'
_cell_length_a   5.46632385
_cell_length_b   7.05047512
_cell_length_c   7.09958458
_cell_angle_alpha   109.76390839
_cell_angle_beta   107.66225433
_cell_angle_gamma   96.83565521
_symmetry_Int_Tables_number   1
_chemical_formula_structural   Li2VCu(BiO5)2
_chemical_formula_sum   'Li2 V1 Cu1 Bi2 O10'
_cell_volume   237.75210992
_cell_formula_units_Z   1
loop_
 _symmetry_equiv_pos_site_id
 _symmetry_equiv_pos_as_xyz
  1  'x, y, z'
loop_
 _atom_site_type_symbol
 _atom_site_label
 _atom_site_symmetry_multiplicity
 _atom_site_fract_x
 _atom_site_fract_y
 _atom_site_fract_z
 _atom_site_occupancy
  Li  Li0  1  0.32712399  0.36754600  0.22763501  1
  Li  Li1  1  0.67287599  0.63245401  0.77236504  1
  Bi  Bi2  1  0.65820101  0.18085600  0.88593306  1
  Bi  Bi3  1  0.34179898  0.81914401  0.11406699  1
  Cu  Cu4  1  0.10297098  0.75600501  0.53527200  1
  V  V5  1  0.89702901  0.24399500  0.46472805  1
  O  O6  1  0.22541298  0.65993701  0.23044000  1
  O  O7  1  0.77458700  0.34006300  0.76956005  1
  O  O8  1  0.43431401  0.08501400  0.28917003  1
  O  O9  1  0.56568598  0.91498601  0.71083002  1
  O  O10  1  0.61750699  0.75563401  0.07151301  1
  O  O11  1  0.38249300  0.24436600  0.92848704  1
  O  O12  1  0.73569800  0.50278001  0.44983004  1
  O  O13  1  0.26430199  0.49722001  0.55017001  1
  O  O14  1  0.90962601  0.21703700  0.12964904  1
  O  O15  1  0.09037397  0.78296301  0.87035100  1
