# generated using pymatgen
data_KNa3ClO3
_symmetry_space_group_name_H-M   'P 1'
_cell_length_a   3.56759405
_cell_length_b   3.56759405
_cell_length_c   13.75331497
_cell_angle_alpha   90.00000000
_cell_angle_beta   90.00000000
_cell_angle_gamma   120.00000000
_symmetry_Int_Tables_number   1
_chemical_formula_structural   KNa3ClO3
_chemical_formula_sum   'K1 Na3 Cl1 O3'
_cell_volume   151.59639822
_cell_formula_units_Z   1
loop_
 _symmetry_equiv_pos_site_id
 _symmetry_equiv_pos_as_xyz
  1  'x, y, z'
loop_
 _atom_site_type_symbol
 _atom_site_label
 _atom_site_symmetry_multiplicity
 _atom_site_fract_x
 _atom_site_fract_y
 _atom_site_fract_z
 _atom_site_occupancy
  Na  Na0  1  0.66666666  0.33333332  0.75000000  1
  K  K1  1  0.33333332  0.66666665  0.25000000  1
  Na  Na2  1  0.00000000  0.00000000  0.00000000  1
  Na  Na3  1  0.00000000  0.00000000  0.50000000  1
  Cl  Cl4  1  0.66666666  0.33333332  0.08294000  1
  O  O5  1  0.66666666  0.33333332  0.41706000  1
  O  O6  1  0.33333332  0.66666665  0.91706000  1
  O  O7  1  0.33333332  0.66666665  0.58294000  1
