# generated using pymatgen
data_Na3LiAg2S5O
_symmetry_space_group_name_H-M   'P 1'
_cell_length_a   4.14422607
_cell_length_b   6.91185188
_cell_length_c   10.22046947
_cell_angle_alpha   90.00000000
_cell_angle_beta   96.03614807
_cell_angle_gamma   90.00000000
_symmetry_Int_Tables_number   1
_chemical_formula_structural   Na3LiAg2S5O
_chemical_formula_sum   'Na3 Li1 Ag2 S5 O1'
_cell_volume   291.13483334
_cell_formula_units_Z   1
loop_
 _symmetry_equiv_pos_site_id
 _symmetry_equiv_pos_as_xyz
  1  'x, y, z'
loop_
 _atom_site_type_symbol
 _atom_site_label
 _atom_site_symmetry_multiplicity
 _atom_site_fract_x
 _atom_site_fract_y
 _atom_site_fract_z
 _atom_site_occupancy
  Li  Li0  1  0.26994700  0.18742400  0.35967302  1
  Na  Na1  1  0.23005300  0.68742401  0.14032701  1
  Na  Na2  1  0.73005299  0.81257601  0.64032704  1
  Na  Na3  1  0.76994699  0.31257601  0.85967304  1
  Ag  Ag4  1  0.32039400  0.12300300  0.04970201  1
  Ag  Ag5  1  0.17960600  0.62300301  0.45029802  1
  S  S6  1  0.67960599  0.87699701  0.95029804  1
  S  S7  1  0.82039399  0.37699701  0.54970204  1
  O  O8  1  0.29038000  0.64404701  0.82882303  1
  S  S9  1  0.20962000  0.14404700  0.67117702  1
  S  S10  1  0.70961999  0.35595301  0.17117702  1
  S  S11  1  0.79037999  0.85595301  0.32882303  1
