# generated using pymatgen
data_K2LiAgF4
_symmetry_space_group_name_H-M   'P 1'
_cell_length_a   6.09821320
_cell_length_b   6.96368599
_cell_length_c   6.96368504
_cell_angle_alpha   120.00000763
_cell_angle_beta   90.00000000
_cell_angle_gamma   90.00000000
_symmetry_Int_Tables_number   1
_chemical_formula_structural   K2LiAgF4
_chemical_formula_sum   'K2 Li1 Ag1 F4'
_cell_volume   256.10113375
_cell_formula_units_Z   1
loop_
 _symmetry_equiv_pos_site_id
 _symmetry_equiv_pos_as_xyz
  1  'x, y, z'
loop_
 _atom_site_type_symbol
 _atom_site_label
 _atom_site_symmetry_multiplicity
 _atom_site_fract_x
 _atom_site_fract_y
 _atom_site_fract_z
 _atom_site_occupancy
  K  K0  1  0.49999998  0.00000000  -0.00000000  1
  K  K1  1  0.00000000  0.00000000  0.00000000  1
  F  F2  1  0.24999999  0.29634101  0.29634103  1
  Li  Li3  1  0.74999998  0.29634101  0.00000002  1
  F  F4  1  0.74999998  0.70365903  0.70365906  1
  Ag  Ag5  1  0.24999999  0.70365903  0.00000005  1
  F  F6  1  0.24999999  0.00000000  0.70365901  1
  F  F7  1  0.74999998  0.00000000  0.29634100  1
