# generated using pymatgen
data_Li5V2O11
_symmetry_space_group_name_H-M   'P 1'
_cell_length_a   5.52775383
_cell_length_b   6.76814222
_cell_length_c   7.10483027
_cell_angle_alpha   83.59160614
_cell_angle_beta   78.14424896
_cell_angle_gamma   71.57788086
_symmetry_Int_Tables_number   1
_chemical_formula_structural   Li5V2O11
_chemical_formula_sum   'Li5 V2 O11'
_cell_volume   246.49672065
_cell_formula_units_Z   1
loop_
 _symmetry_equiv_pos_site_id
 _symmetry_equiv_pos_as_xyz
  1  'x, y, z'
loop_
 _atom_site_type_symbol
 _atom_site_label
 _atom_site_symmetry_multiplicity
 _atom_site_fract_x
 _atom_site_fract_y
 _atom_site_fract_z
 _atom_site_occupancy
  Li  Li0  1  0.74505996  0.61229102  0.78825104  1
  Li  Li1  1  0.25488297  0.38765001  0.21173401  1
  Li  Li2  1  0.18559094  0.83689702  0.60823502  1
  V  V3  1  0.81430599  0.16318900  0.39177604  1
  Li  Li4  1  0.74597700  0.08191300  0.91719105  1
  Li  Li5  1  0.25425793  0.91802602  0.08281300  1
  O  O6  1  0.63941094  0.80935702  0.96272204  1
  V  V7  1  0.13192693  0.96483402  0.83263502  1
  O  O8  1  0.86812600  0.03510900  0.16742203  1
  O  O9  1  0.36065499  0.19057800  0.03726701  1
  O  O10  1  0.76440598  0.36950101  0.89293305  1
  O  O11  1  0.78118500  0.04293200  0.62803304  1
  O  O12  1  0.21886093  0.95715802  0.37197501  1
  O  O13  1  0.23558995  0.63037502  0.10701701  1
  O  O14  1  0.53126095  0.67557602  0.62792803  1
  O  O15  1  0.05545395  0.60942801  0.66468102  1
  O  O16  1  0.94441498  0.39067801  0.33527204  1
  O  O17  1  0.46863498  0.32450801  0.37211502  1
