# generated using pymatgen
data_Sr3Ag4S11
_symmetry_space_group_name_H-M   'P 1'
_cell_length_a   6.64582968
_cell_length_b   8.48849010
_cell_length_c   8.48849010
_cell_angle_alpha   75.51374054
_cell_angle_beta   89.94204712
_cell_angle_gamma   89.94204712
_symmetry_Int_Tables_number   1
_chemical_formula_structural   Sr3Ag4S11
_chemical_formula_sum   'Sr3 Ag4 S11'
_cell_volume   463.63718274
_cell_formula_units_Z   1
loop_
 _symmetry_equiv_pos_site_id
 _symmetry_equiv_pos_as_xyz
  1  'x, y, z'
loop_
 _atom_site_type_symbol
 _atom_site_label
 _atom_site_symmetry_multiplicity
 _atom_site_fract_x
 _atom_site_fract_y
 _atom_site_fract_z
 _atom_site_occupancy
  Sr  Sr0  1  0.97047695  0.55542598  0.19176294  1
  Sr  Sr1  1  0.52952295  0.80823697  0.44457393  1
  Sr  Sr2  1  0.02952298  0.44457398  0.80823694  1
  Ag  Ag3  1  0.47047698  0.19176299  0.55542595  1
  Ag  Ag4  1  0.92700294  0.91399897  0.75706490  1
  Ag  Ag5  1  0.57299697  0.24293499  0.08600097  1
  Ag  Ag6  1  0.07299699  0.08600100  0.24293498  1
  S  S7  1  0.42700296  0.75706497  0.91399891  1
  S  S8  1  0.74999994  0.90252797  0.09747193  1
  S  S9  1  0.24999999  0.09747200  0.90252795  1
  S  S10  1  0.96568496  0.25376899  0.51497594  1
  S  S11  1  0.53431496  0.48502398  0.74623093  1
  S  S12  1  0.03431497  0.74623097  0.48502394  1
  S  S13  1  0.46568597  0.51497598  0.25376895  1
  S  S14  1  0.91435296  0.32993799  0.08086796  1
  S  S15  1  0.58564695  0.91913197  0.67006191  1
  S  S16  1  0.08564697  0.67006198  0.91913192  1
  S  S17  1  0.41435298  0.08086800  0.32993797  1
