# generated using pymatgen
data_Na2LiCuAgS7O
_symmetry_space_group_name_H-M   'P 1'
_cell_length_a   7.28689098
_cell_length_b   7.28689098
_cell_length_c   7.28689098
_cell_angle_alpha   60.00000000
_cell_angle_beta   60.00000000
_cell_angle_gamma   60.00000000
_symmetry_Int_Tables_number   1
_chemical_formula_structural   Na2LiCuAgS7O
_chemical_formula_sum   'Na2 Li1 Cu1 Ag1 S7 O1'
_cell_volume   273.59730738
_cell_formula_units_Z   1
loop_
 _symmetry_equiv_pos_site_id
 _symmetry_equiv_pos_as_xyz
  1  'x, y, z'
loop_
 _atom_site_type_symbol
 _atom_site_label
 _atom_site_symmetry_multiplicity
 _atom_site_fract_x
 _atom_site_fract_y
 _atom_site_fract_z
 _atom_site_occupancy
  Li  Li0  1  0.02323900  0.47676100  0.47676100  1
  Na  Na1  1  0.47676100  0.02323900  0.02323900  1
  Na  Na2  1  0.02323900  0.02323900  0.47676100  1
  Ag  Ag3  1  0.47676100  0.47676100  0.02323900  1
  Cu  Cu4  1  0.02323900  0.47676100  0.02323900  1
  S  S5  1  0.47676100  0.02323900  0.47676100  1
  S  S6  1  0.50000000  0.50000000  0.50000000  1
  S  S7  1  0.61515300  0.61515300  0.61515300  1
  S  S8  1  0.61515300  0.61515300  0.15454100  1
  S  S9  1  0.15454100  0.61515300  0.61515300  1
  O  O10  1  0.61515300  0.15454100  0.61515300  1
  S  S11  1  0.25000000  0.25000000  0.25000000  1
  S  S12  1  0.00000000  0.00000000  0.00000000  1
