# generated using pymatgen
data_Li5AlV2NO5
_symmetry_space_group_name_H-M   'P 1'
_cell_length_a   5.98141766
_cell_length_b   5.98141766
_cell_length_c   5.98141766
_cell_angle_alpha   60.00000000
_cell_angle_beta   60.00000000
_cell_angle_gamma   60.00000000
_symmetry_Int_Tables_number   1
_chemical_formula_structural   Li5AlV2NO5
_chemical_formula_sum   'Li5 Al1 V2 N1 O5'
_cell_volume   151.32036743
_cell_formula_units_Z   1
loop_
 _symmetry_equiv_pos_site_id
 _symmetry_equiv_pos_as_xyz
  1  'x, y, z'
loop_
 _atom_site_type_symbol
 _atom_site_label
 _atom_site_symmetry_multiplicity
 _atom_site_fract_x
 _atom_site_fract_y
 _atom_site_fract_z
 _atom_site_occupancy
  Li  Li0  1  0.50000000  0.50000000  0.50000000  1
  Al  Al1  1  0.25000000  0.25000000  0.25000000  1
  Li  Li2  1  0.87500000  0.37500000  0.87500000  1
  Li  Li3  1  0.87500000  0.87500000  0.87500000  1
  Li  Li4  1  0.87500000  0.87500000  0.37500000  1
  Li  Li5  1  0.37500000  0.87500000  0.87500000  1
  O  O6  1  0.11328200  0.11328100  0.11328100  1
  N  N7  1  0.63671800  0.08984400  0.63671900  1
  O  O8  1  0.08984300  0.63671900  0.63671900  1
  O  O9  1  0.63671800  0.63671900  0.08984400  1
  O  O10  1  0.66015700  0.11328100  0.11328100  1
  V  V11  1  0.11328200  0.11328100  0.66015600  1
  O  O12  1  0.63671800  0.63671900  0.63671900  1
  V  V13  1  0.11328200  0.66015600  0.11328100  1
