# generated using pymatgen
data_MoSe2
_symmetry_space_group_name_H-M   'P 1'
_cell_length_a   3.25369191
_cell_length_b   3.25369120
_cell_length_c   36.85244370
_cell_angle_alpha   90.00000000
_cell_angle_beta   90.00000000
_cell_angle_gamma   120.00000763
_symmetry_Int_Tables_number   1
_chemical_formula_structural   MoSe2
_chemical_formula_sum   'Mo4 Se8'
_cell_volume   337.87001383
_cell_formula_units_Z   4
loop_
 _symmetry_equiv_pos_site_id
 _symmetry_equiv_pos_as_xyz
  1  'x, y, z'
loop_
 _atom_site_type_symbol
 _atom_site_label
 _atom_site_symmetry_multiplicity
 _atom_site_fract_x
 _atom_site_fract_y
 _atom_site_fract_z
 _atom_site_occupancy
  Mo  Mo0  1  0.00000000  0.00000000  0.90608303  1
  Mo  Mo1  1  0.00000000  0.00000000  0.53034202  1
  Mo  Mo2  1  0.66666668  0.33333333  0.71820103  1
  Mo  Mo3  1  0.66666668  0.33333333  0.34245201  1
  Se  Se4  1  0.00000000  0.00000000  0.67185902  1
  Se  Se5  1  0.00000000  0.00000000  0.29606901  1
  Se  Se6  1  0.00000000  0.00000000  0.76456703  1
  Se  Se7  1  0.00000000  0.00000000  0.38882101  1
  Se  Se8  1  0.66666668  0.33333333  0.94817303  1
  Se  Se9  1  0.66666668  0.33333333  0.57241602  1
  Se  Se10  1  0.66666668  0.33333333  0.86399603  1
  Se  Se11  1  0.66666668  0.33333333  0.48827202  1
