# generated using pymatgen
data_SCl2
_symmetry_space_group_name_H-M   'P 1'
_cell_length_a   3.74897289
_cell_length_b   3.74896622
_cell_length_c   6.28286600
_cell_angle_alpha   90.00000000
_cell_angle_beta   90.00540161
_cell_angle_gamma   119.99993896
_symmetry_Int_Tables_number   1
_chemical_formula_structural   SCl2
_chemical_formula_sum   'S1 Cl2'
_cell_volume   76.47377355
_cell_formula_units_Z   1
loop_
 _symmetry_equiv_pos_site_id
 _symmetry_equiv_pos_as_xyz
  1  'x, y, z'
loop_
 _atom_site_type_symbol
 _atom_site_label
 _atom_site_symmetry_multiplicity
 _atom_site_fract_x
 _atom_site_fract_y
 _atom_site_fract_z
 _atom_site_occupancy
  Cl  Cl0  1  0.00000100  0.00000000  0.98686300  1
  Cl  Cl1  1  0.33333337  0.66666667  0.24878199  1
  S  S2  1  0.66661803  0.33328467  0.76435500  1
