# generated using pymatgen
data_Li3MoO4
_symmetry_space_group_name_H-M   'P 1'
_cell_length_a   5.38883781
_cell_length_b   5.38883781
_cell_length_c   5.80171347
_cell_angle_alpha   62.32745361
_cell_angle_beta   62.32745361
_cell_angle_gamma   60.00000381
_symmetry_Int_Tables_number   1
_chemical_formula_structural   Li3MoO4
_chemical_formula_sum   'Li3 Mo1 O4'
_cell_volume   123.15319043
_cell_formula_units_Z   1
loop_
 _symmetry_equiv_pos_site_id
 _symmetry_equiv_pos_as_xyz
  1  'x, y, z'
loop_
 _atom_site_type_symbol
 _atom_site_label
 _atom_site_symmetry_multiplicity
 _atom_site_fract_x
 _atom_site_fract_y
 _atom_site_fract_z
 _atom_site_occupancy
  Mo  Mo0  1  0.00000000  0.00000000  0.00000000  1
  Li  Li1  1  0.50000000  0.49999999  0.50000000  1
  Li  Li2  1  0.88339699  0.25000000  0.24999999  1
  Li  Li3  1  0.25000001  0.61660299  0.24999999  1
  O  O4  1  0.38339700  0.11660300  0.75000002  1
  O  O5  1  0.75000000  0.38339699  0.75000001  1
  O  O6  1  0.11660301  0.74999999  0.75000001  1
  O  O7  1  0.61660301  0.88339698  0.24999998  1
