# generated using pymatgen
data_ZnGe2Mo(SeS5)2
_symmetry_space_group_name_H-M   'P 1'
_cell_length_a   3.85340595
_cell_length_b   3.85340643
_cell_length_c   25.18961906
_cell_angle_alpha   90.00000000
_cell_angle_beta   90.00000000
_cell_angle_gamma   119.99999237
_symmetry_Int_Tables_number   1
_chemical_formula_structural   ZnGe2Mo(SeS5)2
_chemical_formula_sum   'Zn1 Ge2 Mo1 Se2 S10'
_cell_volume   323.92304512
_cell_formula_units_Z   1
loop_
 _symmetry_equiv_pos_site_id
 _symmetry_equiv_pos_as_xyz
  1  'x, y, z'
loop_
 _atom_site_type_symbol
 _atom_site_label
 _atom_site_symmetry_multiplicity
 _atom_site_fract_x
 _atom_site_fract_y
 _atom_site_fract_z
 _atom_site_occupancy
  Ge  Ge0  1  0.66666665  0.33333332  0.24999300  1
  Zn  Zn1  1  0.66666665  0.33333332  0.87499400  1
  Mo  Mo2  1  0.00000000  0.00000000  0.99998400  1
  Ge  Ge3  1  0.33333329  0.66666664  0.12495400  1
  S  S4  1  0.33333329  0.66666664  0.74999300  1
  Se  Se5  1  0.66666665  0.33333332  0.62495400  1
  S  S6  1  0.00000000  0.00000000  0.49998400  1
  S  S7  1  0.33333329  0.66666664  0.37499400  1
  S  S8  1  0.00000000  0.00000000  0.40621600  1
  S  S9  1  0.33333329  0.66666664  0.03122100  1
  Se  Se10  1  0.66666665  0.33333332  0.78128600  1
  S  S11  1  0.33333329  0.66666664  0.65615200  1
  S  S12  1  0.66666665  0.33333332  0.15615200  1
  S  S13  1  0.66666665  0.33333332  0.53122100  1
  S  S14  1  0.33333329  0.66666664  0.28128600  1
  S  S15  1  0.00000000  0.00000000  0.90621600  1
