# generated using pymatgen
data_Li3MgCu2SeS7
_symmetry_space_group_name_H-M   'P 1'
_cell_length_a   7.86490822
_cell_length_b   7.86490822
_cell_length_c   7.86490822
_cell_angle_alpha   60.00000000
_cell_angle_beta   60.00000000
_cell_angle_gamma   60.00000000
_symmetry_Int_Tables_number   1
_chemical_formula_structural   Li3MgCu2SeS7
_chemical_formula_sum   'Li3 Mg1 Cu2 Se1 S7'
_cell_volume   344.00596941
_cell_formula_units_Z   1
loop_
 _symmetry_equiv_pos_site_id
 _symmetry_equiv_pos_as_xyz
  1  'x, y, z'
loop_
 _atom_site_type_symbol
 _atom_site_label
 _atom_site_symmetry_multiplicity
 _atom_site_fract_x
 _atom_site_fract_y
 _atom_site_fract_z
 _atom_site_occupancy
  Li  Li0  1  0.87500001  0.37500000  0.87500001  1
  Li  Li1  1  0.87500001  0.87500001  0.87500001  1
  Mg  Mg2  1  0.87500001  0.87500001  0.37500000  1
  Li  Li3  1  0.37500000  0.87500001  0.87500001  1
  Cu  Cu4  1  0.25000000  0.25000000  0.25000000  1
  Cu  Cu5  1  0.50000001  0.50000001  0.50000001  1
  S  S6  1  0.11628400  0.11628500  0.11628500  1
  S  S7  1  0.63371601  0.09885400  0.63371501  1
  S  S8  1  0.09885500  0.63371501  0.63371501  1
  Se  Se9  1  0.63371601  0.63371501  0.09885400  1
  S  S10  1  0.65114501  0.11628500  0.11628500  1
  S  S11  1  0.11628400  0.11628500  0.65114601  1
  S  S12  1  0.63371601  0.63371501  0.63371501  1
  S  S13  1  0.11628400  0.65114601  0.11628500  1
