# generated using pymatgen
data_Li8TmN11
_symmetry_space_group_name_H-M   'P 1'
_cell_length_a   5.61601782
_cell_length_b   5.88403797
_cell_length_c   8.26636505
_cell_angle_alpha   90.00000000
_cell_angle_beta   90.00000000
_cell_angle_gamma   90.00000000
_symmetry_Int_Tables_number   1
_chemical_formula_structural   Li8TmN11
_chemical_formula_sum   'Li8 Tm1 N11'
_cell_volume   273.16089312
_cell_formula_units_Z   1
loop_
 _symmetry_equiv_pos_site_id
 _symmetry_equiv_pos_as_xyz
  1  'x, y, z'
loop_
 _atom_site_type_symbol
 _atom_site_label
 _atom_site_symmetry_multiplicity
 _atom_site_fract_x
 _atom_site_fract_y
 _atom_site_fract_z
 _atom_site_occupancy
  Tm  Tm0  1  0.01709600  0.94510000  0.75000000  1
  Li  Li1  1  0.48290402  0.44510000  0.75000000  1
  Li  Li2  1  0.51709602  0.55490000  0.25000000  1
  Li  Li3  1  0.98290403  0.05490000  0.25000000  1
  Li  Li4  1  0.00000000  0.50000000  -0.00000000  1
  Li  Li5  1  0.00000000  0.50000000  0.50000000  1
  Li  Li6  1  0.50000002  0.00000000  -0.00000000  1
  Li  Li7  1  0.50000002  0.00000000  0.50000000  1
  N  N8  1  0.14033900  0.43150400  0.25000000  1
  N  N9  1  0.18486801  0.18780900  0.57362800  1
  N  N10  1  0.18486801  0.18780900  0.92637199  1
  N  N11  1  0.31513201  0.68780900  0.92637199  1
  N  N12  1  0.31513201  0.68780900  0.57362800  1
  Li  Li13  1  0.35966101  0.93150400  0.25000000  1
  N  N14  1  0.64033902  0.06849600  0.75000000  1
  N  N15  1  0.68486802  0.31219100  0.07362800  1
  N  N16  1  0.68486802  0.31219100  0.42637200  1
  N  N17  1  0.81513203  0.81219100  0.07362800  1
  N  N18  1  0.81513203  0.81219100  0.42637200  1
  N  N19  1  0.85966103  0.56849600  0.75000000  1
