# generated using pymatgen
data_SrH(OF3)2
_symmetry_space_group_name_H-M   'P 1'
_cell_length_a   5.36923981
_cell_length_b   5.37473583
_cell_length_c   5.37473631
_cell_angle_alpha   60.25608444
_cell_angle_beta   60.03381729
_cell_angle_gamma   60.03382492
_symmetry_Int_Tables_number   1
_chemical_formula_structural   SrH(OF3)2
_chemical_formula_sum   'Sr1 H1 O2 F6'
_cell_volume   109.94316833
_cell_formula_units_Z   1
loop_
 _symmetry_equiv_pos_site_id
 _symmetry_equiv_pos_as_xyz
  1  'x, y, z'
loop_
 _atom_site_type_symbol
 _atom_site_label
 _atom_site_symmetry_multiplicity
 _atom_site_fract_x
 _atom_site_fract_y
 _atom_site_fract_z
 _atom_site_occupancy
  Sr  Sr0  1  0.75000000  0.74964604  0.75035402  1
  F  F1  1  0.25000000  0.25374001  0.24626001  1
  F  F2  1  0.50017500  0.49993003  0.49972002  1
  O  O3  1  0.99982504  0.00028000  0.00007000  1
  F  F4  1  0.24999998  0.75308004  0.74692003  1
  H  H5  1  0.75000002  0.24585601  0.25414401  1
  F  F6  1  0.25209298  0.74690204  0.24816800  1
  F  F7  1  0.24790700  0.25183201  0.75309803  1
  F  F8  1  0.75283700  0.74690204  0.24816800  1
  O  O9  1  0.74716302  0.25183201  0.75309803  1
