# generated using pymatgen
data_K3CuAsH2S
_symmetry_space_group_name_H-M   'P 1'
_cell_length_a   5.84403086
_cell_length_b   5.84403086
_cell_length_c   5.84403086
_cell_angle_alpha   90.00000000
_cell_angle_beta   90.00000000
_cell_angle_gamma   90.00000000
_symmetry_Int_Tables_number   1
_chemical_formula_structural   K3CuAsH2S
_chemical_formula_sum   'K3 Cu1 As1 H2 S1'
_cell_volume   199.58941313
_cell_formula_units_Z   1
loop_
 _symmetry_equiv_pos_site_id
 _symmetry_equiv_pos_as_xyz
  1  'x, y, z'
loop_
 _atom_site_type_symbol
 _atom_site_label
 _atom_site_symmetry_multiplicity
 _atom_site_fract_x
 _atom_site_fract_y
 _atom_site_fract_z
 _atom_site_occupancy
  K  K0  1  0.00000000  0.00000000  0.50000001  1
  K  K1  1  0.00000000  0.50000001  -0.00000000  1
  K  K2  1  0.50000001  0.00000000  0.00000000  1
  Cu  Cu3  1  0.50000001  0.50000001  0.50000001  1
  H  H4  1  0.50000001  0.50000001  -0.00000000  1
  As  As5  1  0.50000001  0.00000000  0.50000001  1
  H  H6  1  0.00000000  0.50000001  0.50000001  1
  S  S7  1  0.00000000  0.00000000  0.00000000  1
