# generated using pymatgen
data_KSr3CuO7
_symmetry_space_group_name_H-M   'P 1'
_cell_length_a   5.67114019
_cell_length_b   6.07520580
_cell_length_c   6.45640659
_cell_angle_alpha   61.93461227
_cell_angle_beta   90.00000000
_cell_angle_gamma   90.00000000
_symmetry_Int_Tables_number   1
_chemical_formula_structural   KSr3CuO7
_chemical_formula_sum   'K1 Sr3 Cu1 O7'
_cell_volume   196.28778897
_cell_formula_units_Z   1
loop_
 _symmetry_equiv_pos_site_id
 _symmetry_equiv_pos_as_xyz
  1  'x, y, z'
loop_
 _atom_site_type_symbol
 _atom_site_label
 _atom_site_symmetry_multiplicity
 _atom_site_fract_x
 _atom_site_fract_y
 _atom_site_fract_z
 _atom_site_occupancy
  K  K0  1  0.24999999  0.73233704  0.53532599  1
  Sr  Sr1  1  0.74999997  0.26766301  0.46467400  1
  Sr  Sr2  1  0.74999997  0.57381703  0.85236600  1
  Sr  Sr3  1  0.24999999  0.42618302  0.14763399  1
  Cu  Cu4  1  0.74999997  0.95112605  0.09774797  1
  O  O5  1  0.24999999  0.04887400  0.90225202  1
  O  O6  1  0.74999997  0.79576604  0.40846798  1
  O  O7  1  -0.00000000  0.78928304  1.00000000  1
  O  O8  1  0.49999998  0.21071701  -0.00000001  1
  O  O9  1  0.49999998  0.78928304  1.00000000  1
  O  O10  1  0.00000000  0.21071701  -0.00000001  1
  O  O11  1  0.24999999  0.20423401  0.59153201  1
