# generated using pymatgen
data_LiN
_symmetry_space_group_name_H-M   'P 1'
_cell_length_a   5.47798204
_cell_length_b   5.52976799
_cell_length_c   7.78879118
_cell_angle_alpha   90.00000000
_cell_angle_beta   90.00000000
_cell_angle_gamma   89.78703308
_symmetry_Int_Tables_number   1
_chemical_formula_structural   LiN
_chemical_formula_sum   'Li10 N10'
_cell_volume   235.93619703
_cell_formula_units_Z   10
loop_
 _symmetry_equiv_pos_site_id
 _symmetry_equiv_pos_as_xyz
  1  'x, y, z'
loop_
 _atom_site_type_symbol
 _atom_site_label
 _atom_site_symmetry_multiplicity
 _atom_site_fract_x
 _atom_site_fract_y
 _atom_site_fract_z
 _atom_site_occupancy
  Li  Li0  1  0.99654800  0.53409702  0.49999999  1
  Li  Li1  1  0.49584800  0.95597604  0.99999998  1
  Li  Li2  1  0.00152600  0.46644702  -0.00000000  1
  Li  Li3  1  0.50129100  0.49149502  0.24692799  1
  Li  Li4  1  0.99945800  0.99700104  0.75454098  1
  Li  Li5  1  0.50129100  0.49149502  0.75307198  1
  Li  Li6  1  0.99945800  0.99700104  0.24545899  1
  Li  Li7  1  0.50423000  0.01340700  0.49999999  1
  N  N8  1  0.43195800  0.50179802  0.49999999  1
  N  N9  1  0.04647001  0.97753704  0.49999999  1
  Li  Li10  1  0.56685600  0.51134602  -0.00000000  1
  Li  Li11  1  0.92841899  0.02851900  0.99999998  1
  N  N12  1  0.71599700  0.78738203  0.26861899  1
  N  N13  1  0.79628600  0.29969001  0.71720998  1
  N  N14  1  0.28960100  0.21426601  0.78974398  1
  N  N15  1  0.21143800  0.71560403  0.21023800  1
  N  N16  1  0.28960100  0.21426601  0.21025600  1
  N  N17  1  0.21143800  0.71560403  0.78976198  1
  N  N18  1  0.71599700  0.78738203  0.73138098  1
  N  N19  1  0.79628600  0.29969001  0.28278999  1
