# generated using pymatgen
data_Cu2AgS5
_symmetry_space_group_name_H-M   'P 1'
_cell_length_a   5.53433180
_cell_length_b   5.53788710
_cell_length_c   6.75591087
_cell_angle_alpha   114.15268707
_cell_angle_beta   114.01109314
_cell_angle_gamma   90.03314972
_symmetry_Int_Tables_number   1
_chemical_formula_structural   Cu2AgS5
_chemical_formula_sum   'Cu2 Ag1 S5'
_cell_volume   169.08060188
_cell_formula_units_Z   1
loop_
 _symmetry_equiv_pos_site_id
 _symmetry_equiv_pos_as_xyz
  1  'x, y, z'
loop_
 _atom_site_type_symbol
 _atom_site_label
 _atom_site_symmetry_multiplicity
 _atom_site_fract_x
 _atom_site_fract_y
 _atom_site_fract_z
 _atom_site_occupancy
  Ag  Ag0  1  0.24520804  0.76336898  0.50748899  1
  Cu  Cu1  1  0.98654409  0.98672897  0.99123301  1
  Cu  Cu2  1  0.76370805  0.24574499  0.50876702  1
  S  S3  1  0.50479005  0.50531698  0.99354799  1
  S  S4  1  0.37070403  0.36118199  0.26071101  1
  S  S5  1  0.88851008  0.89712397  0.25840403  1
  S  S6  1  0.10422203  0.62846998  0.73971998  1
  S  S7  1  0.63631404  0.11206500  0.74012801  1
