# generated using pymatgen
data_ZnCu3S4
_symmetry_space_group_name_H-M   'P 1'
_cell_length_a   5.47599697
_cell_length_b   5.49029541
_cell_length_c   6.57916737
_cell_angle_alpha   65.62988281
_cell_angle_beta   65.40750122
_cell_angle_gamma   90.00000000
_symmetry_Int_Tables_number   1
_chemical_formula_structural   ZnCu3S4
_chemical_formula_sum   'Zn1 Cu3 S4'
_cell_volume   160.27380576
_cell_formula_units_Z   1
loop_
 _symmetry_equiv_pos_site_id
 _symmetry_equiv_pos_as_xyz
  1  'x, y, z'
loop_
 _atom_site_type_symbol
 _atom_site_label
 _atom_site_symmetry_multiplicity
 _atom_site_fract_x
 _atom_site_fract_y
 _atom_site_fract_z
 _atom_site_occupancy
  Zn  Zn0  1  0.26011198  0.74585399  0.49442101  1
  Cu  Cu1  1  0.00453300  0.00414600  0.00557900  1
  Cu  Cu2  1  0.74589799  0.25985200  0.49454902  1
  Cu  Cu3  1  0.49044699  0.49014799  0.00545102  1
  S  S4  1  0.86023198  0.87499999  0.75000003  1
  S  S5  1  0.39071099  0.37500000  0.75000001  1
  S  S6  1  0.12412499  0.60681299  0.24981701  1
  S  S7  1  0.62394199  0.14318700  0.25018302  1
