# generated using pymatgen
data_Li5CuO6
_symmetry_space_group_name_H-M   'P 1'
_cell_length_a   3.84954000
_cell_length_b   6.88085699
_cell_length_c   6.88085699
_cell_angle_alpha   85.51213837
_cell_angle_beta   73.75601196
_cell_angle_gamma   73.75601196
_symmetry_Int_Tables_number   1
_chemical_formula_structural   Li5CuO6
_chemical_formula_sum   'Li5 Cu1 O6'
_cell_volume   167.99951633
_cell_formula_units_Z   1
loop_
 _symmetry_equiv_pos_site_id
 _symmetry_equiv_pos_as_xyz
  1  'x, y, z'
loop_
 _atom_site_type_symbol
 _atom_site_label
 _atom_site_symmetry_multiplicity
 _atom_site_fract_x
 _atom_site_fract_y
 _atom_site_fract_z
 _atom_site_occupancy
  Li  Li0  1  0.86281897  0.63718100  0.63718098  1
  Li  Li1  1  0.49999996  0.63718100  0.36281899  1
  Li  Li2  1  0.49999998  0.36281900  0.63718098  1
  Li  Li3  1  0.13718098  0.36281900  0.36281899  1
  Li  Li4  1  0.16129693  1.00000000  0.67740599  1
  Cu  Cu5  1  0.16129695  0.67740600  0.00000000  1
  O  O6  1  0.83870294  1.00000000  0.32259398  1
  O  O7  1  0.83870299  0.32259400  -0.00000002  1
  O  O8  1  0.32150196  0.67849800  0.67849799  1
  O  O9  1  -0.00000005  0.67849800  0.32150200  1
  O  O10  1  -0.00000002  0.32150200  0.67849799  1
  O  O11  1  0.67849799  0.32150200  0.32150198  1
