# generated using pymatgen
data_Ag4S3Cl
_symmetry_space_group_name_H-M   'P 1'
_cell_length_a   4.45919800
_cell_length_b   6.25225782
_cell_length_c   8.98384094
_cell_angle_alpha   90.00000000
_cell_angle_beta   90.00000000
_cell_angle_gamma   90.00000000
_symmetry_Int_Tables_number   1
_chemical_formula_structural   Ag4S3Cl
_chemical_formula_sum   'Ag4 S3 Cl1'
_cell_volume   250.46998472
_cell_formula_units_Z   1
loop_
 _symmetry_equiv_pos_site_id
 _symmetry_equiv_pos_as_xyz
  1  'x, y, z'
loop_
 _atom_site_type_symbol
 _atom_site_label
 _atom_site_symmetry_multiplicity
 _atom_site_fract_x
 _atom_site_fract_y
 _atom_site_fract_z
 _atom_site_occupancy
  Ag  Ag0  1  0.00000000  0.01854100  0.97580102  1
  Ag  Ag1  1  0.49999998  0.50837501  0.25000001  1
  Ag  Ag2  1  0.00000000  0.01854100  0.52419901  1
  Ag  Ag3  1  0.49999998  0.45993901  0.75000002  1
  S  S4  1  0.49999998  0.74959902  0.98845302  1
  S  S5  1  0.00000000  0.24265401  0.25000001  1
  Cl  Cl6  1  0.49999998  0.74959902  0.51154701  1
  S  S7  1  0.00000000  0.25275301  0.75000002  1
