# generated using pymatgen
data_K2Rb2SrCaAgO11
_symmetry_space_group_name_H-M   'P 1'
_cell_length_a   7.00657606
_cell_length_b   7.93045616
_cell_length_c   7.93045616
_cell_angle_alpha   78.74685669
_cell_angle_beta   63.78433609
_cell_angle_gamma   63.78433609
_symmetry_Int_Tables_number   1
_chemical_formula_structural   K2Rb2SrCaAgO11
_chemical_formula_sum   'Rb2 K2 Sr1 Ca1 Ag1 O11'
_cell_volume   354.66663072
_cell_formula_units_Z   1
loop_
 _symmetry_equiv_pos_site_id
 _symmetry_equiv_pos_as_xyz
  1  'x, y, z'
loop_
 _atom_site_type_symbol
 _atom_site_label
 _atom_site_symmetry_multiplicity
 _atom_site_fract_x
 _atom_site_fract_y
 _atom_site_fract_z
 _atom_site_occupancy
  Sr  Sr0  1  0.49999999  0.00000000  0.00000001  1
  Rb  Rb1  1  0.72723200  0.27571199  0.26982498  1
  K  K2  1  0.27276803  0.72428798  0.73017493  1
  K  K3  1  0.00294401  0.26982499  0.72428696  1
  Ca  Ca4  1  0.99705602  0.73017498  0.27571295  1
  Rb  Rb5  1  0.88465101  0.54613598  0.68456095  1
  Ag  Ag6  1  0.11534902  0.45386398  0.31543896  1
  O  O7  1  0.43078703  0.68456098  0.45386494  1
  O  O8  1  0.56921301  0.31543899  0.54613497  1
  O  O9  1  0.00000000  0.00000000  0.00000000  1
  O  O10  1  0.09892001  0.31725599  0.90206895  1
  O  O11  1  0.90108002  0.68274398  0.09793096  1
  O  O12  1  0.31824503  0.68274398  0.09793095  1
  O  O13  1  0.41617604  0.90206897  0.68274392  1
  O  O14  1  0.68175501  0.31725599  0.90206896  1
  O  O15  1  0.58382400  0.09793100  0.31725599  1
  O  O16  1  0.00098901  0.09793100  0.31725598  1
  O  O17  1  0.99901103  0.90206897  0.68274393  1
