# generated using pymatgen
data_RbNaTlAg(SCl3)2
_symmetry_space_group_name_H-M   'P 1'
_cell_length_a   4.38844585
_cell_length_b   4.38844585
_cell_length_c   14.57332802
_cell_angle_alpha   90.00000000
_cell_angle_beta   90.00000000
_cell_angle_gamma   90.00000000
_symmetry_Int_Tables_number   1
_chemical_formula_structural   RbNaTlAg(SCl3)2
_chemical_formula_sum   'Rb1 Na1 Tl1 Ag1 S2 Cl6'
_cell_volume   280.65981121
_cell_formula_units_Z   1
loop_
 _symmetry_equiv_pos_site_id
 _symmetry_equiv_pos_as_xyz
  1  'x, y, z'
loop_
 _atom_site_type_symbol
 _atom_site_label
 _atom_site_symmetry_multiplicity
 _atom_site_fract_x
 _atom_site_fract_y
 _atom_site_fract_z
 _atom_site_occupancy
  Na  Na0  1  0.50000002  0.50000002  0.89644700  1
  Rb  Rb1  1  0.00000000  0.00000000  0.10792100  1
  Tl  Tl2  1  0.00000000  0.00000000  0.59804400  1
  Ag  Ag3  1  0.50000002  0.50000002  0.40077600  1
  Cl  Cl4  1  0.50000002  0.50000002  0.18618800  1
  Cl  Cl5  1  0.50000002  0.50000002  0.67235800  1
  Cl  Cl6  1  0.00000000  0.00000000  0.32864000  1
  Cl  Cl7  1  0.00000000  0.00000000  0.82023700  1
  S  S8  1  0.50000002  0.00000000  0.00177400  1
  Cl  Cl9  1  0.50000002  0.00000000  0.49292000  1
  S  S10  1  0.00000000  0.50000002  0.00177400  1
  Cl  Cl11  1  0.00000000  0.50000002  0.49292000  1
