# generated using pymatgen
data_LiB2HO6
_symmetry_space_group_name_H-M   'P 1'
_cell_length_a   3.95142722
_cell_length_b   3.98674917
_cell_length_c   8.41153526
_cell_angle_alpha   90.00000000
_cell_angle_beta   90.00000000
_cell_angle_gamma   111.71590424
_symmetry_Int_Tables_number   1
_chemical_formula_structural   LiB2HO6
_chemical_formula_sum   'Li1 B2 H1 O6'
_cell_volume   123.10561499
_cell_formula_units_Z   1
loop_
 _symmetry_equiv_pos_site_id
 _symmetry_equiv_pos_as_xyz
  1  'x, y, z'
loop_
 _atom_site_type_symbol
 _atom_site_label
 _atom_site_symmetry_multiplicity
 _atom_site_fract_x
 _atom_site_fract_y
 _atom_site_fract_z
 _atom_site_occupancy
  Li  Li0  1  0.07996300  0.07718800  0.00017200  1
  B  B1  1  0.07996300  0.07718800  0.49982798  1
  B  B2  1  0.49699003  0.76832600  0.74999998  1
  H  H3  1  0.76759902  0.49054500  0.24999999  1
  O  O4  1  0.99555704  0.84900600  0.24999999  1
  O  O5  1  0.33171303  0.67095800  0.60185198  1
  O  O6  1  0.33171303  0.67095800  0.89814797  1
  O  O7  1  0.67070002  0.32385000  0.39763899  1
  O  O8  1  0.67070002  0.32385000  0.10236100  1
  O  O9  1  0.85810101  0.00013100  0.74999998  1
