# generated using pymatgen
data_AlZn3(PO3)3
_symmetry_space_group_name_H-M   'P 1'
_cell_length_a   5.70294189
_cell_length_b   5.70294189
_cell_length_c   7.51781797
_cell_angle_alpha   105.27832031
_cell_angle_beta   105.27832031
_cell_angle_gamma   104.05274200
_symmetry_Int_Tables_number   1
_chemical_formula_structural   AlZn3(PO3)3
_chemical_formula_sum   'Al1 Zn3 P3 O9'
_cell_volume   214.33682197
_cell_formula_units_Z   1
loop_
 _symmetry_equiv_pos_site_id
 _symmetry_equiv_pos_as_xyz
  1  'x, y, z'
loop_
 _atom_site_type_symbol
 _atom_site_label
 _atom_site_symmetry_multiplicity
 _atom_site_fract_x
 _atom_site_fract_y
 _atom_site_fract_z
 _atom_site_occupancy
  Al  Al0  1  0.32409607  0.67590403  0.25000005  1
  Zn  Zn1  1  0.67590404  0.32409602  0.75000004  1
  Zn  Zn2  1  0.00000000  0.00000000  0.50000000  1
  Zn  Zn3  1  0.00000000  0.00000000  0.00000000  1
  P  P4  1  0.31994007  0.68006003  0.75000005  1
  P  P5  1  0.68006004  0.31994002  0.25000004  1
  O  O6  1  0.93656602  0.06343400  0.75000004  1
  P  P7  1  0.06343410  0.93656605  0.25000006  1
  O  O8  1  0.70258702  0.11902201  0.39356503  1
  O  O9  1  0.88097804  0.29741301  0.10643504  1
  O  O10  1  0.29741309  0.88097804  0.60643506  1
  O  O11  1  0.11902207  0.70258704  0.89356505  1
  O  O12  1  0.24539804  0.35985502  0.59502403  1
  O  O13  1  0.64014509  0.75460204  0.90497607  1
  O  O14  1  0.75460208  0.64014503  0.40497606  1
  O  O15  1  0.35985503  0.24539801  0.09502403  1
