# generated using pymatgen
data_MnSi4O13
_symmetry_space_group_name_H-M   'P 1'
_cell_length_a   4.82156992
_cell_length_b   7.10074472
_cell_length_c   7.38273239
_cell_angle_alpha   73.22268677
_cell_angle_beta   70.94087219
_cell_angle_gamma   70.15287781
_symmetry_Int_Tables_number   1
_chemical_formula_structural   MnSi4O13
_chemical_formula_sum   'Mn1 Si4 O13'
_cell_volume   220.17526891
_cell_formula_units_Z   1
loop_
 _symmetry_equiv_pos_site_id
 _symmetry_equiv_pos_as_xyz
  1  'x, y, z'
loop_
 _atom_site_type_symbol
 _atom_site_label
 _atom_site_symmetry_multiplicity
 _atom_site_fract_x
 _atom_site_fract_y
 _atom_site_fract_z
 _atom_site_occupancy
  Mn  Mn0  1  0.06149094  0.66776803  0.66700102  1
  Si  Si1  1  0.41028593  0.83521704  0.83591002  1
  Si  Si2  1  0.91858699  0.33521702  0.33591000  1
  Si  Si3  1  0.60374000  0.16776801  0.16700100  1
  O  O4  1  0.97675399  0.24993201  0.75158901  1
  Si  Si5  1  0.02172493  0.74993203  0.25158901  1
  O  O6  1  0.76259094  0.79918804  0.78410801  1
  O  O7  1  0.65411298  0.29918801  0.28410800  1
  O  O8  1  0.13408594  0.70069503  0.43971901  1
  O  O9  1  0.25863093  0.80096904  0.05739500  1
  O  O10  1  0.88300499  0.30096901  0.55739501  1
  O  O11  1  0.72549999  0.20069501  0.93971902  1
  O  O12  1  0.10788596  0.42653702  0.76429402  1
  O  O13  1  0.28564400  0.06773500  0.73354302  1
  O  O14  1  0.91307796  0.56773503  0.23354300  1
  O  O15  1  0.70128293  0.92653704  0.26429400  1
  O  O16  1  0.34150394  0.70195703  0.71644202  1
  O  O17  1  0.24009699  0.20195701  0.21644200  1
