# generated using pymatgen
data_KNaSiH2WO6
_symmetry_space_group_name_H-M   'P 1'
_cell_length_a   5.25589037
_cell_length_b   5.25589037
_cell_length_c   7.28888941
_cell_angle_alpha   107.50889587
_cell_angle_beta   107.50889587
_cell_angle_gamma   90.29868317
_symmetry_Int_Tables_number   1
_chemical_formula_structural   KNaSiH2WO6
_chemical_formula_sum   'K1 Na1 Si1 H2 W1 O6'
_cell_volume   182.10900184
_cell_formula_units_Z   1
loop_
 _symmetry_equiv_pos_site_id
 _symmetry_equiv_pos_as_xyz
  1  'x, y, z'
loop_
 _atom_site_type_symbol
 _atom_site_label
 _atom_site_symmetry_multiplicity
 _atom_site_fract_x
 _atom_site_fract_y
 _atom_site_fract_z
 _atom_site_occupancy
  K  K0  1  0.35697802  0.64302200  0.25000005  1
  Na  Na1  1  0.64302201  0.35697800  0.75000005  1
  W  W2  1  0.81780500  0.18219500  0.25000005  1
  Si  Si3  1  0.18219503  0.81780500  0.75000005  1
  H  H4  1  0.81092203  0.93053000  0.10084210  1
  H  H5  1  0.06947001  0.18907800  0.39915801  1
  O  O6  1  0.18907800  0.06947000  0.89915801  1
  O  O7  1  0.93053003  0.81092200  0.60084209  1
  O  O8  1  0.83271801  0.40573700  0.16002106  1
  O  O9  1  0.59426300  0.16728200  0.33997904  1
  O  O10  1  0.16728202  0.59426300  0.83997904  1
  O  O11  1  0.40573703  0.83271800  0.66002107  1
