# generated using pymatgen
data_SrAg3Se3S7
_symmetry_space_group_name_H-M   'P 1'
_cell_length_a   7.30856514
_cell_length_b   7.30856514
_cell_length_c   7.30856514
_cell_angle_alpha   103.28572083
_cell_angle_beta   103.28572083
_cell_angle_gamma   103.28572083
_symmetry_Int_Tables_number   1
_chemical_formula_structural   SrAg3Se3S7
_chemical_formula_sum   'Sr1 Ag3 Se3 S7'
_cell_volume   352.92732410
_cell_formula_units_Z   1
loop_
 _symmetry_equiv_pos_site_id
 _symmetry_equiv_pos_as_xyz
  1  'x, y, z'
loop_
 _atom_site_type_symbol
 _atom_site_label
 _atom_site_symmetry_multiplicity
 _atom_site_fract_x
 _atom_site_fract_y
 _atom_site_fract_z
 _atom_site_occupancy
  Sr  Sr0  1  0.41368001  0.98082800  0.75990006  1
  Ag  Ag1  1  0.75990000  0.41368000  0.98082804  1
  Ag  Ag2  1  0.98082800  0.75990000  0.41368009  1
  Ag  Ag3  1  0.91368000  0.25990000  0.48082805  1
  S  S4  1  0.48082801  0.91368000  0.25990007  1
  Se  Se5  1  0.25990000  0.48082800  0.91368002  1
  Se  Se6  1  0.50305500  0.50305500  0.50305504  1
  Se  Se7  1  0.00305500  0.00305500  0.00305500  1
  S  S8  1  0.75765701  0.77633700  0.09234208  1
  S  S9  1  0.09234201  0.75765700  0.77633703  1
  S  S10  1  0.59234200  0.27633700  0.25765704  1
  S  S11  1  0.25765700  0.59234200  0.27633704  1
  S  S12  1  0.27633700  0.25765700  0.59234202  1
  S  S13  1  0.77633700  0.09234200  0.75765703  1
