# generated using pymatgen
data_BaSr5ZnPbO8
_symmetry_space_group_name_H-M   'P 1'
_cell_length_a   5.55483294
_cell_length_b   5.55483294
_cell_length_c   11.01042843
_cell_angle_alpha   90.00000000
_cell_angle_beta   90.00000000
_cell_angle_gamma   90.00000000
_symmetry_Int_Tables_number   1
_chemical_formula_structural   BaSr5ZnPbO8
_chemical_formula_sum   'Ba1 Sr5 Zn1 Pb1 O8'
_cell_volume   339.73963969
_cell_formula_units_Z   1
loop_
 _symmetry_equiv_pos_site_id
 _symmetry_equiv_pos_as_xyz
  1  'x, y, z'
loop_
 _atom_site_type_symbol
 _atom_site_label
 _atom_site_symmetry_multiplicity
 _atom_site_fract_x
 _atom_site_fract_y
 _atom_site_fract_z
 _atom_site_occupancy
  Zn  Zn0  1  0.50000001  0.50000001  0.49999998  1
  Ba  Ba1  1  0.00000000  0.00000000  0.00000000  1
  Sr  Sr2  1  0.50000001  0.00000000  0.25281499  1
  Sr  Sr3  1  0.00000000  0.50000001  0.74718497  1
  Sr  Sr4  1  0.00000000  0.50000001  0.25281499  1
  Sr  Sr5  1  0.50000001  0.00000000  0.74718497  1
  Sr  Sr6  1  0.50000001  0.50000001  -0.00000000  1
  Pb  Pb7  1  0.00000000  0.00000000  0.49999998  1
  O  O8  1  0.74406101  0.74406101  0.14201299  1
  O  O9  1  0.25633200  0.25633200  0.63224898  1
  O  O10  1  0.25593900  0.25593900  0.14201299  1
  O  O11  1  0.74366801  0.74366801  0.63224898  1
  O  O12  1  0.74366801  0.25633200  0.36775099  1
  O  O13  1  0.25593900  0.74406101  0.85798697  1
  O  O14  1  0.25633200  0.74366801  0.36775099  1
  O  O15  1  0.74406101  0.25593900  0.85798697  1
