# generated using pymatgen
data_Cs3Rb2LiIF9
_symmetry_space_group_name_H-M   'P 1'
_cell_length_a   6.44544792
_cell_length_b   6.72758818
_cell_length_c   12.16312599
_cell_angle_alpha   95.12517548
_cell_angle_beta   98.51234436
_cell_angle_gamma   105.58815002
_symmetry_Int_Tables_number   1
_chemical_formula_structural   Cs3Rb2LiIF9
_chemical_formula_sum   'Cs3 Rb2 Li1 I1 F9'
_cell_volume   497.78957081
_cell_formula_units_Z   1
loop_
 _symmetry_equiv_pos_site_id
 _symmetry_equiv_pos_as_xyz
  1  'x, y, z'
loop_
 _atom_site_type_symbol
 _atom_site_label
 _atom_site_symmetry_multiplicity
 _atom_site_fract_x
 _atom_site_fract_y
 _atom_site_fract_z
 _atom_site_occupancy
  Li  Li0  1  0.27150199  0.25253900  0.02155800  1
  Cs  Cs1  1  0.96280299  0.43137899  0.70957701  1
  Cs  Cs2  1  0.72849797  0.74746099  0.97844201  1
  Cs  Cs3  1  0.70001396  0.75618799  0.52336001  1
  Rb  Rb4  1  0.03719697  0.56862099  0.29042300  1
  Rb  Rb5  1  0.29998599  0.24381200  0.47664000  1
  F  F6  1  0.58273501  0.01144200  0.25059500  1
  I  I7  1  0.41726495  0.98855798  0.74940501  1
  F  F8  1  0.78455795  0.97438698  0.76882401  1
  F  F9  1  0.25995895  0.81060599  0.89030501  1
  F  F10  1  0.58040097  0.65882999  0.23303001  1
  F  F11  1  0.21544200  0.02561300  0.23117600  1
  F  F12  1  0.74004100  0.18939400  0.10969501  1
  F  F13  1  0.22869195  0.81805998  0.56713201  1
  F  F14  1  0.41959899  0.34116999  0.76697000  1
  F  F15  1  0.77130800  0.18194000  0.43286801  1
