# generated using pymatgen
data_Li3B2HNO7
_symmetry_space_group_name_H-M   'P 1'
_cell_length_a   5.33308220
_cell_length_b   5.81015205
_cell_length_c   5.81015205
_cell_angle_alpha   77.84069061
_cell_angle_beta   62.68093872
_cell_angle_gamma   62.68093872
_symmetry_Int_Tables_number   1
_chemical_formula_structural   Li3B2HNO7
_chemical_formula_sum   'Li3 B2 H1 N1 O7'
_cell_volume   142.11290914
_cell_formula_units_Z   1
loop_
 _symmetry_equiv_pos_site_id
 _symmetry_equiv_pos_as_xyz
  1  'x, y, z'
loop_
 _atom_site_type_symbol
 _atom_site_label
 _atom_site_symmetry_multiplicity
 _atom_site_fract_x
 _atom_site_fract_y
 _atom_site_fract_z
 _atom_site_occupancy
  Li  Li0  1  0.77006597  0.00000000  -0.00000001  1
  B  B1  1  0.98220193  0.82693598  0.17306404  1
  B  B2  1  0.98220196  0.17306399  0.82693597  1
  Li  Li3  1  0.80913797  0.17306399  0.17306400  1
  H  H4  1  0.15526596  0.82693598  0.82693603  1
  Li  Li5  1  0.54743198  0.00000000  -0.00000001  1
  N  N6  1  0.95463494  0.66553998  0.33446103  1
  O  O7  1  0.95463595  0.33445999  0.66553999  1
  O  O8  1  0.62017596  0.33445999  0.33446001  1
  O  O9  1  0.28909596  0.66553998  0.66553902  1
  O  O10  1  0.28307596  0.73292298  0.00000005  1
  O  O11  1  0.01599899  0.26707699  0.00000002  1
  O  O12  1  0.28307599  0.00000000  0.73292297  1
  O  O13  1  0.01599900  0.00000000  0.26707699  1
