# generated using pymatgen
data_Li3TeO8
_symmetry_space_group_name_H-M   'P 1'
_cell_length_a   5.21441793
_cell_length_b   5.47985983
_cell_length_c   6.74136019
_cell_angle_alpha   112.26091766
_cell_angle_beta   110.96096802
_cell_angle_gamma   94.09395599
_symmetry_Int_Tables_number   1
_chemical_formula_structural   Li3TeO8
_chemical_formula_sum   'Li3 Te1 O8'
_cell_volume   161.63359102
_cell_formula_units_Z   1
loop_
 _symmetry_equiv_pos_site_id
 _symmetry_equiv_pos_as_xyz
  1  'x, y, z'
loop_
 _atom_site_type_symbol
 _atom_site_label
 _atom_site_symmetry_multiplicity
 _atom_site_fract_x
 _atom_site_fract_y
 _atom_site_fract_z
 _atom_site_occupancy
  Li  Li0  1  0.37084302  0.37084300  0.74168599  1
  Li  Li1  1  0.12845203  0.62845199  0.25690401  1
  Li  Li2  1  0.89298904  0.89298899  0.78597800  1
  Te  Te3  1  0.60531500  0.10531500  0.21063000  1
  O  O4  1  0.76961701  0.21117300  0.93949698  1
  O  O5  1  0.33034701  0.28006100  0.06997601  1
  O  O6  1  0.73962903  0.78991499  0.06997602  1
  O  O7  1  0.16988003  0.72832399  0.93949699  1
  O  O8  1  0.03461504  0.94113399  0.57931201  1
  O  O9  1  0.95038102  0.36692200  0.41361500  1
  O  O10  1  0.46323400  0.04669300  0.41361499  1
  O  O11  1  0.54469703  0.63817799  0.57931200  1
