# generated using pymatgen
data_LiZnSi3NiHO13
_symmetry_space_group_name_H-M   'P 1'
_cell_length_a   5.16880322
_cell_length_b   7.38054943
_cell_length_c   7.38054943
_cell_angle_alpha   70.68627930
_cell_angle_beta   69.49966431
_cell_angle_gamma   69.49966431
_symmetry_Int_Tables_number   1
_chemical_formula_structural   LiZnSi3NiHO13
_chemical_formula_sum   'Li1 Zn1 Si3 Ni1 H1 O13'
_cell_volume   239.97613777
_cell_formula_units_Z   1
loop_
 _symmetry_equiv_pos_site_id
 _symmetry_equiv_pos_as_xyz
  1  'x, y, z'
loop_
 _atom_site_type_symbol
 _atom_site_label
 _atom_site_symmetry_multiplicity
 _atom_site_fract_x
 _atom_site_fract_y
 _atom_site_fract_z
 _atom_site_occupancy
  Zn  Zn0  1  0.15992997  0.63392701  0.04147196  1
  Li  Li1  1  0.83393597  0.36583401  0.96033894  1
  Ni  Ni2  1  0.15993099  0.04147200  0.63392699  1
  Si  Si3  1  0.83393594  0.96033902  0.36583392  1
  Si  Si4  1  0.63786595  0.85368002  0.85367993  1
  Si  Si5  1  0.34534299  0.14621900  0.14621898  1
  H  H6  1  0.36393198  0.40932101  0.58687996  1
  O  O7  1  0.36393197  0.58688001  0.40932095  1
  O  O8  1  0.81513696  0.62587901  0.37365293  1
  O  O9  1  0.81513697  0.37365301  0.62587895  1
  O  O10  1  0.56780896  0.63559301  0.95390694  1
  O  O11  1  0.15839098  0.36447701  0.04516197  1
  O  O12  1  0.56780895  0.95390702  0.63559293  1
  O  O13  1  0.15839099  0.04516200  0.36447699  1
  O  O14  1  0.96327295  0.69831002  0.30256793  1
  O  O15  1  0.96327197  0.30256801  0.69830994  1
  O  O16  1  0.41059695  0.99992902  0.99992893  1
  O  O17  1  0.97258595  0.83270302  0.83270292  1
  O  O18  1  0.63876298  0.16632800  0.16632797  1
  O  O19  1  0.49582797  0.48131901  0.48131895  1
