# generated using pymatgen
data_LiSiH2O7
_symmetry_space_group_name_H-M   'P 1'
_cell_length_a   4.50385046
_cell_length_b   5.22178555
_cell_length_c   5.22178555
_cell_angle_alpha   77.56076050
_cell_angle_beta   81.58761597
_cell_angle_gamma   98.41238403
_symmetry_Int_Tables_number   1
_chemical_formula_structural   LiSiH2O7
_chemical_formula_sum   'Li1 Si1 H2 O7'
_cell_volume   116.60655406
_cell_formula_units_Z   1
loop_
 _symmetry_equiv_pos_site_id
 _symmetry_equiv_pos_as_xyz
  1  'x, y, z'
loop_
 _atom_site_type_symbol
 _atom_site_label
 _atom_site_symmetry_multiplicity
 _atom_site_fract_x
 _atom_site_fract_y
 _atom_site_fract_z
 _atom_site_occupancy
  Li  Li0  1  0.00000005  0.74938501  0.74938502  1
  Si  Si1  1  0.00000001  0.12136600  0.12136600  1
  H  H2  1  0.59037899  0.25278000  0.66848199  1
  H  H3  1  0.40962102  0.66848201  0.25278000  1
  O  O4  1  0.74296698  0.12656700  0.46166498  1
  O  O5  1  0.28469499  0.07105100  0.81628800  1
  O  O6  1  0.80334699  0.34652801  0.84950998  1
  O  O7  1  0.50000001  0.53122901  0.53122900  1
  O  O8  1  0.71530502  0.81628801  0.07105099  1
  O  O9  1  0.25703302  0.46166501  0.12656700  1
  O  O10  1  0.19665304  0.84951001  0.34652801  1
