# generated using pymatgen
data_Li5Mn2O11
_symmetry_space_group_name_H-M   'P 1'
_cell_length_a   4.70249033
_cell_length_b   5.04234314
_cell_length_c   9.10624695
_cell_angle_alpha   90.00000000
_cell_angle_beta   97.38497162
_cell_angle_gamma   90.00000000
_symmetry_Int_Tables_number   1
_chemical_formula_structural   Li5Mn2O11
_chemical_formula_sum   'Li5 Mn2 O11'
_cell_volume   214.13230664
_cell_formula_units_Z   1
loop_
 _symmetry_equiv_pos_site_id
 _symmetry_equiv_pos_as_xyz
  1  'x, y, z'
loop_
 _atom_site_type_symbol
 _atom_site_label
 _atom_site_symmetry_multiplicity
 _atom_site_fract_x
 _atom_site_fract_y
 _atom_site_fract_z
 _atom_site_occupancy
  Li  Li0  1  0.51663999  0.98087297  0.67897205  1
  Li  Li1  1  0.01664000  0.51912699  0.17897201  1
  Li  Li2  1  0.48335999  0.01912700  0.32102803  1
  Li  Li3  1  0.98335999  0.48087299  0.82102807  1
  Li  Li4  1  0.49999999  0.49999999  0.50000004  1
  Mn  Mn5  1  0.00000000  0.00000000  0.00000000  1
  O  O6  1  0.73234699  0.19529599  0.46706105  1
  Mn  Mn7  1  0.23234700  0.30470399  0.96706105  1
  O  O8  1  0.26765300  0.80470398  0.53293903  1
  O  O9  1  0.76765299  0.69529598  0.03293903  1
  O  O10  1  0.80522799  0.20658799  0.13847903  1
  O  O11  1  0.30522800  0.29341199  0.63847904  1
  O  O12  1  0.19477200  0.79341198  0.86152105  1
  O  O13  1  0.69477199  0.70658798  0.36152104  1
  O  O14  1  0.75136499  0.16871100  0.82878206  1
  O  O15  1  0.25136500  0.33128899  0.32878202  1
  O  O16  1  0.24863500  0.83128898  0.17121802  1
  O  O17  1  0.74863499  0.66871098  0.67121806  1
