# generated using pymatgen
data_K2Sr2AgBi(SbS6)2
_symmetry_space_group_name_H-M   'P 1'
_cell_length_a   7.63906193
_cell_length_b   7.63906145
_cell_length_c   12.79439545
_cell_angle_alpha   90.00000000
_cell_angle_beta   90.00000000
_cell_angle_gamma   120.00000000
_symmetry_Int_Tables_number   1
_chemical_formula_structural   K2Sr2AgBi(SbS6)2
_chemical_formula_sum   'K2 Sr2 Ag1 Bi1 Sb2 S12'
_cell_volume   646.59216198
_cell_formula_units_Z   1
loop_
 _symmetry_equiv_pos_site_id
 _symmetry_equiv_pos_as_xyz
  1  'x, y, z'
loop_
 _atom_site_type_symbol
 _atom_site_label
 _atom_site_symmetry_multiplicity
 _atom_site_fract_x
 _atom_site_fract_y
 _atom_site_fract_z
 _atom_site_occupancy
  K  K0  1  0.17484998  0.34969999  0.24999999  1
  Sr  Sr1  1  0.82514997  0.65029997  0.74999997  1
  K  K2  1  0.65029996  0.82514997  0.24999999  1
  Sr  Sr3  1  0.34969999  0.17484999  0.74999997  1
  Bi  Bi4  1  0.17484995  0.82514997  0.24999999  1
  Ag  Ag5  1  0.82515000  0.17484999  0.74999997  1
  Sb  Sb6  1  0.50000000  0.00000000  0.00000000  1
  Sb  Sb7  1  0.99999998  0.49999998  -0.00000000  1
  S  S8  1  0.50000000  0.00000000  0.49999998  1
  S  S9  1  0.49999998  0.49999998  0.99999997  1
  S  S10  1  0.99999998  0.49999998  0.49999998  1
  S  S11  1  0.49999998  0.49999998  0.49999998  1
  S  S12  1  0.00000000  0.00000000  0.00000000  1
  S  S13  1  0.00000000  0.00000000  0.49999998  1
  S  S14  1  0.33333330  0.66666664  0.74999997  1
  S  S15  1  0.66666665  0.33333332  0.24999999  1
  S  S16  1  0.33333330  0.66666664  0.11271100  1
  S  S17  1  0.66666665  0.33333332  0.88728897  1
  S  S18  1  0.66666665  0.33333332  0.61271098  1
  S  S19  1  0.33333330  0.66666664  0.38728899  1
