# generated using pymatgen
data_Ag5Sb(Se3S2)2
_symmetry_space_group_name_H-M   'P 1'
_cell_length_a   7.17152786
_cell_length_b   7.57492018
_cell_length_c   8.62467003
_cell_angle_alpha   90.00000000
_cell_angle_beta   90.00000000
_cell_angle_gamma   90.00000000
_symmetry_Int_Tables_number   1
_chemical_formula_structural   Ag5Sb(Se3S2)2
_chemical_formula_sum   'Ag5 Sb1 Se6 S4'
_cell_volume   468.52442804
_cell_formula_units_Z   1
loop_
 _symmetry_equiv_pos_site_id
 _symmetry_equiv_pos_as_xyz
  1  'x, y, z'
loop_
 _atom_site_type_symbol
 _atom_site_label
 _atom_site_symmetry_multiplicity
 _atom_site_fract_x
 _atom_site_fract_y
 _atom_site_fract_z
 _atom_site_occupancy
  Ag  Ag0  1  0.49168901  0.82559998  0.74718000  1
  Sb  Sb1  1  0.99168902  0.17440000  0.24718000  1
  Ag  Ag2  1  0.99168902  0.17440000  0.75282000  1
  Ag  Ag3  1  0.49168901  0.82559998  0.25282000  1
  Ag  Ag4  1  0.47885301  0.33248199  0.50000000  1
  Ag  Ag5  1  0.97885302  0.66751798  -0.00000000  1
  Se  Se6  1  0.97648902  0.65029998  0.50000000  1
  Se  Se7  1  0.47648901  0.34969999  -0.00000000  1
  S  S8  1  0.35952301  0.65480898  0.50000000  1
  Se  Se9  1  0.85952302  0.34519099  -0.00000000  1
  Se  Se10  1  0.84179502  0.31853599  0.50000000  1
  S  S11  1  0.34179501  0.68146398  -0.00000000  1
  S  S12  1  0.86248202  0.83900398  0.75657600  1
  Se  Se13  1  0.86248202  0.83900398  0.24342400  1
  Se  Se14  1  0.36248201  0.16099600  0.25657600  1
  S  S15  1  0.36248201  0.16099600  0.74342400  1
