# generated using pymatgen
data_Li2Ag3(SeS3)2
_symmetry_space_group_name_H-M   'P 1'
_cell_length_a   7.66262484
_cell_length_b   7.66262484
_cell_length_c   7.66262579
_cell_angle_alpha   60.13647461
_cell_angle_beta   60.13647461
_cell_angle_gamma   60.13647461
_symmetry_Int_Tables_number   1
_chemical_formula_structural   Li2Ag3(SeS3)2
_chemical_formula_sum   'Li2 Ag3 Se2 S6'
_cell_volume   319.12315424
_cell_formula_units_Z   1
loop_
 _symmetry_equiv_pos_site_id
 _symmetry_equiv_pos_as_xyz
  1  'x, y, z'
loop_
 _atom_site_type_symbol
 _atom_site_label
 _atom_site_symmetry_multiplicity
 _atom_site_fract_x
 _atom_site_fract_y
 _atom_site_fract_z
 _atom_site_occupancy
  Li  Li0  1  0.99014000  0.52772000  0.99013992  1
  Li  Li1  1  0.99014000  0.99014001  0.52771992  1
  Ag  Ag2  1  0.52772000  0.99014001  0.99013992  1
  Ag  Ag3  1  0.37229900  0.37229900  0.37229897  1
  Ag  Ag4  1  0.98943100  0.98943101  0.98943091  1
  Se  Se5  1  0.75739300  0.75739300  0.24256195  1
  S  S6  1  0.75739300  0.24256200  0.75739295  1
  Se  Se7  1  0.24256200  0.75739300  0.75739295  1
  S  S8  1  0.75359500  0.75359500  0.75359493  1
  S  S9  1  0.23835900  0.23835900  0.23835898  1
  S  S10  1  0.77920800  0.23837800  0.23837796  1
  S  S11  1  0.23837800  0.77920800  0.23837796  1
  S  S12  1  0.23837800  0.23837800  0.77920796  1
