# generated using pymatgen
data_CsK2AgF6
_symmetry_space_group_name_H-M   'P 1'
_cell_length_a   6.39052153
_cell_length_b   6.39052153
_cell_length_c   6.39052105
_cell_angle_alpha   60.00000000
_cell_angle_beta   59.99999619
_cell_angle_gamma   60.00000381
_symmetry_Int_Tables_number   1
_chemical_formula_structural   CsK2AgF6
_chemical_formula_sum   'Cs1 K2 Ag1 F6'
_cell_volume   184.54142764
_cell_formula_units_Z   1
loop_
 _symmetry_equiv_pos_site_id
 _symmetry_equiv_pos_as_xyz
  1  'x, y, z'
loop_
 _atom_site_type_symbol
 _atom_site_label
 _atom_site_symmetry_multiplicity
 _atom_site_fract_x
 _atom_site_fract_y
 _atom_site_fract_z
 _atom_site_occupancy
  K  K0  1  0.75000003  0.74999997  0.75000001  1
  Cs  Cs1  1  0.25000001  0.24999999  0.25000000  1
  K  K2  1  0.00000000  0.00000000  0.00000000  1
  Ag  Ag3  1  0.50000002  0.49999998  0.50000001  1
  F  F4  1  0.23211902  0.76788097  0.76788101  1
  F  F5  1  0.76788103  0.76788097  0.23211900  1
  F  F6  1  0.76788102  0.23211899  0.23211901  1
  F  F7  1  0.23211902  0.76788097  0.23211900  1
  F  F8  1  0.76788102  0.23211899  0.76788102  1
  F  F9  1  0.23211901  0.23211899  0.76788101  1
