# generated using pymatgen
data_Li2P2NOF4
_symmetry_space_group_name_H-M   'P 1'
_cell_length_a   5.40026808
_cell_length_b   5.52082109
_cell_length_c   5.58380651
_cell_angle_alpha   119.09347534
_cell_angle_beta   90.00000000
_cell_angle_gamma   90.00000000
_symmetry_Int_Tables_number   1
_chemical_formula_structural   Li2P2NOF4
_chemical_formula_sum   'Li2 P2 N1 O1 F4'
_cell_volume   145.47056044
_cell_formula_units_Z   1
loop_
 _symmetry_equiv_pos_site_id
 _symmetry_equiv_pos_as_xyz
  1  'x, y, z'
loop_
 _atom_site_type_symbol
 _atom_site_label
 _atom_site_symmetry_multiplicity
 _atom_site_fract_x
 _atom_site_fract_y
 _atom_site_fract_z
 _atom_site_occupancy
  Li  Li0  1  0.94846999  0.72405398  0.70524496  1
  F  F1  1  0.44846999  0.27594599  0.29475498  1
  P  P2  1  0.78002699  0.50785099  0.43927197  1
  Li  Li3  1  0.28002700  0.49214899  0.56072797  1
  P  P4  1  0.10313600  0.93984498  0.60090596  1
  F  F5  1  0.72100499  0.98124598  0.90434595  1
  F  F6  1  0.60313599  0.06015500  0.39909398  1
  O  O7  1  0.44736099  0.42487899  0.07785399  1
  N  N8  1  0.94736099  0.57512099  0.92214595  1
  F  F9  1  0.22100500  0.01875400  0.09565400  1
