# generated using pymatgen
data_NaAg3SeS3
_symmetry_space_group_name_H-M   'P 1'
_cell_length_a   5.48330116
_cell_length_b   5.70363903
_cell_length_c   5.83103895
_cell_angle_alpha   94.21357727
_cell_angle_beta   90.00000000
_cell_angle_gamma   90.00000000
_symmetry_Int_Tables_number   1
_chemical_formula_structural   NaAg3SeS3
_chemical_formula_sum   'Na1 Ag3 Se1 S3'
_cell_volume   181.87149133
_cell_formula_units_Z   1
loop_
 _symmetry_equiv_pos_site_id
 _symmetry_equiv_pos_as_xyz
  1  'x, y, z'
loop_
 _atom_site_type_symbol
 _atom_site_label
 _atom_site_symmetry_multiplicity
 _atom_site_fract_x
 _atom_site_fract_y
 _atom_site_fract_z
 _atom_site_occupancy
  Na  Na0  1  0.24999999  0.73938399  0.00452098  1
  Ag  Ag1  1  0.74999998  0.26061600  0.99547896  1
  Ag  Ag2  1  0.74999998  0.80273199  0.41293696  1
  Ag  Ag3  1  0.24999999  0.19726800  0.58706297  1
  S  S4  1  0.24999999  0.76886999  0.50190496  1
  Se  Se5  1  0.74999998  0.23113000  0.49809498  1
  S  S6  1  0.74999998  0.75095299  0.00837098  1
  S  S7  1  0.24999999  0.24904700  0.99162896  1
