# generated using pymatgen
data_LiV3O5
_symmetry_space_group_name_H-M   'P 1'
_cell_length_a   3.18054199
_cell_length_b   6.86493778
_cell_length_c   10.76071644
_cell_angle_alpha   108.60134125
_cell_angle_beta   90.00000000
_cell_angle_gamma   90.00000000
_symmetry_Int_Tables_number   1
_chemical_formula_structural   LiV3O5
_chemical_formula_sum   'Li2 V6 O10'
_cell_volume   222.67821650
_cell_formula_units_Z   2
loop_
 _symmetry_equiv_pos_site_id
 _symmetry_equiv_pos_as_xyz
  1  'x, y, z'
loop_
 _atom_site_type_symbol
 _atom_site_label
 _atom_site_symmetry_multiplicity
 _atom_site_fract_x
 _atom_site_fract_y
 _atom_site_fract_z
 _atom_site_occupancy
  Li  Li0  1  0.00000000  0.00000000  0.00000000  1
  Li  Li1  1  0.50000000  0.50000002  0.00000001  1
  V  V2  1  0.00000000  0.34552702  0.69105402  1
  V  V3  1  0.50000000  0.16969101  0.33938201  1
  V  V4  1  0.50000000  0.83030904  0.66061803  1
  V  V5  1  0.00000000  0.65447303  0.30894602  1
  V  V6  1  0.50000000  0.39760702  0.79521402  1
  V  V7  1  0.50000000  0.60239303  0.20478602  1
  O  O8  1  0.00000000  0.70499203  0.00000002  1
  O  O9  1  0.00000000  0.62197403  0.65905102  1
  O  O10  1  0.00000000  0.29500801  0.00000001  1
  O  O11  1  0.50000000  0.27065801  0.54131601  1
  O  O12  1  0.50000000  0.93021404  0.86042804  1
  O  O13  1  0.00000000  0.03707700  0.65905101  1
  O  O14  1  0.00000000  0.96292304  0.34094903  1
  O  O15  1  0.50000000  0.06978600  0.13957200  1
  O  O16  1  0.50000000  0.72934203  0.45868403  1
  O  O17  1  0.00000000  0.37802602  0.34094901  1
