# generated using pymatgen
data_NaLi3
_symmetry_space_group_name_H-M   'P 1'
_cell_length_a   4.09491444
_cell_length_b   4.09491444
_cell_length_c   9.26979828
_cell_angle_alpha   77.23963165
_cell_angle_beta   77.23963165
_cell_angle_gamma   59.99999237
_symmetry_Int_Tables_number   1
_chemical_formula_structural   NaLi3
_chemical_formula_sum   'Na1 Li3'
_cell_volume   130.16236243
_cell_formula_units_Z   1
loop_
 _symmetry_equiv_pos_site_id
 _symmetry_equiv_pos_as_xyz
  1  'x, y, z'
loop_
 _atom_site_type_symbol
 _atom_site_label
 _atom_site_symmetry_multiplicity
 _atom_site_fract_x
 _atom_site_fract_y
 _atom_site_fract_z
 _atom_site_occupancy
  Na  Na0  1  0.10872200  0.10872200  0.67383399  1
  Li  Li1  1  0.00343600  0.00343600  0.98969198  1
  Li  Li2  1  0.62297399  0.62297400  0.13107803  1
  Li  Li3  1  0.82256799  0.82256800  0.53229603  1
