# generated using pymatgen
data_SrLi2NbO7
_symmetry_space_group_name_H-M   'P 1'
_cell_length_a   3.86802793
_cell_length_b   3.86802793
_cell_length_c   12.01295853
_cell_angle_alpha   99.26459503
_cell_angle_beta   99.26459503
_cell_angle_gamma   90.00000000
_symmetry_Int_Tables_number   1
_chemical_formula_structural   SrLi2NbO7
_chemical_formula_sum   'Sr1 Li2 Nb1 O7'
_cell_volume   175.01304629
_cell_formula_units_Z   1
loop_
 _symmetry_equiv_pos_site_id
 _symmetry_equiv_pos_as_xyz
  1  'x, y, z'
loop_
 _atom_site_type_symbol
 _atom_site_label
 _atom_site_symmetry_multiplicity
 _atom_site_fract_x
 _atom_site_fract_y
 _atom_site_fract_z
 _atom_site_occupancy
  Sr  Sr0  1  0.33429601  0.33429601  0.66859202  1
  Li  Li1  1  0.66570401  0.66570401  0.33140801  1
  Nb  Nb2  1  0.07742600  0.07742600  0.15485200  1
  Li  Li3  1  0.92257402  0.92257402  0.84514802  1
  O  O4  1  0.20358400  0.20358400  0.40716801  1
  O  O5  1  0.79641602  0.79641602  0.59283202  1
  O  O6  1  0.40353301  0.90353302  0.80706602  1
  O  O7  1  0.59646701  0.09646700  0.19293401  1
  O  O8  1  0.90353302  0.40353301  0.80706602  1
  O  O9  1  0.09646700  0.59646701  0.19293401  1
  O  O10  1  0.00000000  0.00000000  0.00000000  1
