# generated using pymatgen
data_Li5VO6
_symmetry_space_group_name_H-M   'P 1'
_cell_length_a   5.36559200
_cell_length_b   5.36559200
_cell_length_c   6.80311966
_cell_angle_alpha   113.22531128
_cell_angle_beta   113.22531128
_cell_angle_gamma   90.00000000
_symmetry_Int_Tables_number   1
_chemical_formula_structural   Li5VO6
_chemical_formula_sum   'Li5 V1 O6'
_cell_volume   162.57229445
_cell_formula_units_Z   1
loop_
 _symmetry_equiv_pos_site_id
 _symmetry_equiv_pos_as_xyz
  1  'x, y, z'
loop_
 _atom_site_type_symbol
 _atom_site_label
 _atom_site_symmetry_multiplicity
 _atom_site_fract_x
 _atom_site_fract_y
 _atom_site_fract_z
 _atom_site_occupancy
  Li  Li0  1  0.00000000  0.00000000  0.00000000  1
  Li  Li1  1  0.75000001  0.25000000  0.50000001  1
  Li  Li2  1  0.25000001  0.75000000  0.50000001  1
  Li  Li3  1  0.50000001  0.50000000  0.00000001  1
  O  O4  1  0.24112600  0.35724000  0.15996201  1
  Li  Li5  1  0.55272201  0.49112600  0.65996302  1
  V  V6  1  0.83116301  0.44727700  0.34003601  1
  O  O7  1  0.64275900  0.08116300  0.84003701  1
  O  O8  1  0.19727801  0.75887400  0.84003702  1
  O  O9  1  0.50887401  0.89276000  0.34003802  1
  O  O10  1  0.91883701  0.80272300  0.15996402  1
  O  O11  1  0.10724100  0.16883700  0.65996301  1
