# generated using pymatgen
data_CsK2Hg(BrCl6)2
_symmetry_space_group_name_H-M   'P 1'
_cell_length_a   6.10972118
_cell_length_b   6.10972118
_cell_length_c   14.00481606
_cell_angle_alpha   90.00000000
_cell_angle_beta   90.00000000
_cell_angle_gamma   90.00000000
_symmetry_Int_Tables_number   1
_chemical_formula_structural   CsK2Hg(BrCl6)2
_chemical_formula_sum   'Cs1 K2 Hg1 Br2 Cl12'
_cell_volume   522.78147826
_cell_formula_units_Z   1
loop_
 _symmetry_equiv_pos_site_id
 _symmetry_equiv_pos_as_xyz
  1  'x, y, z'
loop_
 _atom_site_type_symbol
 _atom_site_label
 _atom_site_symmetry_multiplicity
 _atom_site_fract_x
 _atom_site_fract_y
 _atom_site_fract_z
 _atom_site_occupancy
  K  K0  1  0.76463798  0.76463798  -0.00000000  1
  Cs  Cs1  1  0.23536199  0.76463798  0.50000000  1
  K  K2  1  0.76463798  0.23536199  0.50000000  1
  Cl  Cl3  1  0.23536199  0.23536199  -0.00000000  1
  Br  Br4  1  0.49999998  0.49999998  0.75000000  1
  Hg  Hg5  1  0.49999998  0.49999998  0.25000000  1
  Cl  Cl6  1  0.00000000  0.49999998  0.75000000  1
  Br  Br7  1  0.49999998  0.00000000  0.75000000  1
  Cl  Cl8  1  0.00000000  0.49999998  0.25000000  1
  Cl  Cl9  1  0.49999998  0.00000000  0.25000000  1
  Cl  Cl10  1  0.71349598  0.71349598  0.65114600  1
  Cl  Cl11  1  0.28650399  0.28650399  0.65114600  1
  Cl  Cl12  1  0.71349598  0.71349598  0.34885400  1
  Cl  Cl13  1  0.71349598  0.28650399  0.15114600  1
  Cl  Cl14  1  0.28650399  0.71349598  0.84885400  1
  Cl  Cl15  1  0.28650399  0.28650399  0.34885400  1
  Cl  Cl16  1  0.28650399  0.71349598  0.15114600  1
  Cl  Cl17  1  0.71349598  0.28650399  0.84885400  1
