# generated using pymatgen
data_SrSi2CNO6
_symmetry_space_group_name_H-M   'P 1'
_cell_length_a   5.35216999
_cell_length_b   5.35216999
_cell_length_c   6.73868990
_cell_angle_alpha   66.60160065
_cell_angle_beta   66.60160065
_cell_angle_gamma   60.00000000
_symmetry_Int_Tables_number   1
_chemical_formula_structural   SrSi2CNO6
_chemical_formula_sum   'Sr1 Si2 C1 N1 O6'
_cell_volume   148.56068904
_cell_formula_units_Z   1
loop_
 _symmetry_equiv_pos_site_id
 _symmetry_equiv_pos_as_xyz
  1  'x, y, z'
loop_
 _atom_site_type_symbol
 _atom_site_label
 _atom_site_symmetry_multiplicity
 _atom_site_fract_x
 _atom_site_fract_y
 _atom_site_fract_z
 _atom_site_occupancy
  Sr  Sr0  1  0.78958300  0.78958300  0.63125111  1
  Si  Si1  1  0.21041700  0.21041700  0.36874903  1
  Si  Si2  1  0.00000000  0.00000000  0.00000000  1
  N  N3  1  0.59729900  0.59729900  0.20810307  1
  C  C4  1  0.40270100  0.40270100  0.79189707  1
  O  O5  1  0.74624000  0.29732700  0.21019307  1
  O  O6  1  0.25376000  0.25376000  0.78980705  1
  O  O7  1  0.70267300  0.25376000  0.78980708  1
  O  O8  1  0.25376000  0.70267300  0.78980708  1
  O  O9  1  0.74624000  0.74624000  0.21019309  1
  O  O10  1  0.29732700  0.74624000  0.21019307  1
