# generated using pymatgen
data_Rb2SrPb2I2Cl6O5
_symmetry_space_group_name_H-M   'P 1'
_cell_length_a   5.54936123
_cell_length_b   5.54936123
_cell_length_c   16.18872452
_cell_angle_alpha   90.00000000
_cell_angle_beta   90.00000000
_cell_angle_gamma   90.00000000
_symmetry_Int_Tables_number   1
_chemical_formula_structural   Rb2SrPb2I2Cl6O5
_chemical_formula_sum   'Rb2 Sr1 Pb2 I2 Cl6 O5'
_cell_volume   498.53840970
_cell_formula_units_Z   1
loop_
 _symmetry_equiv_pos_site_id
 _symmetry_equiv_pos_as_xyz
  1  'x, y, z'
loop_
 _atom_site_type_symbol
 _atom_site_label
 _atom_site_symmetry_multiplicity
 _atom_site_fract_x
 _atom_site_fract_y
 _atom_site_fract_z
 _atom_site_occupancy
  Rb  Rb0  1  0.00000000  0.00000000  0.13659800  1
  Sr  Sr1  1  0.49999998  0.49999998  0.63659802  1
  Rb  Rb2  1  0.49999998  0.49999998  0.36340201  1
  Cl  Cl3  1  0.00000000  0.00000000  0.86340203  1
  Pb  Pb4  1  0.00000000  0.00000000  0.50000001  1
  Cl  Cl5  1  0.49999998  0.49999998  -0.00000000  1
  Pb  Pb6  1  0.31150499  0.49999998  0.16752200  1
  Cl  Cl7  1  0.68849497  0.49999998  0.16752200  1
  I  I8  1  0.00000000  0.81150497  0.66752202  1
  I  I9  1  0.00000000  0.18849499  0.66752202  1
  Cl  Cl10  1  0.18849499  0.00000000  0.33247801  1
  Cl  Cl11  1  0.81150497  0.00000000  0.33247801  1
  O  O12  1  0.49999998  0.68849497  0.83247802  1
  O  O13  1  0.49999998  0.31150499  0.83247802  1
  Cl  Cl14  1  0.00000000  0.49999998  0.97367103  1
  O  O15  1  0.00000000  0.49999998  0.47367101  1
  O  O16  1  0.49999998  0.00000000  0.52632902  1
  O  O17  1  0.49999998  0.00000000  0.02632900  1
