# generated using pymatgen
data_Ag3GeS6
_symmetry_space_group_name_H-M   'P 1'
_cell_length_a   4.13691711
_cell_length_b   4.13691711
_cell_length_c   14.80047512
_cell_angle_alpha   98.03373718
_cell_angle_beta   98.03373718
_cell_angle_gamma   90.00000000
_symmetry_Int_Tables_number   1
_chemical_formula_structural   Ag3GeS6
_chemical_formula_sum   'Ag3 Ge1 S6'
_cell_volume   248.29994563
_cell_formula_units_Z   1
loop_
 _symmetry_equiv_pos_site_id
 _symmetry_equiv_pos_as_xyz
  1  'x, y, z'
loop_
 _atom_site_type_symbol
 _atom_site_label
 _atom_site_symmetry_multiplicity
 _atom_site_fract_x
 _atom_site_fract_y
 _atom_site_fract_z
 _atom_site_occupancy
  Ge  Ge0  1  0.00605500  0.00605500  0.01211000  1
  Ag  Ag1  1  0.39394497  0.39394498  0.78789001  1
  Ag  Ag2  1  0.79694295  0.79694296  0.59388700  1
  Ag  Ag3  1  0.19999999  0.19999999  0.40000001  1
  S  S4  1  0.60305696  0.60305697  0.20611299  1
  S  S5  1  0.94999994  0.44999997  0.90000001  1
  S  S6  1  0.34543597  0.84543595  0.69087201  1
  S  S7  1  0.74871096  0.24871099  0.49742200  1
  S  S8  1  0.15128898  0.65128896  0.30257800  1
  S  S9  1  0.55456397  0.05456400  0.10912800  1
