# generated using pymatgen
data_ZnCu2SeS3
_symmetry_space_group_name_H-M   'P 1'
_cell_length_a   5.71619987
_cell_length_b   5.71619987
_cell_length_c   6.81400537
_cell_angle_alpha   114.79954529
_cell_angle_beta   114.79954529
_cell_angle_gamma   90.00000000
_symmetry_Int_Tables_number   1
_chemical_formula_structural   ZnCu2SeS3
_chemical_formula_sum   'Zn1 Cu2 Se1 S3'
_cell_volume   179.24580989
_cell_formula_units_Z   1
loop_
 _symmetry_equiv_pos_site_id
 _symmetry_equiv_pos_as_xyz
  1  'x, y, z'
loop_
 _atom_site_type_symbol
 _atom_site_label
 _atom_site_symmetry_multiplicity
 _atom_site_fract_x
 _atom_site_fract_y
 _atom_site_fract_z
 _atom_site_occupancy
  Zn  Zn0  1  0.00000000  0.00000000  0.00000000  1
  Cu  Cu1  1  0.49999998  0.50000000  -0.00000005  1
  Cu  Cu2  1  0.24999996  0.74999999  0.49999996  1
  Se  Se3  1  0.40039298  0.38100100  0.26788997  1
  S  S4  1  0.11311097  0.59960699  0.73211098  1
  S  S5  1  0.61899899  0.13250300  0.73210999  1
  S  S6  1  0.86749596  0.88688799  0.26788892  1
