# generated using pymatgen
data_KBaAlBH6
_symmetry_space_group_name_H-M   'P 1'
_cell_length_a   5.82522392
_cell_length_b   5.82522440
_cell_length_c   5.82522440
_cell_angle_alpha   60.00000381
_cell_angle_beta   60.00000763
_cell_angle_gamma   60.00000000
_symmetry_Int_Tables_number   1
_chemical_formula_structural   KBaAlBH6
_chemical_formula_sum   'K1 Ba1 Al1 B1 H6'
_cell_volume   139.77290257
_cell_formula_units_Z   1
loop_
 _symmetry_equiv_pos_site_id
 _symmetry_equiv_pos_as_xyz
  1  'x, y, z'
loop_
 _atom_site_type_symbol
 _atom_site_label
 _atom_site_symmetry_multiplicity
 _atom_site_fract_x
 _atom_site_fract_y
 _atom_site_fract_z
 _atom_site_occupancy
  K  K0  1  0.75000002  0.75000002  0.75000002  1
  Ba  Ba1  1  0.25000001  0.25000001  0.25000001  1
  Al  Al2  1  0.50000001  0.50000002  0.50000002  1
  B  B3  1  0.00000000  0.00000000  0.00000000  1
  H  H4  1  0.23002300  0.76997702  0.76997703  1
  H  H5  1  0.76997702  0.76997702  0.23002301  1
  H  H6  1  0.76997702  0.23002301  0.23002300  1
  H  H7  1  0.23002300  0.76997702  0.23002302  1
  H  H8  1  0.76997702  0.23002301  0.76997701  1
  H  H9  1  0.23002300  0.23002301  0.76997702  1
