# generated using pymatgen
data_AlH7O4
_symmetry_space_group_name_H-M   'P 1'
_cell_length_a   4.81221914
_cell_length_b   5.74034786
_cell_length_c   6.71011782
_cell_angle_alpha   115.32411194
_cell_angle_beta   107.13065338
_cell_angle_gamma   90.00000000
_symmetry_Int_Tables_number   1
_chemical_formula_structural   AlH7O4
_chemical_formula_sum   'Al1 H7 O4'
_cell_volume   158.40111880
_cell_formula_units_Z   1
loop_
 _symmetry_equiv_pos_site_id
 _symmetry_equiv_pos_as_xyz
  1  'x, y, z'
loop_
 _atom_site_type_symbol
 _atom_site_label
 _atom_site_symmetry_multiplicity
 _atom_site_fract_x
 _atom_site_fract_y
 _atom_site_fract_z
 _atom_site_occupancy
  H  H0  1  0.99987507  0.99962805  0.99925605  1
  Al  Al1  1  0.37050902  0.32309802  0.64619601  1
  H  H2  1  0.76667703  0.37029302  0.47058203  1
  H  H3  1  0.76667702  0.10028900  0.47058202  1
  H  H4  1  0.44432603  0.54161903  0.08323804  1
  H  H5  1  0.78061604  0.54203403  0.08406805  1
  H  H6  1  0.27404304  0.74084504  0.48169003  1
  H  H7  1  0.57054803  0.49083902  0.98167801  1
  O  O8  1  0.12855003  0.56152903  0.55271601  1
  O  O9  1  0.12855005  0.99118705  0.55271603  1
  O  O10  1  0.63073902  0.22423501  0.44847002  1
  O  O11  1  0.16258803  0.60538503  0.21077003  1
