# generated using pymatgen
data_KLi2CuTeSe3S2
_symmetry_space_group_name_H-M   'P 1'
_cell_length_a   7.31824732
_cell_length_b   7.35948181
_cell_length_c   7.46779108
_cell_angle_alpha   60.47862244
_cell_angle_beta   80.99041748
_cell_angle_gamma   71.46955109
_symmetry_Int_Tables_number   1
_chemical_formula_structural   KLi2CuTeSe3S2
_chemical_formula_sum   'K1 Li2 Cu1 Te1 Se3 S2'
_cell_volume   331.84159964
_cell_formula_units_Z   1
loop_
 _symmetry_equiv_pos_site_id
 _symmetry_equiv_pos_as_xyz
  1  'x, y, z'
loop_
 _atom_site_type_symbol
 _atom_site_label
 _atom_site_symmetry_multiplicity
 _atom_site_fract_x
 _atom_site_fract_y
 _atom_site_fract_z
 _atom_site_occupancy
  Cu  Cu0  1  0.12185202  0.47535501  0.16708899  1
  Li  Li1  1  0.12272303  0.78318102  0.49758999  1
  Li  Li2  1  0.62185203  0.64244401  0.83291098  1
  K  K3  1  0.62272301  0.28077101  0.50240999  1
  Te  Te4  1  0.98409304  0.84822902  0.16363398  1
  Se  Se5  1  0.00898802  0.47083201  0.84136399  1
  Se  Se6  1  0.50898801  0.31219601  0.15863599  1
  Se  Se7  1  0.01234501  0.16240200  0.51698799  1
  S  S8  1  0.48409300  0.01186300  0.83636599  1
  S  S9  1  0.51234503  0.67939001  0.48301198  1
