# generated using pymatgen
data_Li4AlB4O9
_symmetry_space_group_name_H-M   'P 1'
_cell_length_a   3.31594706
_cell_length_b   8.43390560
_cell_length_c   8.43390656
_cell_angle_alpha   120.00000000
_cell_angle_beta   90.00000000
_cell_angle_gamma   90.00000000
_symmetry_Int_Tables_number   1
_chemical_formula_structural   Li4AlB4O9
_chemical_formula_sum   'Li4 Al1 B4 O9'
_cell_volume   204.26583801
_cell_formula_units_Z   1
loop_
 _symmetry_equiv_pos_site_id
 _symmetry_equiv_pos_as_xyz
  1  'x, y, z'
loop_
 _atom_site_type_symbol
 _atom_site_label
 _atom_site_symmetry_multiplicity
 _atom_site_fract_x
 _atom_site_fract_y
 _atom_site_fract_z
 _atom_site_occupancy
  Li  Li0  1  0.49999999  0.70902504  0.71709397  1
  Li  Li1  1  0.49999999  0.28290601  0.99193095  1
  Li  Li2  1  0.49999999  0.00806900  0.29097499  1
  Al  Al3  1  0.00000000  0.36940102  0.36449299  1
  Li  Li4  1  0.99999998  0.99509205  0.63059898  1
  B  B5  1  0.00000000  0.63550703  0.00490801  1
  B  B6  1  0.00000000  0.00000000  0.00000000  1
  B  B7  1  0.49999999  0.33333335  0.66666664  1
  B  B8  1  0.49999999  0.66666670  0.33333332  1
  O  O9  1  0.00000000  0.81225704  0.87544796  1
  O  O10  1  0.00000000  0.06319100  0.18774399  1
  O  O11  1  0.00000000  0.12455301  0.93680995  1
  O  O12  1  0.49999999  0.75040504  0.22677200  1
  O  O13  1  0.49999999  0.77322804  0.52363298  1
  O  O14  1  0.49999999  0.47636702  0.24959499  1
  O  O15  1  0.49999999  0.41798602  0.85664696  1
  O  O16  1  0.49999999  0.14335301  0.56133897  1
  O  O17  1  0.49999999  0.43866102  0.58201398  1
