# generated using pymatgen
data_Li8S3O7
_symmetry_space_group_name_H-M   'P 1'
_cell_length_a   3.56303000
_cell_length_b   6.10099602
_cell_length_c   14.10225105
_cell_angle_alpha   90.00000000
_cell_angle_beta   90.00000000
_cell_angle_gamma   106.97796631
_symmetry_Int_Tables_number   1
_chemical_formula_structural   Li8S3O7
_chemical_formula_sum   'Li8 S3 O7'
_cell_volume   293.19462500
_cell_formula_units_Z   1
loop_
 _symmetry_equiv_pos_site_id
 _symmetry_equiv_pos_as_xyz
  1  'x, y, z'
loop_
 _atom_site_type_symbol
 _atom_site_label
 _atom_site_symmetry_multiplicity
 _atom_site_fract_x
 _atom_site_fract_y
 _atom_site_fract_z
 _atom_site_occupancy
  Li  Li0  1  0.03305900  0.06611800  0.26443500  1
  Li  Li1  1  0.96694094  0.93388199  0.76443500  1
  Li  Li2  1  0.78662996  0.57326100  0.11059900  1
  Li  Li3  1  0.21336997  0.42673900  0.61059900  1
  Li  Li4  1  0.51087900  0.02175800  0.99920700  1
  Li  Li5  1  0.48912094  0.97824199  0.49920700  1
  Li  Li6  1  0.23578697  0.47157500  0.89098000  1
  Li  Li7  1  0.76421297  0.52842500  0.39098000  1
  O  O8  1  0.12070498  0.24140900  0.44353600  1
  S  S9  1  0.83993996  0.67988000  0.53284800  1
  S  S10  1  0.16005998  0.32012000  0.03284800  1
  S  S11  1  0.87929495  0.75859099  0.94353600  1
  O  O12  1  0.68192198  0.36384500  0.25795700  1
  O  O13  1  0.31807796  0.63615500  0.75795700  1
  O  O14  1  0.40666395  0.81332799  0.36066500  1
  O  O15  1  0.56034999  0.12070000  0.63977200  1
  O  O16  1  0.43964994  0.87929999  0.13977200  1
  O  O17  1  0.59333599  0.18667200  0.86066500  1
