# generated using pymatgen
data_AgS
_symmetry_space_group_name_H-M   'P 1'
_cell_length_a   6.59704065
_cell_length_b   6.59704065
_cell_length_c   6.59704065
_cell_angle_alpha   105.25583649
_cell_angle_beta   105.25583649
_cell_angle_gamma   118.27740479
_symmetry_Int_Tables_number   1
_chemical_formula_structural   AgS
_chemical_formula_sum   'Ag4 S4'
_cell_volume   217.04682839
_cell_formula_units_Z   4
loop_
 _symmetry_equiv_pos_site_id
 _symmetry_equiv_pos_as_xyz
  1  'x, y, z'
loop_
 _atom_site_type_symbol
 _atom_site_label
 _atom_site_symmetry_multiplicity
 _atom_site_fract_x
 _atom_site_fract_y
 _atom_site_fract_z
 _atom_site_occupancy
  Ag  Ag0  1  0.24999998  0.24999999  -0.00000002  1
  Ag  Ag1  1  0.74999995  0.74999998  -0.00000005  1
  Ag  Ag2  1  0.74999999  0.24999999  0.49999998  1
  Ag  Ag3  1  0.24999995  0.74999998  0.49999996  1
  S  S4  1  0.33519299  0.16480799  0.49999999  1
  S  S5  1  0.66480694  0.83519197  0.49999995  1
  S  S6  1  0.16480695  0.66480698  0.82961398  1
  S  S7  1  0.83519298  0.33519299  0.17038597  1
