# generated using pymatgen
data_NaSr5BiPbO12
_symmetry_space_group_name_H-M   'P 1'
_cell_length_a   5.93334913
_cell_length_b   7.52775049
_cell_length_c   8.27644730
_cell_angle_alpha   90.00000000
_cell_angle_beta   90.00000000
_cell_angle_gamma   112.47187042
_symmetry_Int_Tables_number   1
_chemical_formula_structural   NaSr5BiPbO12
_chemical_formula_sum   'Na1 Sr5 Bi1 Pb1 O12'
_cell_volume   341.59592121
_cell_formula_units_Z   1
loop_
 _symmetry_equiv_pos_site_id
 _symmetry_equiv_pos_as_xyz
  1  'x, y, z'
loop_
 _atom_site_type_symbol
 _atom_site_label
 _atom_site_symmetry_multiplicity
 _atom_site_fract_x
 _atom_site_fract_y
 _atom_site_fract_z
 _atom_site_occupancy
  Sr  Sr0  1  0.96032393  0.72302399  0.45869898  1
  Sr  Sr1  1  0.03967594  0.77697599  0.95869897  1
  Sr  Sr2  1  0.03967598  0.27697600  0.54130098  1
  Na  Na3  1  0.96032396  0.22302400  0.04130100  1
  Sr  Sr4  1  0.47590398  0.13427400  0.31675899  1
  Sr  Sr5  1  0.52409596  0.36572600  0.81675897  1
  Bi  Bi6  1  0.52409592  0.86572599  0.68324098  1
  Pb  Pb7  1  0.47590394  0.63427399  0.18324099  1
  O  O8  1  0.73076491  0.98810899  0.46689498  1
  O  O9  1  0.26923496  0.51189099  0.96689497  1
  O  O10  1  0.26923499  0.01189100  0.53310498  1
  O  O11  1  0.73076495  0.48810899  0.03310500  1
  O  O12  1  0.76343696  0.37671700  0.45013798  1
  O  O13  1  0.23656299  0.12328300  0.95013797  1
  O  O14  1  0.23656295  0.62328299  0.54986198  1
  O  O15  1  0.76343692  0.87671699  0.04986200  1
  O  O16  1  0.22232197  0.29432200  0.29820299  1
  O  O17  1  0.77767797  0.20567800  0.79820297  1
  O  O18  1  0.77767793  0.70567799  0.70179697  1
  O  O19  1  0.22232194  0.79432199  0.20179699  1
