# generated using pymatgen
data_K2SrLi3Ag2Se4S7N
_symmetry_space_group_name_H-M   'P 1'
_cell_length_a   7.17555523
_cell_length_b   7.27930117
_cell_length_c   8.63732910
_cell_angle_alpha   90.00000000
_cell_angle_beta   81.38011169
_cell_angle_gamma   90.00000000
_symmetry_Int_Tables_number   1
_chemical_formula_structural   K2SrLi3Ag2Se4S7N
_chemical_formula_sum   'K2 Sr1 Li3 Ag2 Se4 S7 N1'
_cell_volume   446.05780241
_cell_formula_units_Z   1
loop_
 _symmetry_equiv_pos_site_id
 _symmetry_equiv_pos_as_xyz
  1  'x, y, z'
loop_
 _atom_site_type_symbol
 _atom_site_label
 _atom_site_symmetry_multiplicity
 _atom_site_fract_x
 _atom_site_fract_y
 _atom_site_fract_z
 _atom_site_occupancy
  Sr  Sr0  1  0.75276798  0.55591099  0.86394993  1
  K  K1  1  0.25276799  0.94408898  0.86394995  1
  Li  Li2  1  0.68547498  0.13931500  0.57931695  1
  Li  Li3  1  0.18547499  0.36068499  0.57931696  1
  Li  Li4  1  0.81452498  0.63931499  0.42068296  1
  K  K5  1  0.31452499  0.86068498  0.42068297  1
  Ag  Ag6  1  0.74723198  0.05591100  0.13604997  1
  Ag  Ag7  1  0.24723199  0.44408899  0.13604999  1
  S  S8  1  0.52811499  0.22488599  0.92148094  1
  S  S9  1  0.02811500  0.27511399  0.92148095  1
  S  S10  1  0.93217597  0.85974398  0.67871394  1
  S  S11  1  0.43217599  0.64025599  0.67871395  1
  Se  Se12  1  0.56782398  0.35974399  0.32128597  1
  Se  Se13  1  0.06782400  0.14025600  0.32128598  1
  S  S14  1  0.97188497  0.72488598  0.07851897  1
  S  S15  1  0.47188499  0.77511398  0.07851898  1
  N  N16  1  0.85171398  0.41499699  0.61800294  1
  Se  Se17  1  0.35171399  0.08500300  0.61800296  1
  Se  Se18  1  0.64828598  0.91499698  0.38199696  1
  S  S19  1  0.14828600  0.58500299  0.38199698  1
