# generated using pymatgen
data_Li2O2
_symmetry_space_group_name_H-M   'P 1'
_cell_length_a   3.61944389
_cell_length_b   5.06213856
_cell_length_c   9.77663708
_cell_angle_alpha   90.00000000
_cell_angle_beta   90.00000000
_cell_angle_gamma   110.94683075
_symmetry_Int_Tables_number   1
_chemical_formula_structural   Li2O2
_chemical_formula_sum   'Li8 O8'
_cell_volume   167.29062257
_cell_formula_units_Z   4
loop_
 _symmetry_equiv_pos_site_id
 _symmetry_equiv_pos_as_xyz
  1  'x, y, z'
loop_
 _atom_site_type_symbol
 _atom_site_label
 _atom_site_symmetry_multiplicity
 _atom_site_fract_x
 _atom_site_fract_y
 _atom_site_fract_z
 _atom_site_occupancy
  Li  Li0  1  0.18274500  0.36549001  0.25000000  1
  Li  Li1  1  0.81725501  0.63451001  0.74999999  1
  Li  Li2  1  0.14076400  0.28152801  0.55563200  1
  Li  Li3  1  0.85923701  0.71847302  0.44436800  1
  Li  Li4  1  0.14076400  0.28152801  0.94436799  1
  Li  Li5  1  0.85923701  0.71847302  0.05563200  1
  Li  Li6  1  0.31191900  0.62383801  0.43348400  1
  Li  Li7  1  0.68808101  0.37616201  0.56651600  1
  O  O8  1  0.68808101  0.37616201  0.93348399  1
  O  O9  1  0.31191900  0.62383801  0.06651600  1
  O  O10  1  0.04398500  0.08797000  0.38301300  1
  O  O11  1  0.95601501  0.91203002  0.61698700  1
  O  O12  1  0.76344501  0.52689001  0.25000000  1
  O  O13  1  0.23655500  0.47311001  0.74999999  1
  O  O14  1  0.04398500  0.08797000  0.11698700  1
  O  O15  1  0.95601501  0.91203002  0.88301299  1
