# generated using pymatgen
data_SrAg2SeS6
_symmetry_space_group_name_H-M   'P 1'
_cell_length_a   4.18680716
_cell_length_b   4.18680763
_cell_length_c   13.54744339
_cell_angle_alpha   89.99584961
_cell_angle_beta   89.99584961
_cell_angle_gamma   60.00307846
_symmetry_Int_Tables_number   1
_chemical_formula_structural   SrAg2SeS6
_chemical_formula_sum   'Sr1 Ag2 Se1 S6'
_cell_volume   205.66832509
_cell_formula_units_Z   1
loop_
 _symmetry_equiv_pos_site_id
 _symmetry_equiv_pos_as_xyz
  1  'x, y, z'
loop_
 _atom_site_type_symbol
 _atom_site_label
 _atom_site_symmetry_multiplicity
 _atom_site_fract_x
 _atom_site_fract_y
 _atom_site_fract_z
 _atom_site_occupancy
  Sr  Sr0  1  0.00001000  0.00001100  0.00234700  1
  Ag  Ag1  1  0.00001000  0.00001100  0.50234699  1
  Se  Se2  1  0.33333333  0.33333331  0.68430498  1
  Ag  Ag3  1  0.33333333  0.33333331  0.18430500  1
  S  S4  1  0.66666667  0.66666662  0.81609798  1
  S  S5  1  0.66666667  0.66666662  0.31609800  1
  S  S6  1  0.33333333  0.33329264  0.88245198  1
  S  S7  1  0.33333333  0.33329264  0.38245199  1
  S  S8  1  0.66666667  0.66666662  0.61479799  1
  S  S9  1  0.66666667  0.66666662  0.11479800  1
