# generated using pymatgen
data_RbBa2SrGaH2PbO6
_symmetry_space_group_name_H-M   'P 1'
_cell_length_a   5.96258116
_cell_length_b   5.96258116
_cell_length_c   8.41797543
_cell_angle_alpha   90.00000000
_cell_angle_beta   90.00000000
_cell_angle_gamma   90.00000000
_symmetry_Int_Tables_number   1
_chemical_formula_structural   RbBa2SrGaH2PbO6
_chemical_formula_sum   'Rb1 Ba2 Sr1 Ga1 H2 Pb1 O6'
_cell_volume   299.27901118
_cell_formula_units_Z   1
loop_
 _symmetry_equiv_pos_site_id
 _symmetry_equiv_pos_as_xyz
  1  'x, y, z'
loop_
 _atom_site_type_symbol
 _atom_site_label
 _atom_site_symmetry_multiplicity
 _atom_site_fract_x
 _atom_site_fract_y
 _atom_site_fract_z
 _atom_site_occupancy
  Rb  Rb0  1  0.00000000  0.49999999  0.24999999  1
  Ba  Ba1  1  0.49999999  0.00000000  0.74999996  1
  Ba  Ba2  1  0.00000000  0.49999999  0.74999996  1
  Sr  Sr3  1  0.49999999  0.00000000  0.24999999  1
  Pb  Pb4  1  0.49999999  0.49999999  0.30243098  1
  Ga  Ga5  1  0.00000000  0.00000000  0.80243096  1
  H  H6  1  0.49999999  0.49999999  0.69756896  1
  O  O7  1  0.00000000  0.00000000  0.19756899  1
  O  O8  1  0.30271299  0.69728698  0.49999997  1
  H  H9  1  0.69728698  0.30271299  0.49999997  1
  O  O10  1  0.19728699  0.19728699  -0.00000000  1
  O  O11  1  0.80271298  0.80271298  -0.00000000  1
  O  O12  1  0.49999999  0.49999999  0.49999997  1
  O  O13  1  0.00000000  0.00000000  0.00000000  1
