# generated using pymatgen
data_KRbBaSrPbClO14
_symmetry_space_group_name_H-M   'P 1'
_cell_length_a   6.40877819
_cell_length_b   6.40877819
_cell_length_c   9.24059200
_cell_angle_alpha   90.00000000
_cell_angle_beta   90.00000000
_cell_angle_gamma   90.00000000
_symmetry_Int_Tables_number   1
_chemical_formula_structural   KRbBaSrPbClO14
_chemical_formula_sum   'Rb1 K1 Ba1 Sr1 Pb1 Cl1 O14'
_cell_volume   379.53364116
_cell_formula_units_Z   1
loop_
 _symmetry_equiv_pos_site_id
 _symmetry_equiv_pos_as_xyz
  1  'x, y, z'
loop_
 _atom_site_type_symbol
 _atom_site_label
 _atom_site_symmetry_multiplicity
 _atom_site_fract_x
 _atom_site_fract_y
 _atom_site_fract_z
 _atom_site_occupancy
  Rb  Rb0  1  0.49999999  0.49999999  0.99256200  1
  K  K1  1  0.00000000  0.00000000  0.49256200  1
  Ba  Ba2  1  0.00000000  0.49999999  0.23874200  1
  Sr  Sr3  1  0.49999999  0.00000000  0.23874200  1
  O  O4  1  0.49999999  0.00000000  0.73874200  1
  Cl  Cl5  1  0.00000000  0.49999999  0.73874200  1
  Pb  Pb6  1  0.00000000  0.00000000  0.97973200  1
  O  O7  1  0.49999999  0.49999999  0.47973200  1
  O  O8  1  0.69790698  0.69790698  0.52180100  1
  O  O9  1  0.00000000  0.00000000  0.78693100  1
  O  O10  1  0.19790699  0.80209298  0.02180100  1
  O  O11  1  0.49999999  0.49999999  0.28693100  1
  O  O12  1  0.80209298  0.19790699  0.02180100  1
  O  O13  1  0.30209299  0.30209299  0.52180100  1
  O  O14  1  0.00000000  0.00000000  0.22090900  1
  O  O15  1  0.22435499  0.22435499  0.99879900  1
  O  O16  1  0.27564499  0.72435498  0.49879900  1
  O  O17  1  0.49999999  0.49999999  0.72090900  1
  O  O18  1  0.72435498  0.27564499  0.49879900  1
  O  O19  1  0.77564498  0.77564498  0.99879900  1
