# generated using pymatgen
data_K3BaCu3SbS10
_symmetry_space_group_name_H-M   'P 1'
_cell_length_a   8.55994797
_cell_length_b   9.23675156
_cell_length_c   8.55994797
_cell_angle_alpha   62.39563370
_cell_angle_beta   90.00000000
_cell_angle_gamma   117.60436249
_symmetry_Int_Tables_number   1
_chemical_formula_structural   K3BaCu3SbS10
_chemical_formula_sum   'K3 Ba1 Cu3 Sb1 S10'
_cell_volume   511.23785591
_cell_formula_units_Z   1
loop_
 _symmetry_equiv_pos_site_id
 _symmetry_equiv_pos_as_xyz
  1  'x, y, z'
loop_
 _atom_site_type_symbol
 _atom_site_label
 _atom_site_symmetry_multiplicity
 _atom_site_fract_x
 _atom_site_fract_y
 _atom_site_fract_z
 _atom_site_occupancy
  K  K0  1  0.66338994  0.99999896  0.16339100  1
  K  K1  1  0.16339000  0.00000000  0.33661000  1
  K  K2  1  0.83661000  0.00000000  0.66339000  1
  Ba  Ba3  1  0.33661000  0.00000100  0.83660900  1
  Sb  Sb4  1  0.24999997  0.49999998  0.75000000  1
  Cu  Cu5  1  0.74999997  0.49999998  0.25000000  1
  Cu  Cu6  1  0.74999997  0.49999998  0.75000000  1
  Cu  Cu7  1  0.24999997  0.49999998  0.25000000  1
  S  S8  1  0.00448198  0.30458999  0.19989200  1
  S  S9  1  0.69989196  0.69540997  0.50448200  1
  S  S10  1  0.99551796  0.69540997  0.80010801  1
  S  S11  1  0.49551796  0.69540997  0.00448200  1
  S  S12  1  0.19989195  0.69540997  0.30010800  1
  S  S13  1  0.50448198  0.30458999  0.99551800  1
  S  S14  1  0.80010798  0.30458999  0.69989200  1
  S  S15  1  0.30010798  0.30458999  0.49551800  1
  S  S16  1  0.50000000  0.00000000  0.50000000  1
  S  S17  1  0.00000000  0.00000000  0.00000000  1
