# generated using pymatgen
data_AgS2Br
_symmetry_space_group_name_H-M   'P 1'
_cell_length_a   4.17407084
_cell_length_b   4.17407084
_cell_length_c   5.90089607
_cell_angle_alpha   90.00000000
_cell_angle_beta   90.00000000
_cell_angle_gamma   90.00000000
_symmetry_Int_Tables_number   1
_chemical_formula_structural   AgS2Br
_chemical_formula_sum   'Ag1 S2 Br1'
_cell_volume   102.81052944
_cell_formula_units_Z   1
loop_
 _symmetry_equiv_pos_site_id
 _symmetry_equiv_pos_as_xyz
  1  'x, y, z'
loop_
 _atom_site_type_symbol
 _atom_site_label
 _atom_site_symmetry_multiplicity
 _atom_site_fract_x
 _atom_site_fract_y
 _atom_site_fract_z
 _atom_site_occupancy
  Ag  Ag0  1  0.00000000  0.00000000  0.00000000  1
  Br  Br1  1  0.50000002  0.50000002  0.49999999  1
  S  S2  1  0.00000000  0.00000000  0.49999999  1
  S  S3  1  0.50000002  0.50000002  -0.00000000  1
