# generated using pymatgen
data_ErSiNi4
_symmetry_space_group_name_H-M   'P 1'
_cell_length_a   3.94689012
_cell_length_b   4.79339504
_cell_length_c   4.79339504
_cell_angle_alpha   116.47319031
_cell_angle_beta   90.00000000
_cell_angle_gamma   90.00000000
_symmetry_Int_Tables_number   1
_chemical_formula_structural   ErSiNi4
_chemical_formula_sum   'Er1 Si1 Ni4'
_cell_volume   81.17717303
_cell_formula_units_Z   1
loop_
 _symmetry_equiv_pos_site_id
 _symmetry_equiv_pos_as_xyz
  1  'x, y, z'
loop_
 _atom_site_type_symbol
 _atom_site_label
 _atom_site_symmetry_multiplicity
 _atom_site_fract_x
 _atom_site_fract_y
 _atom_site_fract_z
 _atom_site_occupancy
  Er  Er0  1  0.00000000  0.00000000  0.00000000  1
  Si  Si1  1  0.49999999  0.50000003  0.50000005  1
  Ni  Ni2  1  -0.00000000  0.65723005  0.34277006  1
  Ni  Ni3  1  -0.00000000  0.34277002  0.65723005  1
  Ni  Ni4  1  0.49999999  0.00000000  0.50000002  1
  Ni  Ni5  1  0.49999999  0.50000003  0.00000003  1
