# generated using pymatgen
data_Ce5Bi2Pt3
_symmetry_space_group_name_H-M   'P 1'
_cell_length_a   6.46304893
_cell_length_b   10.07785797
_cell_length_c   10.07785797
_cell_angle_alpha   120.00000000
_cell_angle_beta   90.00000000
_cell_angle_gamma   90.00000000
_symmetry_Int_Tables_number   1
_chemical_formula_structural   Ce5Bi2Pt3
_chemical_formula_sum   'Ce10 Bi4 Pt6'
_cell_volume   568.46606315
_cell_formula_units_Z   2
loop_
 _symmetry_equiv_pos_site_id
 _symmetry_equiv_pos_as_xyz
  1  'x, y, z'
loop_
 _atom_site_type_symbol
 _atom_site_label
 _atom_site_symmetry_multiplicity
 _atom_site_fract_x
 _atom_site_fract_y
 _atom_site_fract_z
 _atom_site_occupancy
  Ce  Ce0  1  0.41833800  0.33333333  0.66666667  1
  Ce  Ce1  1  0.91833801  0.66666667  0.33333333  1
  Ce  Ce2  1  0.25438900  0.12848900  0.87151100  1
  Ce  Ce3  1  0.25438900  0.74302200  0.87151100  1
  Ce  Ce4  1  0.25438900  0.12848900  0.25697800  1
  Ce  Ce5  1  0.75438901  0.87151100  0.12848900  1
  Ce  Ce6  1  0.75438901  0.25697800  0.12848900  1
  Ce  Ce7  1  0.75438901  0.87151100  0.74302200  1
  Ce  Ce8  1  0.46883100  0.54417000  0.45583100  1
  Ce  Ce9  1  0.46883100  0.91166100  0.45583100  1
  Bi  Bi10  1  0.46883100  0.54417000  0.08834000  1
  Bi  Bi11  1  0.96883101  0.45583000  0.54416900  1
  Bi  Bi12  1  0.96883101  0.08833900  0.54416900  1
  Bi  Bi13  1  0.96883101  0.45583000  0.91166000  1
  Pt  Pt14  1  0.18931800  0.81167700  0.18832200  1
  Pt  Pt15  1  0.18931800  0.37664500  0.18832200  1
  Pt  Pt16  1  0.18931800  0.81167700  0.62335400  1
  Pt  Pt17  1  0.68931801  0.18832300  0.81167800  1
  Pt  Pt18  1  0.68931801  0.62335500  0.81167800  1
  Pt  Pt19  1  0.68931801  0.18832300  0.37664600  1
