# generated using pymatgen
data_Nd2Ge6Pt
_symmetry_space_group_name_H-M   'P 1'
_cell_length_a   4.17499399
_cell_length_b   4.22790289
_cell_length_c   11.33293724
_cell_angle_alpha   90.00000000
_cell_angle_beta   100.61434174
_cell_angle_gamma   90.00000000
_symmetry_Int_Tables_number   1
_chemical_formula_structural   Nd2Ge6Pt
_chemical_formula_sum   'Nd2 Ge6 Pt1'
_cell_volume   196.62011126
_cell_formula_units_Z   1
loop_
 _symmetry_equiv_pos_site_id
 _symmetry_equiv_pos_as_xyz
  1  'x, y, z'
loop_
 _atom_site_type_symbol
 _atom_site_label
 _atom_site_symmetry_multiplicity
 _atom_site_fract_x
 _atom_site_fract_y
 _atom_site_fract_z
 _atom_site_occupancy
  Nd  Nd0  1  0.00172500  0.00000000  0.00345000  1
  Nd  Nd1  1  0.67084201  0.00000000  0.34168402  1
  Ge  Ge2  1  0.22760200  0.50000001  0.45520402  1
  Ge  Ge3  1  0.28357100  0.00000000  0.56714203  1
  Ge  Ge4  1  0.39455800  0.00000000  0.78911604  1
  Ge  Ge5  1  0.55297801  0.50000001  0.10595601  1
  Ge  Ge6  1  0.11898300  0.50000001  0.23796601  1
  Ge  Ge7  1  0.89615201  0.50000001  0.79230405  1
  Pt  Pt8  1  0.78458901  0.50000001  0.56917804  1
