# generated using pymatgen
data_SrIn2O4
_symmetry_space_group_name_H-M   'P 1'
_cell_length_a   3.31261396
_cell_length_b   5.71840906
_cell_length_c   11.02485561
_cell_angle_alpha   90.00000000
_cell_angle_beta   90.00000000
_cell_angle_gamma   106.83668518
_symmetry_Int_Tables_number   1
_chemical_formula_structural   SrIn2O4
_chemical_formula_sum   'Sr2 In4 O8'
_cell_volume   199.89034191
_cell_formula_units_Z   2
loop_
 _symmetry_equiv_pos_site_id
 _symmetry_equiv_pos_as_xyz
  1  'x, y, z'
loop_
 _atom_site_type_symbol
 _atom_site_label
 _atom_site_symmetry_multiplicity
 _atom_site_fract_x
 _atom_site_fract_y
 _atom_site_fract_z
 _atom_site_occupancy
  Sr  Sr0  1  0.61070199  0.22140400  0.75000003  1
  Sr  Sr1  1  0.38929795  0.77859598  0.25000001  1
  In  In2  1  0.13396598  0.26793199  0.07174400  1
  In  In3  1  0.13396598  0.26793199  0.42825602  1
  In  In4  1  0.86603396  0.73206798  0.92825603  1
  In  In5  1  0.86603396  0.73206798  0.57174402  1
  O  O6  1  0.50000001  0.00000000  0.00000000  1
  O  O7  1  0.50000001  0.00000000  0.50000002  1
  O  O8  1  0.05386099  0.10772200  0.25000001  1
  O  O9  1  0.23615397  0.47230799  0.89315603  1
  O  O10  1  0.23615397  0.47230799  0.60684402  1
  O  O11  1  0.76384597  0.52769199  0.39315601  1
  O  O12  1  0.76384597  0.52769199  0.10684400  1
  O  O13  1  0.94613895  0.89227798  0.75000003  1
