# generated using pymatgen
data_Ca(CuAs)2
_symmetry_space_group_name_H-M   'P 1'
_cell_length_a   3.95677304
_cell_length_b   9.40404320
_cell_length_c   12.19232559
_cell_angle_alpha   95.64046478
_cell_angle_beta   90.00000000
_cell_angle_gamma   90.00000000
_symmetry_Int_Tables_number   1
_chemical_formula_structural   Ca(CuAs)2
_chemical_formula_sum   'Ca4 Cu8 As8'
_cell_volume   451.47577105
_cell_formula_units_Z   4
loop_
 _symmetry_equiv_pos_site_id
 _symmetry_equiv_pos_as_xyz
  1  'x, y, z'
loop_
 _atom_site_type_symbol
 _atom_site_label
 _atom_site_symmetry_multiplicity
 _atom_site_fract_x
 _atom_site_fract_y
 _atom_site_fract_z
 _atom_site_occupancy
  Ca  Ca0  1  0.00000000  0.19491200  0.27945801  1
  Ca  Ca1  1  0.00000000  0.80508800  0.72054201  1
  Ca  Ca2  1  0.49999999  0.00000000  0.00000000  1
  Ca  Ca3  1  0.49999999  0.50000000  0.50000001  1
  Cu  Cu4  1  0.49999999  0.39509200  0.05634100  1
  Cu  Cu5  1  0.49999999  0.60490800  0.94365902  1
  Cu  Cu6  1  0.49999999  0.88746200  0.43419800  1
  Cu  Cu7  1  0.49999999  0.11253800  0.56580201  1
  Cu  Cu8  1  0.00000000  0.59743600  0.27959300  1
  Cu  Cu9  1  0.00000000  0.40256400  0.72040702  1
  Cu  Cu10  1  0.00000000  0.80272100  0.17262300  1
  Cu  Cu11  1  0.00000000  0.19727900  0.82737702  1
  As  As12  1  0.49999999  0.44242100  0.25665000  1
  As  As13  1  0.49999999  0.55757900  0.74335002  1
  As  As14  1  0.00000000  0.26423000  0.53728601  1
  As  As15  1  0.00000000  0.73577000  0.46271401  1
  As  As16  1  0.49999999  0.94494500  0.23920300  1
  As  As17  1  0.49999999  0.05505500  0.76079702  1
  As  As18  1  0.00000000  0.23921800  0.02691000  1
  As  As19  1  0.00000000  0.76078200  0.97309002  1
