# generated using pymatgen
data_ZrFe3
_symmetry_space_group_name_H-M   'P 1'
_cell_length_a   4.91135454
_cell_length_b   4.91135454
_cell_length_c   7.93666649
_cell_angle_alpha   90.03632355
_cell_angle_beta   90.03632355
_cell_angle_gamma   60.01607513
_symmetry_Int_Tables_number   1
_chemical_formula_structural   ZrFe3
_chemical_formula_sum   'Zr3 Fe9'
_cell_volume   165.82176922
_cell_formula_units_Z   3
loop_
 _symmetry_equiv_pos_site_id
 _symmetry_equiv_pos_as_xyz
  1  'x, y, z'
loop_
 _atom_site_type_symbol
 _atom_site_label
 _atom_site_symmetry_multiplicity
 _atom_site_fract_x
 _atom_site_fract_y
 _atom_site_fract_z
 _atom_site_occupancy
  Zr  Zr0  1  0.33333333  0.33333334  0.07048601  1
  Zr  Zr1  1  0.66666666  0.66666669  0.92951403  1
  Zr  Zr2  1  0.66662199  0.66666669  0.55176603  1
  Fe  Fe3  1  0.33333333  0.33337801  0.44823401  1
  Fe  Fe4  1  0.00000000  0.00000000  0.50000000  1
  Fe  Fe5  1  0.00000000  0.00000000  0.00000000  1
  Fe  Fe6  1  0.66265901  0.16865000  0.74309002  1
  Fe  Fe7  1  0.16867500  0.16867500  0.74292701  1
  Fe  Fe8  1  0.16864999  0.66265902  0.74309002  1
  Fe  Fe9  1  0.33734099  0.83135002  0.25691002  1
  Fe  Fe10  1  0.83132499  0.83132502  0.25707303  1
  Fe  Fe11  1  0.83135001  0.33734101  0.25691002  1
