# generated using pymatgen
data_FeSe
_symmetry_space_group_name_H-M   'P 1'
_cell_length_a   3.64211011
_cell_length_b   7.30514383
_cell_length_c   7.38833809
_cell_angle_alpha   119.62821198
_cell_angle_beta   90.00000000
_cell_angle_gamma   90.00000000
_symmetry_Int_Tables_number   1
_chemical_formula_structural   FeSe
_chemical_formula_sum   'Fe4 Se4'
_cell_volume   170.87326090
_cell_formula_units_Z   4
loop_
 _symmetry_equiv_pos_site_id
 _symmetry_equiv_pos_as_xyz
  1  'x, y, z'
loop_
 _atom_site_type_symbol
 _atom_site_label
 _atom_site_symmetry_multiplicity
 _atom_site_fract_x
 _atom_site_fract_y
 _atom_site_fract_z
 _atom_site_occupancy
  Fe  Fe0  1  0.49999998  0.25338601  0.00677201  1
  Fe  Fe1  1  0.49999998  0.75129404  0.00258804  1
  Fe  Fe2  1  0.99999997  0.00613900  0.00496600  1
  Fe  Fe3  1  0.99999997  0.49882702  0.00496602  1
  Se  Se4  1  -0.00000000  0.89279804  0.28559605  1
  Se  Se5  1  0.49999998  0.35902202  0.72002602  1
  Se  Se6  1  0.49999998  0.86100404  0.72002605  1
  Se  Se7  1  0.99999997  0.37752902  0.25505802  1
