# generated using pymatgen
data_TiRu2
_symmetry_space_group_name_H-M   'P 1'
_cell_length_a   2.74375391
_cell_length_b   3.82751203
_cell_length_c   4.83027983
_cell_angle_alpha   113.34082794
_cell_angle_beta   106.50003815
_cell_angle_gamma   90.00000000
_symmetry_Int_Tables_number   1
_chemical_formula_structural   TiRu2
_chemical_formula_sum   'Ti1 Ru2'
_cell_volume   44.29087176
_cell_formula_units_Z   1
loop_
 _symmetry_equiv_pos_site_id
 _symmetry_equiv_pos_as_xyz
  1  'x, y, z'
loop_
 _atom_site_type_symbol
 _atom_site_label
 _atom_site_symmetry_multiplicity
 _atom_site_fract_x
 _atom_site_fract_y
 _atom_site_fract_z
 _atom_site_occupancy
  Ti  Ti0  1  0.00000000  0.00000000  0.00000000  1
  Ru  Ru1  1  0.33968500  0.33968501  0.67937001  1
  Ru  Ru2  1  0.66031500  0.66031501  0.32063001  1
