# generated using pymatgen
data_ErAlNi4
_symmetry_space_group_name_H-M   'P 1'
_cell_length_a   3.68396211
_cell_length_b   5.24464607
_cell_length_c   5.24504805
_cell_angle_alpha   119.99746704
_cell_angle_beta   90.00000000
_cell_angle_gamma   90.00000000
_symmetry_Int_Tables_number   1
_chemical_formula_structural   ErAlNi4
_chemical_formula_sum   'Er1 Al1 Ni4'
_cell_volume   87.76523639
_cell_formula_units_Z   1
loop_
 _symmetry_equiv_pos_site_id
 _symmetry_equiv_pos_as_xyz
  1  'x, y, z'
loop_
 _atom_site_type_symbol
 _atom_site_label
 _atom_site_symmetry_multiplicity
 _atom_site_fract_x
 _atom_site_fract_y
 _atom_site_fract_z
 _atom_site_occupancy
  Er  Er0  1  0.88881297  0.00000000  0.00000000  1
  Al  Al1  1  0.45951599  0.50000004  1.00000002  1
  Ni  Ni2  1  0.45939699  0.00000000  0.50000000  1
  Ni  Ni3  1  0.45939699  0.50000004  0.50000003  1
  Ni  Ni4  1  0.96313797  0.33323969  0.66657302  1
  Ni  Ni5  1  0.96313797  0.66671405  0.33342704  1
