# generated using pymatgen
data_K3AsPO8
_symmetry_space_group_name_H-M   'P 1'
_cell_length_a   6.46035719
_cell_length_b   6.46035719
_cell_length_c   8.75073910
_cell_angle_alpha   91.60661316
_cell_angle_beta   110.09472656
_cell_angle_gamma   119.77817535
_symmetry_Int_Tables_number   1
_chemical_formula_structural   K3AsPO8
_chemical_formula_sum   'K3 As1 P1 O8'
_cell_volume   288.72204343
_cell_formula_units_Z   1
loop_
 _symmetry_equiv_pos_site_id
 _symmetry_equiv_pos_as_xyz
  1  'x, y, z'
loop_
 _atom_site_type_symbol
 _atom_site_label
 _atom_site_symmetry_multiplicity
 _atom_site_fract_x
 _atom_site_fract_y
 _atom_site_fract_z
 _atom_site_occupancy
  K  K0  1  0.99826709  0.99826704  0.00000008  1
  K  K1  1  0.58991107  0.79584303  0.38136904  1
  K  K2  1  0.41447402  0.20854201  0.61863099  1
  As  As3  1  0.18306405  0.60351502  0.76674200  1
  P  P4  1  0.83677304  0.41632202  0.23325803  1
  O  O5  1  0.01683505  0.72446203  0.30841602  1
  O  O6  1  0.57686603  0.28889701  0.28129002  1
  O  O7  1  0.01801302  0.29721001  0.30807400  1
  O  O8  1  0.00760702  0.29557601  0.71870998  1
  O  O9  1  0.41604606  0.70841903  0.69158401  1
  O  O10  1  0.98913607  0.70993903  0.69192603  1
  O  O11  1  0.34809106  0.71945003  0.97653200  1
  O  O12  1  0.74291804  0.37155901  0.02346804  1
