# generated using pymatgen
data_MgAg2
_symmetry_space_group_name_H-M   'P 1'
_cell_length_a   3.76710200
_cell_length_b   3.76710200
_cell_length_c   5.33773184
_cell_angle_alpha   110.66325378
_cell_angle_beta   110.66325378
_cell_angle_gamma   90.00000000
_symmetry_Int_Tables_number   1
_chemical_formula_structural   MgAg2
_chemical_formula_sum   'Mg1 Ag2'
_cell_volume   65.64165767
_cell_formula_units_Z   1
loop_
 _symmetry_equiv_pos_site_id
 _symmetry_equiv_pos_as_xyz
  1  'x, y, z'
loop_
 _atom_site_type_symbol
 _atom_site_label
 _atom_site_symmetry_multiplicity
 _atom_site_fract_x
 _atom_site_fract_y
 _atom_site_fract_z
 _atom_site_occupancy
  Mg  Mg0  1  0.00000000  0.00000000  0.00000000  1
  Ag  Ag1  1  0.66929303  0.66929301  0.33858604  1
  Ag  Ag2  1  0.33070702  0.33070701  0.66141401  1
