# generated using pymatgen
data_TbSiRu2C
_symmetry_space_group_name_H-M   'P 1'
_cell_length_a   3.86414003
_cell_length_b   5.83448553
_cell_length_c   7.13457918
_cell_angle_alpha   90.00000000
_cell_angle_beta   90.00000000
_cell_angle_gamma   109.33838654
_symmetry_Int_Tables_number   1
_chemical_formula_structural   TbSiRu2C
_chemical_formula_sum   'Tb2 Si2 Ru4 C2'
_cell_volume   151.77568197
_cell_formula_units_Z   2
loop_
 _symmetry_equiv_pos_site_id
 _symmetry_equiv_pos_as_xyz
  1  'x, y, z'
loop_
 _atom_site_type_symbol
 _atom_site_label
 _atom_site_symmetry_multiplicity
 _atom_site_fract_x
 _atom_site_fract_y
 _atom_site_fract_z
 _atom_site_occupancy
  Tb  Tb0  1  0.04620801  0.09241600  0.74999998  1
  Tb  Tb1  1  0.95379207  0.90758403  0.24999999  1
  Si  Si2  1  0.77010004  0.54020002  0.74999998  1
  Si  Si3  1  0.22990004  0.45980002  0.24999999  1
  Ru  Ru4  1  0.66646102  0.33292201  0.05426500  1
  Ru  Ru5  1  0.33353906  0.66707802  0.94573498  1
  Ru  Ru6  1  0.66646102  0.33292201  0.44573499  1
  Ru  Ru7  1  0.33353906  0.66707802  0.55426499  1
  C  C8  1  0.50000008  1.00000004  0.49999999  1
  C  C9  1  0.50000008  1.00000004  -0.00000000  1
