# generated using pymatgen
data_CsSbO3
_symmetry_space_group_name_H-M   'P 1'
_cell_length_a   4.76897812
_cell_length_b   6.73925781
_cell_length_c   6.82515097
_cell_angle_alpha   90.00000000
_cell_angle_beta   90.00000000
_cell_angle_gamma   90.00000000
_symmetry_Int_Tables_number   1
_chemical_formula_structural   CsSbO3
_chemical_formula_sum   'Cs2 Sb2 O6'
_cell_volume   219.35607301
_cell_formula_units_Z   2
loop_
 _symmetry_equiv_pos_site_id
 _symmetry_equiv_pos_as_xyz
  1  'x, y, z'
loop_
 _atom_site_type_symbol
 _atom_site_label
 _atom_site_symmetry_multiplicity
 _atom_site_fract_x
 _atom_site_fract_y
 _atom_site_fract_z
 _atom_site_occupancy
  Cs  Cs0  1  0.99534498  0.00000000  0.48939800  1
  Cs  Cs1  1  0.00465500  0.50000001  0.98939800  1
  Sb  Sb2  1  0.47585199  0.00000000  0.00639600  1
  Sb  Sb3  1  0.52414799  0.50000001  0.50639600  1
  O  O4  1  0.90451798  0.50000001  0.46721500  1
  O  O5  1  0.48738899  0.71012202  0.67500000  1
  O  O6  1  0.48738899  0.28987801  0.67500000  1
  O  O7  1  0.51261099  0.21012201  0.17500000  1
  O  O8  1  0.09548200  0.00000000  0.96721500  1
  O  O9  1  0.51261099  0.78987802  0.17500000  1
