# generated using pymatgen
data_YAs
_symmetry_space_group_name_H-M   'P 1'
_cell_length_a   4.36013699
_cell_length_b   4.36013699
_cell_length_c   12.36811543
_cell_angle_alpha   90.00000000
_cell_angle_beta   90.00000000
_cell_angle_gamma   90.00000000
_symmetry_Int_Tables_number   1
_chemical_formula_structural   YAs
_chemical_formula_sum   'Y4 As4'
_cell_volume   235.12770113
_cell_formula_units_Z   4
loop_
 _symmetry_equiv_pos_site_id
 _symmetry_equiv_pos_as_xyz
  1  'x, y, z'
loop_
 _atom_site_type_symbol
 _atom_site_label
 _atom_site_symmetry_multiplicity
 _atom_site_fract_x
 _atom_site_fract_y
 _atom_site_fract_z
 _atom_site_occupancy
  Y  Y0  1  0.00000000  0.00000000  0.25357799  1
  Y  Y1  1  0.50000000  0.50000000  0.00000000  1
  Y  Y2  1  0.00000000  0.00000000  0.74642197  1
  Y  Y3  1  0.50000000  0.50000000  0.49999998  1
  As  As4  1  0.50000000  0.50000000  0.25042099  1
  As  As5  1  0.00000000  0.00000000  0.00000000  1
  As  As6  1  0.50000000  0.50000000  0.74957897  1
  As  As7  1  0.00000000  0.00000000  0.49999998  1
