# generated using pymatgen
data_HoFe2SiC
_symmetry_space_group_name_H-M   'P 1'
_cell_length_a   3.70405197
_cell_length_b   5.53181410
_cell_length_c   6.73833895
_cell_angle_alpha   90.00000000
_cell_angle_beta   90.00000000
_cell_angle_gamma   109.56009674
_symmetry_Int_Tables_number   1
_chemical_formula_structural   HoFe2SiC
_chemical_formula_sum   'Ho2 Fe4 Si2 C2'
_cell_volume   130.10155098
_cell_formula_units_Z   2
loop_
 _symmetry_equiv_pos_site_id
 _symmetry_equiv_pos_as_xyz
  1  'x, y, z'
loop_
 _atom_site_type_symbol
 _atom_site_label
 _atom_site_symmetry_multiplicity
 _atom_site_fract_x
 _atom_site_fract_y
 _atom_site_fract_z
 _atom_site_occupancy
  Ho  Ho0  1  0.45269800  0.90539604  0.75000001  1
  Ho  Ho1  1  0.54730200  0.09460400  0.25000000  1
  Fe  Fe2  1  0.16538400  0.33076801  0.93788601  1
  Fe  Fe3  1  0.83461600  0.66923203  0.06211400  1
  Fe  Fe4  1  0.83461600  0.66923203  0.43788600  1
  Fe  Fe5  1  0.16538400  0.33076801  0.56211400  1
  Si  Si6  1  0.73271800  0.46543602  0.75000001  1
  Si  Si7  1  0.26728200  0.53456402  0.25000000  1
  C  C8  1  0.00000000  0.00000000  0.00000000  1
  C  C9  1  0.00000000  0.00000000  0.50000000  1
