# generated using pymatgen
data_Ti3Cr3Si4
_symmetry_space_group_name_H-M   'P 1'
_cell_length_a   3.36409211
_cell_length_b   6.53807211
_cell_length_c   6.53807211
_cell_angle_alpha   90.00000000
_cell_angle_beta   90.00000000
_cell_angle_gamma   90.00000000
_symmetry_Int_Tables_number   1
_chemical_formula_structural   Ti3Cr3Si4
_chemical_formula_sum   'Ti3 Cr3 Si4'
_cell_volume   143.80278299
_cell_formula_units_Z   1
loop_
 _symmetry_equiv_pos_site_id
 _symmetry_equiv_pos_as_xyz
  1  'x, y, z'
loop_
 _atom_site_type_symbol
 _atom_site_label
 _atom_site_symmetry_multiplicity
 _atom_site_fract_x
 _atom_site_fract_y
 _atom_site_fract_z
 _atom_site_occupancy
  Ti  Ti0  1  0.99999997  0.88674399  0.38674399  1
  Ti  Ti1  1  0.00000000  0.38674399  0.11325600  1
  Ti  Ti2  1  0.99999997  0.61325599  0.88674399  1
  Cr  Cr3  1  0.99999997  0.11325600  0.61325599  1
  Cr  Cr4  1  0.00000000  0.00000000  0.00000000  1
  Cr  Cr5  1  0.99999997  0.49999999  0.49999999  1
  Si  Si6  1  0.49999998  0.67924199  0.17924200  1
  Si  Si7  1  0.49999998  0.17924200  0.32075799  1
  Si  Si8  1  0.49999998  0.82075799  0.67924199  1
  Si  Si9  1  0.49999998  0.32075799  0.82075799  1
