# generated using pymatgen
data_Ca4Ge5Pt3
_symmetry_space_group_name_H-M   'P 1'
_cell_length_a   6.07002783
_cell_length_b   6.19557905
_cell_length_c   7.60926628
_cell_angle_alpha   109.67340088
_cell_angle_beta   90.00000000
_cell_angle_gamma   90.00000000
_symmetry_Int_Tables_number   1
_chemical_formula_structural   Ca4Ge5Pt3
_chemical_formula_sum   'Ca4 Ge5 Pt3'
_cell_volume   269.45995997
_cell_formula_units_Z   1
loop_
 _symmetry_equiv_pos_site_id
 _symmetry_equiv_pos_as_xyz
  1  'x, y, z'
loop_
 _atom_site_type_symbol
 _atom_site_label
 _atom_site_symmetry_multiplicity
 _atom_site_fract_x
 _atom_site_fract_y
 _atom_site_fract_z
 _atom_site_occupancy
  Ca  Ca0  1  0.36531001  0.81967297  0.61788696  1
  Ca  Ca1  1  0.86531002  0.68032698  0.88211297  1
  Ca  Ca2  1  0.63469002  0.18032699  0.38211299  1
  Ca  Ca3  1  0.13469000  0.31967299  0.11788698  1
  Ge  Ge4  1  0.36574601  0.82014897  0.04942596  1
  Ge  Ge5  1  0.86574602  0.67985098  0.45057397  1
  Ge  Ge6  1  0.63425402  0.17985099  0.95057400  1
  Ge  Ge7  1  0.13425400  0.32014899  0.54942599  1
  Ge  Ge8  1  0.10161800  0.92241597  0.31269895  1
  Pt  Pt9  1  0.60161802  0.57758398  0.18730097  1
  Pt  Pt10  1  0.89838203  0.07758400  0.68730100  1
  Pt  Pt11  1  0.39838201  0.42241599  0.81269898  1
