# generated using pymatgen
data_BaIn2
_symmetry_space_group_name_H-M   'P 1'
_cell_length_a   5.41158199
_cell_length_b   5.41158199
_cell_length_c   8.56640339
_cell_angle_alpha   90.00000000
_cell_angle_beta   90.00000000
_cell_angle_gamma   90.00000000
_symmetry_Int_Tables_number   1
_chemical_formula_structural   BaIn2
_chemical_formula_sum   'Ba2 In4'
_cell_volume   250.86900501
_cell_formula_units_Z   2
loop_
 _symmetry_equiv_pos_site_id
 _symmetry_equiv_pos_as_xyz
  1  'x, y, z'
loop_
 _atom_site_type_symbol
 _atom_site_label
 _atom_site_symmetry_multiplicity
 _atom_site_fract_x
 _atom_site_fract_y
 _atom_site_fract_z
 _atom_site_occupancy
  Ba  Ba0  1  0.50000000  0.00000000  0.63497597  1
  Ba  Ba1  1  0.00000000  0.50000000  0.36502398  1
  In  In2  1  0.50000000  0.50000000  -0.00000000  1
  In  In3  1  0.00000000  0.00000000  0.00000000  1
  In  In4  1  0.00000000  0.50000000  0.80407896  1
  In  In5  1  0.50000000  0.00000000  0.19592099  1
