# generated using pymatgen
data_Ca4TaCr3O12
_symmetry_space_group_name_H-M   'P 1'
_cell_length_a   5.55583477
_cell_length_b   5.56084681
_cell_length_c   7.91702080
_cell_angle_alpha   90.00000000
_cell_angle_beta   90.00000000
_cell_angle_gamma   89.50716400
_symmetry_Int_Tables_number   1
_chemical_formula_structural   Ca4TaCr3O12
_chemical_formula_sum   'Ca4 Ta1 Cr3 O12'
_cell_volume   244.58846515
_cell_formula_units_Z   1
loop_
 _symmetry_equiv_pos_site_id
 _symmetry_equiv_pos_as_xyz
  1  'x, y, z'
loop_
 _atom_site_type_symbol
 _atom_site_label
 _atom_site_symmetry_multiplicity
 _atom_site_fract_x
 _atom_site_fract_y
 _atom_site_fract_z
 _atom_site_occupancy
  Ca  Ca0  1  0.00919806  0.97085798  -0.00000000  1
  Ca  Ca1  1  0.50739605  0.52892899  0.50000001  1
  Ca  Ca2  1  0.99298604  0.03127200  0.50000001  1
  Ca  Ca3  1  0.49188905  0.47283499  -0.00000000  1
  Ta  Ta4  1  0.50263002  0.00303500  0.24464201  1
  Cr  Cr5  1  0.99758507  0.49881299  0.75467802  1
  Cr  Cr6  1  0.50263002  0.00303500  0.75535802  1
  Cr  Cr7  1  0.99758507  0.49881299  0.24532201  1
  O  O8  1  0.57973203  0.03956400  -0.00000000  1
  O  O9  1  0.90175307  0.51398999  -0.00000000  1
  O  O10  1  0.42452708  0.97892198  0.50000001  1
  O  O11  1  0.07959603  0.49662499  0.50000001  1
  O  O12  1  0.21056802  0.21029700  0.21654601  1
  O  O13  1  0.28558006  0.71296999  0.79998902  1
  O  O14  1  0.78409108  0.78305299  0.70901002  1
  O  O15  1  0.72600605  0.27533400  0.30321001  1
  O  O16  1  0.78409108  0.78305299  0.29099001  1
  O  O17  1  0.72600605  0.27533400  0.69679002  1
  O  O18  1  0.21056802  0.21029700  0.78345402  1
  O  O19  1  0.28558006  0.71296999  0.20001101  1
