# generated using pymatgen
data_HoGe
_symmetry_space_group_name_H-M   'P 1'
_cell_length_a   3.96400499
_cell_length_b   4.30600214
_cell_length_c   5.79186916
_cell_angle_alpha   68.17775726
_cell_angle_beta   90.00000000
_cell_angle_gamma   90.00000000
_symmetry_Int_Tables_number   1
_chemical_formula_structural   HoGe
_chemical_formula_sum   'Ho2 Ge2'
_cell_volume   91.77723802
_cell_formula_units_Z   2
loop_
 _symmetry_equiv_pos_site_id
 _symmetry_equiv_pos_as_xyz
  1  'x, y, z'
loop_
 _atom_site_type_symbol
 _atom_site_label
 _atom_site_symmetry_multiplicity
 _atom_site_fract_x
 _atom_site_fract_y
 _atom_site_fract_z
 _atom_site_occupancy
  Ho  Ho0  1  0.75000000  0.13830500  0.72338997  1
  Ho  Ho1  1  0.25000000  0.86169499  0.27660995  1
  Ge  Ge2  1  0.75000000  0.41472100  0.17055797  1
  Ge  Ge3  1  0.25000000  0.58527900  0.82944194  1
