# generated using pymatgen
data_Mn3Cu7(O3F2)2
_symmetry_space_group_name_H-M   'P 1'
_cell_length_a   2.98108101
_cell_length_b   6.20003414
_cell_length_c   13.29617405
_cell_angle_alpha   90.00000000
_cell_angle_beta   90.00000000
_cell_angle_gamma   90.00000000
_symmetry_Int_Tables_number   1
_chemical_formula_structural   Mn3Cu7(O3F2)2
_chemical_formula_sum   'Mn3 Cu7 O6 F4'
_cell_volume   245.75057936
_cell_formula_units_Z   1
loop_
 _symmetry_equiv_pos_site_id
 _symmetry_equiv_pos_as_xyz
  1  'x, y, z'
loop_
 _atom_site_type_symbol
 _atom_site_label
 _atom_site_symmetry_multiplicity
 _atom_site_fract_x
 _atom_site_fract_y
 _atom_site_fract_z
 _atom_site_occupancy
  Mn  Mn0  1  0.75000000  0.85129498  0.92248800  1
  Mn  Mn1  1  0.25000000  0.14870500  0.07751200  1
  Mn  Mn2  1  0.75000000  0.35129499  0.57751200  1
  Cu  Cu3  1  0.25000000  0.64870499  0.42248800  1
  Cu  Cu4  1  0.75000000  0.36633399  0.88708300  1
  Cu  Cu5  1  0.25000000  0.63366599  0.11291700  1
  Cu  Cu6  1  0.75000000  0.86633398  0.61291700  1
  Cu  Cu7  1  0.25000000  0.13366600  0.38708300  1
  Cu  Cu8  1  0.75000000  0.88647298  0.24204000  1
  Cu  Cu9  1  0.25000000  0.11352700  0.75796000  1
  O  O10  1  0.75000000  0.38647299  0.25796000  1
  O  O11  1  0.25000000  0.61352699  0.74204000  1
  O  O12  1  0.75000000  0.85167898  0.10260900  1
  O  O13  1  0.25000000  0.14832100  0.89739100  1
  F  F14  1  0.75000000  0.35167899  0.39739100  1
  O  O15  1  0.25000000  0.64832099  0.60260900  1
  F  F16  1  0.75000000  0.42093399  0.12002000  1
  O  O17  1  0.25000000  0.57906599  0.87998000  1
  F  F18  1  0.75000000  0.92093398  0.37998000  1
  F  F19  1  0.25000000  0.07906600  0.62002000  1
