# generated using pymatgen
data_USe2
_symmetry_space_group_name_H-M   'P 1'
_cell_length_a   3.81733990
_cell_length_b   5.60776377
_cell_length_c   14.21265793
_cell_angle_alpha   90.00000000
_cell_angle_beta   90.00000000
_cell_angle_gamma   109.89893341
_symmetry_Int_Tables_number   1
_chemical_formula_structural   USe2
_chemical_formula_sum   'U4 Se8'
_cell_volume   286.08146689
_cell_formula_units_Z   4
loop_
 _symmetry_equiv_pos_site_id
 _symmetry_equiv_pos_as_xyz
  1  'x, y, z'
loop_
 _atom_site_type_symbol
 _atom_site_label
 _atom_site_symmetry_multiplicity
 _atom_site_fract_x
 _atom_site_fract_y
 _atom_site_fract_z
 _atom_site_occupancy
  U  U0  1  0.38093298  0.76186597  0.25000000  1
  U  U1  1  0.61906701  0.23813399  0.75000000  1
  U  U2  1  0.07124800  0.14249599  0.10822200  1
  U  U3  1  0.92875200  0.85750396  0.89177800  1
  Se  Se4  1  0.92875200  0.85750396  0.60822200  1
  Se  Se5  1  0.07124800  0.14249599  0.39177800  1
  Se  Se6  1  0.66909301  0.33818599  0.25000000  1
  Se  Se7  1  0.33090699  0.66181397  0.75000000  1
  Se  Se8  1  0.64269401  0.28538799  0.54911800  1
  Se  Se9  1  0.35730599  0.71461197  0.45088200  1
  Se  Se10  1  0.35730599  0.71461197  0.04911800  1
  Se  Se11  1  0.64269401  0.28538799  0.95088200  1
