# generated using pymatgen
data_Mn2Cu2O7
_symmetry_space_group_name_H-M   'P 1'
_cell_length_a   5.19295835
_cell_length_b   5.52456760
_cell_length_c   5.52456760
_cell_angle_alpha   69.73219299
_cell_angle_beta   84.28516388
_cell_angle_gamma   95.71483612
_symmetry_Int_Tables_number   1
_chemical_formula_structural   Mn2Cu2O7
_chemical_formula_sum   'Mn2 Cu2 O7'
_cell_volume   146.40715428
_cell_formula_units_Z   1
loop_
 _symmetry_equiv_pos_site_id
 _symmetry_equiv_pos_as_xyz
  1  'x, y, z'
loop_
 _atom_site_type_symbol
 _atom_site_label
 _atom_site_symmetry_multiplicity
 _atom_site_fract_x
 _atom_site_fract_y
 _atom_site_fract_z
 _atom_site_occupancy
  Mn  Mn0  1  0.50000003  0.68602602  0.68602596  1
  Mn  Mn1  1  0.50000002  0.31397401  0.31397397  1
  Cu  Cu2  1  0.89247102  0.25361201  0.74638797  1
  Cu  Cu3  1  0.10752903  0.74638802  0.25361196  1
  O  O4  1  0.69757002  0.39538601  0.94538797  1
  O  O5  1  0.69757001  0.05461200  0.60461398  1
  O  O6  1  0.22984702  0.43072401  0.56927597  1
  O  O7  1  0.77015303  0.56927601  0.43072396  1
  O  O8  1  0.00000000  0.00000000  0.00000000  1
  O  O9  1  0.30243004  0.94538802  0.39538595  1
  O  O10  1  0.30243003  0.60461401  0.05461196  1
