# generated using pymatgen
data_LiAu3
_symmetry_space_group_name_H-M   'P 1'
_cell_length_a   4.75514412
_cell_length_b   5.70527983
_cell_length_c   5.70527983
_cell_angle_alpha   120.00000000
_cell_angle_beta   90.00000000
_cell_angle_gamma   90.00000000
_symmetry_Int_Tables_number   1
_chemical_formula_structural   LiAu3
_chemical_formula_sum   'Li2 Au6'
_cell_volume   134.04425833
_cell_formula_units_Z   2
loop_
 _symmetry_equiv_pos_site_id
 _symmetry_equiv_pos_as_xyz
  1  'x, y, z'
loop_
 _atom_site_type_symbol
 _atom_site_label
 _atom_site_symmetry_multiplicity
 _atom_site_fract_x
 _atom_site_fract_y
 _atom_site_fract_z
 _atom_site_occupancy
  Li  Li0  1  0.24999999  0.66666667  0.33333329  1
  Li  Li1  1  0.74999998  0.33333334  0.66666663  1
  Au  Au2  1  0.74999998  0.83057901  0.16941996  1
  Au  Au3  1  0.74999998  0.33884100  0.16941998  1
  Au  Au4  1  0.74999998  0.83057901  0.66115794  1
  Au  Au5  1  0.24999999  0.16942100  0.83057997  1
  Au  Au6  1  0.24999999  0.66115901  0.83057994  1
  Au  Au7  1  0.24999999  0.16942100  0.33884198  1
