# generated using pymatgen
data_Li3MnO4
_symmetry_space_group_name_H-M   'P 1'
_cell_length_a   5.11107302
_cell_length_b   5.54519272
_cell_length_c   6.49334097
_cell_angle_alpha   89.92431641
_cell_angle_beta   89.95394897
_cell_angle_gamma   89.86807251
_symmetry_Int_Tables_number   1
_chemical_formula_structural   Li3MnO4
_chemical_formula_sum   'Li6 Mn2 O8'
_cell_volume   184.03281482
_cell_formula_units_Z   2
loop_
 _symmetry_equiv_pos_site_id
 _symmetry_equiv_pos_as_xyz
  1  'x, y, z'
loop_
 _atom_site_type_symbol
 _atom_site_label
 _atom_site_symmetry_multiplicity
 _atom_site_fract_x
 _atom_site_fract_y
 _atom_site_fract_z
 _atom_site_occupancy
  Li  Li0  1  0.00695200  0.08184600  0.37470098  1
  Li  Li1  1  0.50203798  0.41877200  0.87695696  1
  Li  Li2  1  0.00658798  0.58443400  0.12405098  1
  Li  Li3  1  0.50230297  0.91591100  0.62446195  1
  Li  Li4  1  0.99920099  0.08227500  0.87716697  1
  Li  Li5  1  0.50222498  0.41585400  0.37028198  1
  Mn  Mn6  1  0.00187398  0.58272400  0.62572896  1
  Mn  Mn7  1  0.50020997  0.91592500  0.12752297  1
  O  O8  1  0.62983500  0.06863100  0.89119797  1
  O  O9  1  0.60803399  0.08980000  0.35837599  1
  O  O10  1  0.10904699  0.41147300  0.86707996  1
  O  O11  1  0.12618798  0.42628300  0.38293597  1
  O  O12  1  0.62633698  0.56935100  0.61455396  1
  O  O13  1  0.60788798  0.59602100  0.13677398  1
  O  O14  1  0.10845697  0.91210900  0.63485595  1
  O  O15  1  0.13642197  0.92859100  0.11335497  1
