# generated using pymatgen
data_CaSc2C3
_symmetry_space_group_name_H-M   'P 1'
_cell_length_a   4.26681185
_cell_length_b   4.26681185
_cell_length_c   5.99463034
_cell_angle_alpha   110.84776306
_cell_angle_beta   110.84776306
_cell_angle_gamma   90.00000000
_symmetry_Int_Tables_number   1
_chemical_formula_structural   CaSc2C3
_chemical_formula_sum   'Ca1 Sc2 C3'
_cell_volume   94.30605880
_cell_formula_units_Z   1
loop_
 _symmetry_equiv_pos_site_id
 _symmetry_equiv_pos_as_xyz
  1  'x, y, z'
loop_
 _atom_site_type_symbol
 _atom_site_label
 _atom_site_symmetry_multiplicity
 _atom_site_fract_x
 _atom_site_fract_y
 _atom_site_fract_z
 _atom_site_occupancy
  Ca  Ca0  1  0.50000000  0.50000001  -0.00000002  1
  Sc  Sc1  1  0.24999999  0.75000002  0.49999999  1
  Sc  Sc2  1  0.75000001  0.25000001  0.49999999  1
  C  C3  1  0.00000000  0.00000000  0.00000000  1
  C  C4  1  0.86924400  0.86924402  0.73848798  1
  C  C5  1  0.13075600  0.13075600  0.26151200  1
