# generated using pymatgen
data_UAlRh
_symmetry_space_group_name_H-M   'P 1'
_cell_length_a   4.06589890
_cell_length_b   7.05152798
_cell_length_c   7.05152750
_cell_angle_alpha   120.00000000
_cell_angle_beta   90.00000000
_cell_angle_gamma   90.00000000
_symmetry_Int_Tables_number   1
_chemical_formula_structural   UAlRh
_chemical_formula_sum   'U3 Al3 Rh3'
_cell_volume   175.08689621
_cell_formula_units_Z   3
loop_
 _symmetry_equiv_pos_site_id
 _symmetry_equiv_pos_as_xyz
  1  'x, y, z'
loop_
 _atom_site_type_symbol
 _atom_site_label
 _atom_site_symmetry_multiplicity
 _atom_site_fract_x
 _atom_site_fract_y
 _atom_site_fract_z
 _atom_site_occupancy
  U  U0  1  0.50000001  0.00000000  0.42330801  1
  U  U1  1  0.50000001  0.42330799  -0.00000001  1
  U  U2  1  0.50000001  0.57669199  0.57669200  1
  Al  Al3  1  0.00000000  0.00000000  0.77074302  1
  Al  Al4  1  1.00000003  0.77074299  -0.00000002  1
  Al  Al5  1  1.00000003  0.22925700  0.22925700  1
  Rh  Rh6  1  -0.00000000  0.66666666  0.33333332  1
  Rh  Rh7  1  -0.00000000  0.33333333  0.66666667  1
  Rh  Rh8  1  0.50000001  0.00000000  -0.00000000  1
