# generated using pymatgen
data_UNb6S7
_symmetry_space_group_name_H-M   'P 1'
_cell_length_a   6.75342131
_cell_length_b   6.75342131
_cell_length_c   6.75342226
_cell_angle_alpha   91.63846588
_cell_angle_beta   91.63846588
_cell_angle_gamma   91.63847351
_symmetry_Int_Tables_number   1
_chemical_formula_structural   UNb6S7
_chemical_formula_sum   'U1 Nb6 S7'
_cell_volume   307.62963979
_cell_formula_units_Z   1
loop_
 _symmetry_equiv_pos_site_id
 _symmetry_equiv_pos_as_xyz
  1  'x, y, z'
loop_
 _atom_site_type_symbol
 _atom_site_label
 _atom_site_symmetry_multiplicity
 _atom_site_fract_x
 _atom_site_fract_y
 _atom_site_fract_z
 _atom_site_occupancy
  Nb  Nb0  1  0.41413101  0.54624502  0.22571397  1
  Nb  Nb1  1  0.54624502  0.22571401  0.41413097  1
  Nb  Nb2  1  0.22571401  0.41413101  0.54624497  1
  Nb  Nb3  1  0.58586902  0.45375501  0.77428596  1
  Nb  Nb4  1  0.45375501  0.77428602  0.58586896  1
  Nb  Nb5  1  0.77428602  0.58586902  0.45375496  1
  S  S6  1  0.21641401  0.21641401  0.21641399  1
  U  U7  1  0.78358602  0.78358602  0.78358595  1
  S  S8  1  0.12819701  0.74302602  0.38142197  1
  S  S9  1  0.74302602  0.38142201  0.12819697  1
  S  S10  1  0.38142201  0.12819700  0.74302597  1
  S  S11  1  0.87180303  0.25697401  0.61857796  1
  S  S12  1  0.25697401  0.61857802  0.87180296  1
  S  S13  1  0.61857702  0.87180302  0.25697396  1
