# generated using pymatgen
data_Ho2CoGe6
_symmetry_space_group_name_H-M   'P 1'
_cell_length_a   3.99106002
_cell_length_b   4.06392813
_cell_length_c   10.92741299
_cell_angle_alpha   90.00000000
_cell_angle_beta   100.52222443
_cell_angle_gamma   90.00000000
_symmetry_Int_Tables_number   1
_chemical_formula_structural   Ho2CoGe6
_chemical_formula_sum   'Ho2 Co1 Ge6'
_cell_volume   174.25550277
_cell_formula_units_Z   1
loop_
 _symmetry_equiv_pos_site_id
 _symmetry_equiv_pos_as_xyz
  1  'x, y, z'
loop_
 _atom_site_type_symbol
 _atom_site_label
 _atom_site_symmetry_multiplicity
 _atom_site_fract_x
 _atom_site_fract_y
 _atom_site_fract_z
 _atom_site_occupancy
  Ho  Ho0  1  0.77780400  0.49999998  0.55560699  1
  Ho  Ho1  1  0.11348900  0.49999998  0.22697700  1
  Co  Co2  1  0.55480800  0.00000000  0.10961600  1
  Ge  Ge3  1  0.50024500  0.49999998  0.00049101  1
  Ge  Ge4  1  0.38353900  0.49999998  0.76707799  1
  Ge  Ge5  1  0.99916500  0.99999997  0.99832999  1
  Ge  Ge6  1  0.88151200  0.00000000  0.76302399  1
  Ge  Ge7  1  0.66093300  0.00000000  0.32186600  1
  Ge  Ge8  1  0.23550500  0.00000000  0.47100999  1
