# generated using pymatgen
data_In5Pt11
_symmetry_space_group_name_H-M   'P 1'
_cell_length_a   8.04025555
_cell_length_b   8.04025555
_cell_length_c   8.09514713
_cell_angle_alpha   109.34083557
_cell_angle_beta   109.33567810
_cell_angle_gamma   109.46248627
_symmetry_Int_Tables_number   1
_chemical_formula_structural   In5Pt11
_chemical_formula_sum   'In5 Pt11'
_cell_volume   404.20854471
_cell_formula_units_Z   1
loop_
 _symmetry_equiv_pos_site_id
 _symmetry_equiv_pos_as_xyz
  1  'x, y, z'
loop_
 _atom_site_type_symbol
 _atom_site_label
 _atom_site_symmetry_multiplicity
 _atom_site_fract_x
 _atom_site_fract_y
 _atom_site_fract_z
 _atom_site_occupancy
  In  In0  1  0.00000000  0.00000000  0.49999997  1
  In  In1  1  0.50000004  0.50000001  0.50000004  1
  In  In2  1  0.32795201  0.16141600  0.48936800  1
  In  In3  1  0.67204807  0.83858402  0.51063208  1
  Pt  Pt4  1  0.34784608  0.84889002  0.19673609  1
  In  In5  1  0.65215400  0.15111000  0.80326399  1
  Pt  Pt6  1  0.14731408  0.81899802  0.65154805  1
  Pt  Pt7  1  0.85268600  0.18100201  0.34845203  1
  Pt  Pt8  1  0.83255003  0.50423401  0.65154804  1
  Pt  Pt9  1  0.16745005  0.49576601  0.34845204  1
  Pt  Pt10  1  0.50647605  0.65228402  0.83332004  1
  Pt  Pt11  1  0.49352402  0.34771601  0.16668004  1
  Pt  Pt12  1  0.81896405  0.67315602  0.16668009  1
  Pt  Pt13  1  0.18103603  0.32684401  0.83331999  1
  Pt  Pt14  1  0.49999999  0.00000000  0.99999996  1
  Pt  Pt15  1  0.00000005  0.50000001  0.99999999  1
