# generated using pymatgen
data_Al3Pd
_symmetry_space_group_name_H-M   'P 1'
_cell_length_a   6.54765415
_cell_length_b   6.95418310
_cell_length_c   6.95418310
_cell_angle_alpha   77.19548798
_cell_angle_beta   61.91564941
_cell_angle_gamma   61.91564941
_symmetry_Int_Tables_number   1
_chemical_formula_structural   Al3Pd
_chemical_formula_sum   'Al9 Pd3'
_cell_volume   246.47149881
_cell_formula_units_Z   3
loop_
 _symmetry_equiv_pos_site_id
 _symmetry_equiv_pos_as_xyz
  1  'x, y, z'
loop_
 _atom_site_type_symbol
 _atom_site_label
 _atom_site_symmetry_multiplicity
 _atom_site_fract_x
 _atom_site_fract_y
 _atom_site_fract_z
 _atom_site_occupancy
  Al  Al0  1  0.29694799  0.42901900  0.99999995  1
  Al  Al1  1  0.72596699  0.00000000  0.57098097  1
  Al  Al2  1  0.29694799  1.00000000  0.42901894  1
  Al  Al3  1  0.72596699  0.57098100  -0.00000005  1
  Al  Al4  1  0.41493099  0.50000000  0.49999996  1
  Al  Al5  1  0.90103199  0.00000000  -0.00000002  1
  Al  Al6  1  0.91493099  0.50000000  0.49999994  1
  Pd  Pd7  1  0.42083899  0.75651600  0.75651594  1
  Pd  Pd8  1  0.17735499  0.75651600  0.24348396  1
  Al  Al9  1  0.17735400  0.24348400  0.75651697  1
  Al  Al10  1  0.93387099  0.24348400  0.24348296  1
  Pd  Pd11  1  0.49985600  0.00000000  0.99999997  1
