# generated using pymatgen
data_Mn3(O2F)2
_symmetry_space_group_name_H-M   'P 1'
_cell_length_a   4.71234608
_cell_length_b   5.54310131
_cell_length_c   7.72585487
_cell_angle_alpha   84.15707397
_cell_angle_beta   85.26384735
_cell_angle_gamma   85.06804657
_symmetry_Int_Tables_number   1
_chemical_formula_structural   Mn3(O2F)2
_chemical_formula_sum   'Mn6 O8 F4'
_cell_volume   199.45990439
_cell_formula_units_Z   2
loop_
 _symmetry_equiv_pos_site_id
 _symmetry_equiv_pos_as_xyz
  1  'x, y, z'
loop_
 _atom_site_type_symbol
 _atom_site_label
 _atom_site_symmetry_multiplicity
 _atom_site_fract_x
 _atom_site_fract_y
 _atom_site_fract_z
 _atom_site_occupancy
  Mn  Mn0  1  0.51955604  0.51095000  0.00534396  1
  Mn  Mn1  1  0.49347507  0.82893300  0.66425894  1
  Mn  Mn2  1  0.51806501  0.18259000  0.33922798  1
  Mn  Mn3  1  0.98709802  0.33046500  0.65688495  1
  Mn  Mn4  1  0.98082505  0.65878600  0.32475694  1
  Mn  Mn5  1  0.99921808  0.99126501  0.00561792  1
  O  O6  1  0.80016702  0.38058500  0.42862296  1
  O  O7  1  0.82332205  0.71015400  0.11146994  1
  O  O8  1  0.69423601  0.20300700  0.10546697  1
  O  O9  1  0.69678104  0.53374800  0.76560695  1
  O  O10  1  0.70536707  0.87823401  0.43644193  1
  O  O11  1  0.30610901  0.13593000  0.56526798  1
  O  O12  1  0.30195704  0.46211000  0.23234797  1
  O  O13  1  0.30929907  0.79489900  0.89902395  1
  F  F14  1  0.80539199  0.03928000  0.76213297  1
  F  F15  1  0.17828705  0.62536000  0.55423296  1
  F  F16  1  0.20310808  0.95043001  0.24876795  1
  F  F17  1  0.17773902  0.28327400  0.89452598  1
