# generated using pymatgen
data_Mg5Ag
_symmetry_space_group_name_H-M   'P 1'
_cell_length_a   3.26366401
_cell_length_b   5.04767704
_cell_length_c   8.24456120
_cell_angle_alpha   90.00000000
_cell_angle_beta   101.41584015
_cell_angle_gamma   90.00000000
_symmetry_Int_Tables_number   1
_chemical_formula_structural   Mg5Ag
_chemical_formula_sum   'Mg5 Ag1'
_cell_volume   133.13325593
_cell_formula_units_Z   1
loop_
 _symmetry_equiv_pos_site_id
 _symmetry_equiv_pos_as_xyz
  1  'x, y, z'
loop_
 _atom_site_type_symbol
 _atom_site_label
 _atom_site_symmetry_multiplicity
 _atom_site_fract_x
 _atom_site_fract_y
 _atom_site_fract_z
 _atom_site_occupancy
  Mg  Mg0  1  0.00021700  0.50000000  0.00043400  1
  Mg  Mg1  1  0.67052100  0.50000000  0.34104201  1
  Mg  Mg2  1  0.33464800  0.50000000  0.66929601  1
  Mg  Mg3  1  0.55638600  0.00000000  0.11277201  1
  Mg  Mg4  1  0.88339401  0.00000000  0.76678802  1
  Ag  Ag5  1  0.22150400  0.00000000  0.44300801  1
