# generated using pymatgen
data_YbSiIr
_symmetry_space_group_name_H-M   'P 1'
_cell_length_a   4.23134708
_cell_length_b   6.83890486
_cell_length_c   7.43566513
_cell_angle_alpha   90.00000000
_cell_angle_beta   90.00000000
_cell_angle_gamma   90.00000000
_symmetry_Int_Tables_number   1
_chemical_formula_structural   YbSiIr
_chemical_formula_sum   'Yb4 Si4 Ir4'
_cell_volume   215.17164265
_cell_formula_units_Z   4
loop_
 _symmetry_equiv_pos_site_id
 _symmetry_equiv_pos_as_xyz
  1  'x, y, z'
loop_
 _atom_site_type_symbol
 _atom_site_label
 _atom_site_symmetry_multiplicity
 _atom_site_fract_x
 _atom_site_fract_y
 _atom_site_fract_z
 _atom_site_occupancy
  Yb  Yb0  1  0.74999999  0.49908001  0.81203399  1
  Yb  Yb1  1  0.25000000  0.00092000  0.31203399  1
  Yb  Yb2  1  0.74999999  0.99908002  0.68796599  1
  Yb  Yb3  1  0.25000000  0.50092001  0.18796600  1
  Si  Si4  1  0.25000000  0.79820602  0.89082998  1
  Si  Si5  1  0.25000000  0.29820601  0.60916999  1
  Si  Si6  1  0.74999999  0.20179400  0.10917000  1
  Si  Si7  1  0.74999999  0.70179401  0.39082999  1
  Ir  Ir8  1  0.25000000  0.65751801  0.56776199  1
  Ir  Ir9  1  0.25000000  0.15751800  0.93223798  1
  Ir  Ir10  1  0.74999999  0.84248202  0.06776200  1
  Ir  Ir11  1  0.74999999  0.34248201  0.43223799  1
