# generated using pymatgen
data_K2Zr2TeSe5
_symmetry_space_group_name_H-M   'P 1'
_cell_length_a   6.59640503
_cell_length_b   7.85877800
_cell_length_c   7.85877848
_cell_angle_alpha   60.00000381
_cell_angle_beta   90.00000000
_cell_angle_gamma   90.00000000
_symmetry_Int_Tables_number   1
_chemical_formula_structural   K2Zr2TeSe5
_chemical_formula_sum   'K2 Zr2 Te1 Se5'
_cell_volume   352.81580370
_cell_formula_units_Z   1
loop_
 _symmetry_equiv_pos_site_id
 _symmetry_equiv_pos_as_xyz
  1  'x, y, z'
loop_
 _atom_site_type_symbol
 _atom_site_label
 _atom_site_symmetry_multiplicity
 _atom_site_fract_x
 _atom_site_fract_y
 _atom_site_fract_z
 _atom_site_occupancy
  K  K0  1  0.75000000  0.66666666  0.66666669  1
  K  K1  1  0.25000000  0.33333333  0.33333335  1
  Zr  Zr2  1  0.50000000  0.00000000  0.00000000  1
  Zr  Zr3  1  0.00000000  0.00000000  0.00000000  1
  Se  Se4  1  0.75000000  0.15728600  0.68542801  1
  Te  Te5  1  0.25000000  0.31457300  0.84271302  1
  Se  Se6  1  0.75000000  0.68542699  0.15728702  1
  Se  Se7  1  0.25000000  0.84271399  0.31457203  1
  Se  Se8  1  0.25000000  0.84271399  0.84271303  1
  Se  Se9  1  0.75000000  0.15728600  0.15728701  1
