# generated using pymatgen
data_AlRh
_symmetry_space_group_name_H-M   'P 1'
_cell_length_a   3.53981805
_cell_length_b   5.64043283
_cell_length_c   12.59803963
_cell_angle_alpha   90.00000000
_cell_angle_beta   90.00000000
_cell_angle_gamma   90.00000000
_symmetry_Int_Tables_number   1
_chemical_formula_structural   AlRh
_chemical_formula_sum   'Al8 Rh8'
_cell_volume   251.53379395
_cell_formula_units_Z   8
loop_
 _symmetry_equiv_pos_site_id
 _symmetry_equiv_pos_as_xyz
  1  'x, y, z'
loop_
 _atom_site_type_symbol
 _atom_site_label
 _atom_site_symmetry_multiplicity
 _atom_site_fract_x
 _atom_site_fract_y
 _atom_site_fract_z
 _atom_site_occupancy
  Al  Al0  1  0.74999999  0.49047901  0.32836201  1
  Al  Al1  1  0.25000000  0.50952101  0.67163802  1
  Al  Al2  1  0.74999999  0.99047903  0.17163801  1
  Al  Al3  1  0.25000000  0.00952100  0.82836202  1
  Al  Al4  1  0.74999999  0.47914601  0.08742400  1
  Al  Al5  1  0.25000000  0.52085402  0.91257603  1
  Al  Al6  1  0.74999999  0.97914603  0.41257601  1
  Al  Al7  1  0.25000000  0.02085400  0.58742402  1
  Rh  Rh8  1  0.74999999  0.35446301  0.80981502  1
  Rh  Rh9  1  0.25000000  0.64553702  0.19018501  1
  Rh  Rh10  1  0.74999999  0.85446303  0.69018502  1
  Rh  Rh11  1  0.25000000  0.14553700  0.30981501  1
  Rh  Rh12  1  0.74999999  0.30390401  0.53701402  1
  Rh  Rh13  1  0.25000000  0.69609602  0.46298601  1
  Rh  Rh14  1  0.74999999  0.80390402  0.96298603  1
  Rh  Rh15  1  0.25000000  0.19609601  0.03701400  1
