# generated using pymatgen
data_Ce2In4Sn4Ru
_symmetry_space_group_name_H-M   'P 1'
_cell_length_a   4.73513317
_cell_length_b   4.73513317
_cell_length_c   12.42296982
_cell_angle_alpha   90.00000000
_cell_angle_beta   90.00000000
_cell_angle_gamma   90.00000000
_symmetry_Int_Tables_number   1
_chemical_formula_structural   Ce2In4Sn4Ru
_chemical_formula_sum   'Ce2 In4 Sn4 Ru1'
_cell_volume   278.54144569
_cell_formula_units_Z   1
loop_
 _symmetry_equiv_pos_site_id
 _symmetry_equiv_pos_as_xyz
  1  'x, y, z'
loop_
 _atom_site_type_symbol
 _atom_site_label
 _atom_site_symmetry_multiplicity
 _atom_site_fract_x
 _atom_site_fract_y
 _atom_site_fract_z
 _atom_site_occupancy
  Ce  Ce0  1  0.49999998  0.49999998  0.30937400  1
  Ce  Ce1  1  0.49999998  0.49999998  0.69062601  1
  In  In2  1  0.00000000  0.49999998  0.12313200  1
  In  In3  1  0.49999998  0.00000000  0.12313200  1
  In  In4  1  0.00000000  0.00000000  0.30829400  1
  Sn  Sn5  1  0.00000000  0.49999998  0.50000001  1
  Sn  Sn6  1  0.49999998  0.00000000  0.50000001  1
  In  In7  1  0.00000000  0.00000000  0.69170601  1
  Sn  Sn8  1  0.00000000  0.49999998  0.87686801  1
  Sn  Sn9  1  0.49999998  0.00000000  0.87686801  1
  Ru  Ru10  1  0.49999998  0.49999998  0.00000000  1
