# generated using pymatgen
data_ZrTe2
_symmetry_space_group_name_H-M   'P 1'
_cell_length_a   3.69243598
_cell_length_b   5.49406958
_cell_length_c   7.52604294
_cell_angle_alpha   78.54036713
_cell_angle_beta   75.79981232
_cell_angle_gamma   70.36431122
_symmetry_Int_Tables_number   1
_chemical_formula_structural   ZrTe2
_chemical_formula_sum   'Zr2 Te4'
_cell_volume   138.27045400
_cell_formula_units_Z   2
loop_
 _symmetry_equiv_pos_site_id
 _symmetry_equiv_pos_as_xyz
  1  'x, y, z'
loop_
 _atom_site_type_symbol
 _atom_site_label
 _atom_site_symmetry_multiplicity
 _atom_site_fract_x
 _atom_site_fract_y
 _atom_site_fract_z
 _atom_site_occupancy
  Zr  Zr0  1  0.15072702  0.38714898  0.31139701  1
  Zr  Zr1  1  0.84927304  0.61285097  0.68860303  1
  Te  Te2  1  0.85158902  0.26204299  0.03477902  1
  Te  Te3  1  0.14841104  0.73795697  0.96522102  1
  Te  Te4  1  0.59476101  0.19800999  0.61246801  1
  Te  Te5  1  0.40523905  0.80198997  0.38753203  1
