# generated using pymatgen
data_Mn8Ni5N7
_symmetry_space_group_name_H-M   'P 1'
_cell_length_a   2.78836894
_cell_length_b   5.48245001
_cell_length_c   11.51010036
_cell_angle_alpha   90.00000000
_cell_angle_beta   90.00000000
_cell_angle_gamma   90.00000000
_symmetry_Int_Tables_number   1
_chemical_formula_structural   Mn8Ni5N7
_chemical_formula_sum   'Mn8 Ni5 N7'
_cell_volume   175.95597840
_cell_formula_units_Z   1
loop_
 _symmetry_equiv_pos_site_id
 _symmetry_equiv_pos_as_xyz
  1  'x, y, z'
loop_
 _atom_site_type_symbol
 _atom_site_label
 _atom_site_symmetry_multiplicity
 _atom_site_fract_x
 _atom_site_fract_y
 _atom_site_fract_z
 _atom_site_occupancy
  Mn  Mn0  1  0.75000002  0.51669300  0.09683400  1
  Mn  Mn1  1  0.25000001  0.48330700  0.90316597  1
  Mn  Mn2  1  0.75000002  0.01669300  0.40316599  1
  Mn  Mn3  1  0.25000001  0.98330700  0.59683398  1
  Mn  Mn4  1  0.25000001  0.31644100  0.27364299  1
  Mn  Mn5  1  0.75000002  0.68355900  0.72635698  1
  Mn  Mn6  1  0.25000001  0.81644100  0.22635699  1
  Mn  Mn7  1  0.75000002  0.18355900  0.77364298  1
  Ni  Ni8  1  0.25000001  0.63372800  0.43177399  1
  Ni  Ni9  1  0.75000002  0.36627200  0.56822598  1
  Ni  Ni10  1  0.25000001  0.13372800  0.06822600  1
  Ni  Ni11  1  0.75000002  0.86627200  0.93177397  1
  Ni  Ni12  1  0.75000002  0.10133300  0.20230599  1
  N  N13  1  0.25000001  0.89866700  0.79769397  1
  N  N14  1  0.75000002  0.60133300  0.29769399  1
  N  N15  1  0.25000001  0.39866700  0.70230598  1
  N  N16  1  0.25000001  0.26290900  0.45096599  1
  N  N17  1  0.75000002  0.73709100  0.54903398  1
  N  N18  1  0.25000001  0.76290900  0.04903400  1
  N  N19  1  0.75000002  0.23709100  0.95096597  1
