# generated using pymatgen
data_TiAlNi10
_symmetry_space_group_name_H-M   'P 1'
_cell_length_a   3.57321811
_cell_length_b   3.57321811
_cell_length_c   10.69683266
_cell_angle_alpha   90.00000000
_cell_angle_beta   90.00000000
_cell_angle_gamma   90.00000000
_symmetry_Int_Tables_number   1
_chemical_formula_structural   TiAlNi10
_chemical_formula_sum   'Ti1 Al1 Ni10'
_cell_volume   136.57595749
_cell_formula_units_Z   1
loop_
 _symmetry_equiv_pos_site_id
 _symmetry_equiv_pos_as_xyz
  1  'x, y, z'
loop_
 _atom_site_type_symbol
 _atom_site_label
 _atom_site_symmetry_multiplicity
 _atom_site_fract_x
 _atom_site_fract_y
 _atom_site_fract_z
 _atom_site_occupancy
  Ti  Ti0  1  0.00000000  0.00000000  0.00000000  1
  Al  Al1  1  0.00000000  0.00000000  0.33339401  1
  Ni  Ni2  1  0.00000000  0.00000000  0.66666669  1
  Ni  Ni3  1  0.49999998  0.49999998  -0.00000000  1
  Ni  Ni4  1  0.49999998  0.49999998  0.33073101  1
  Ni  Ni5  1  0.49999998  0.49999998  0.66926902  1
  Ni  Ni6  1  0.49999998  0.00000000  0.16168201  1
  Ni  Ni7  1  0.49999998  0.00000000  0.50000002  1
  Ni  Ni8  1  0.49999998  0.00000000  0.83831803  1
  Ni  Ni9  1  0.00000000  0.49999998  0.16168201  1
  Ni  Ni10  1  0.00000000  0.49999998  0.50000002  1
  Ni  Ni11  1  0.00000000  0.49999998  0.83831803  1
