# generated using pymatgen
data_CeGa3Ir
_symmetry_space_group_name_H-M   'P 1'
_cell_length_a   4.30988979
_cell_length_b   4.30988979
_cell_length_c   6.16412401
_cell_angle_alpha   110.46252441
_cell_angle_beta   110.46252441
_cell_angle_gamma   90.00000000
_symmetry_Int_Tables_number   1
_chemical_formula_structural   CeGa3Ir
_chemical_formula_sum   'Ce1 Ga3 Ir1'
_cell_volume   99.52684400
_cell_formula_units_Z   1
loop_
 _symmetry_equiv_pos_site_id
 _symmetry_equiv_pos_as_xyz
  1  'x, y, z'
loop_
 _atom_site_type_symbol
 _atom_site_label
 _atom_site_symmetry_multiplicity
 _atom_site_fract_x
 _atom_site_fract_y
 _atom_site_fract_z
 _atom_site_occupancy
  Ce  Ce0  1  0.99752601  0.99752603  0.99505196  1
  Ga  Ga1  1  0.40279900  0.40279901  0.80559799  1
  Ga  Ga2  1  0.24650499  0.74650502  0.49300998  1
  Ga  Ga3  1  0.74650502  0.24650501  0.49300998  1
  Ir  Ir4  1  0.63066501  0.63066502  0.26132997  1
