# generated using pymatgen
data_La(AlCu)2
_symmetry_space_group_name_H-M   'P 1'
_cell_length_a   4.34506702
_cell_length_b   4.34506702
_cell_length_c   6.18891859
_cell_angle_alpha   110.55068970
_cell_angle_beta   110.55070496
_cell_angle_gamma   90.00000000
_symmetry_Int_Tables_number   1
_chemical_formula_structural   La(AlCu)2
_chemical_formula_sum   'La1 Al2 Cu2'
_cell_volume   101.42920351
_cell_formula_units_Z   1
loop_
 _symmetry_equiv_pos_site_id
 _symmetry_equiv_pos_as_xyz
  1  'x, y, z'
loop_
 _atom_site_type_symbol
 _atom_site_label
 _atom_site_symmetry_multiplicity
 _atom_site_fract_x
 _atom_site_fract_y
 _atom_site_fract_z
 _atom_site_occupancy
  La  La0  1  0.00000000  0.00000000  0.00000000  1
  Al  Al1  1  0.38500100  0.38500099  0.77000197  1
  Al  Al2  1  0.61499900  0.61499898  0.22999798  1
  Cu  Cu3  1  0.75000000  0.24999999  0.49999999  1
  Cu  Cu4  1  0.25000000  0.74999998  0.49999996  1
