# generated using pymatgen
data_Sr4Cu(BiO6)2
_symmetry_space_group_name_H-M   'P 1'
_cell_length_a   3.87998295
_cell_length_b   3.89488196
_cell_length_c   18.58130455
_cell_angle_alpha   96.01601410
_cell_angle_beta   95.99291992
_cell_angle_gamma   90.00000000
_symmetry_Int_Tables_number   1
_chemical_formula_structural   Sr4Cu(BiO6)2
_chemical_formula_sum   'Sr4 Cu1 Bi2 O12'
_cell_volume   277.71241735
_cell_formula_units_Z   1
loop_
 _symmetry_equiv_pos_site_id
 _symmetry_equiv_pos_as_xyz
  1  'x, y, z'
loop_
 _atom_site_type_symbol
 _atom_site_label
 _atom_site_symmetry_multiplicity
 _atom_site_fract_x
 _atom_site_fract_y
 _atom_site_fract_z
 _atom_site_occupancy
  Sr  Sr0  1  0.14119900  0.13816500  0.28239800  1
  Sr  Sr1  1  0.85880100  0.85576700  0.71760201  1
  Sr  Sr2  1  0.04447100  0.04441200  0.08894300  1
  Sr  Sr3  1  0.95552901  0.95546900  0.91105701  1
  Cu  Cu4  1  0.71865600  0.73255300  0.43731200  1
  Bi  Bi5  1  0.28134400  0.29524100  0.56268801  1
  O  O6  1  0.50000000  0.50004200  -0.00000001  1
  Bi  Bi7  1  0.58648900  0.58596900  0.17297800  1
  O  O8  1  0.41351100  0.41299000  0.82702201  1
  O  O9  1  0.66277600  0.65292100  0.32555200  1
  O  O10  1  0.33722400  0.32736900  0.67444801  1
  O  O11  1  0.08679200  0.58651700  0.17358400  1
  O  O12  1  0.58683701  0.08632800  0.17367400  1
  O  O13  1  0.91320801  0.41293300  0.82641601  1
  O  O14  1  0.41316300  0.91265400  0.82632601  1
  O  O15  1  -0.00000000  0.49998600  1.00000002  1
  O  O16  1  0.50000001  0.00002900  -0.00000000  1
  O  O17  1  0.77527700  0.67460500  0.55055300  1
  O  O18  1  0.22472300  0.12405300  0.44944701  1
