# generated using pymatgen
data_CuSnSeS5
_symmetry_space_group_name_H-M   'P 1'
_cell_length_a   5.63588381
_cell_length_b   5.63588381
_cell_length_c   6.19626951
_cell_angle_alpha   62.94919586
_cell_angle_beta   62.94919586
_cell_angle_gamma   60.00000381
_symmetry_Int_Tables_number   1
_chemical_formula_structural   CuSnSeS5
_chemical_formula_sum   'Cu1 Sn1 Se1 S5'
_cell_volume   145.05215494
_cell_formula_units_Z   1
loop_
 _symmetry_equiv_pos_site_id
 _symmetry_equiv_pos_as_xyz
  1  'x, y, z'
loop_
 _atom_site_type_symbol
 _atom_site_label
 _atom_site_symmetry_multiplicity
 _atom_site_fract_x
 _atom_site_fract_y
 _atom_site_fract_z
 _atom_site_occupancy
  Cu  Cu0  1  0.50000001  0.49999999  0.49999998  1
  Sn  Sn1  1  0.00000000  0.00000000  0.00000000  1
  Se  Se2  1  0.75644900  0.10813700  0.76861397  1
  S  S3  1  0.10813701  0.36679999  0.76861398  1
  S  S4  1  0.36680001  0.75644899  0.76861397  1
  S  S5  1  0.63320000  0.24355100  0.23138599  1
  S  S6  1  0.89186300  0.63319999  0.23138598  1
  S  S7  1  0.24355102  0.89186299  0.23138598  1
