# generated using pymatgen
data_Tb3Ga8SnIr2
_symmetry_space_group_name_H-M   'P 1'
_cell_length_a   4.43159580
_cell_length_b   8.31032658
_cell_length_c   8.31032658
_cell_angle_alpha   69.30034637
_cell_angle_beta   74.53605652
_cell_angle_gamma   74.53605652
_symmetry_Int_Tables_number   1
_chemical_formula_structural   Tb3Ga8SnIr2
_chemical_formula_sum   'Tb3 Ga8 Sn1 Ir2'
_cell_volume   270.84070479
_cell_formula_units_Z   1
loop_
 _symmetry_equiv_pos_site_id
 _symmetry_equiv_pos_as_xyz
  1  'x, y, z'
loop_
 _atom_site_type_symbol
 _atom_site_label
 _atom_site_symmetry_multiplicity
 _atom_site_fract_x
 _atom_site_fract_y
 _atom_site_fract_z
 _atom_site_occupancy
  Tb  Tb0  1  0.50000000  0.49999998  0.50000002  1
  Tb  Tb1  1  0.79668403  0.20331599  0.20331600  1
  Tb  Tb2  1  0.20331597  0.79668397  0.79668404  1
  Ga  Ga3  1  0.64349503  0.07504600  0.63796398  1
  Ga  Ga4  1  0.35650497  0.92495396  0.36203606  1
  Ga  Ga5  1  0.64349500  0.63796397  0.07504604  1
  Ga  Ga6  1  0.35650500  0.36203599  0.92495400  1
  Ga  Ga7  1  0.84173900  0.79095397  0.52556804  1
  Ga  Ga8  1  0.15826100  0.20904599  0.47443200  1
  Ga  Ga9  1  0.84173901  0.52556798  0.79095401  1
  Ga  Ga10  1  0.15826098  0.47443198  0.20904603  1
  Sn  Sn11  1  0.50000003  0.00000000  -0.00000001  1
  Ir  Ir12  1  -0.00000004  0.80963197  0.19036806  1
  Ir  Ir13  1  -0.00000001  0.19036799  0.80963200  1
