# generated using pymatgen
data_Nd5Dy(Zn3N4)2
_symmetry_space_group_name_H-M   'P 1'
_cell_length_a   5.09909487
_cell_length_b   6.55956697
_cell_length_c   9.81676388
_cell_angle_alpha   90.00000000
_cell_angle_beta   90.00000000
_cell_angle_gamma   90.00000000
_symmetry_Int_Tables_number   1
_chemical_formula_structural   Nd5Dy(Zn3N4)2
_chemical_formula_sum   'Nd5 Dy1 Zn6 N8'
_cell_volume   328.34968783
_cell_formula_units_Z   1
loop_
 _symmetry_equiv_pos_site_id
 _symmetry_equiv_pos_as_xyz
  1  'x, y, z'
loop_
 _atom_site_type_symbol
 _atom_site_label
 _atom_site_symmetry_multiplicity
 _atom_site_fract_x
 _atom_site_fract_y
 _atom_site_fract_z
 _atom_site_occupancy
  Nd  Nd0  1  0.25000001  0.46733700  0.78364301  1
  Nd  Nd1  1  0.75000002  0.03266300  0.28364300  1
  Nd  Nd2  1  0.25000001  0.96733700  0.71635701  1
  Nd  Nd3  1  0.75000002  0.53266300  0.21635700  1
  Nd  Nd4  1  0.25000001  0.82084600  0.05640700  1
  Dy  Dy5  1  0.75000002  0.67915400  0.55640701  1
  Zn  Zn6  1  0.25000001  0.32084600  0.44359301  1
  Zn  Zn7  1  0.75000002  0.17915400  0.94359301  1
  Zn  Zn8  1  0.25000001  0.28013900  0.13293700  1
  Zn  Zn9  1  0.75000002  0.21986100  0.63293701  1
  Zn  Zn10  1  0.25000001  0.78013900  0.36706300  1
  Zn  Zn11  1  0.75000002  0.71986100  0.86706301  1
  N  N12  1  0.25000001  0.17572700  0.94854601  1
  N  N13  1  0.75000002  0.82427300  0.05145400  1
  N  N14  1  0.25000001  0.67572700  0.55145401  1
  N  N15  1  0.75000002  0.32427300  0.44854601  1
  N  N16  1  0.25000001  0.04696300  0.25905100  1
  N  N17  1  0.75000002  0.45303700  0.75905101  1
  N  N18  1  0.25000001  0.54696300  0.24094900  1
  N  N19  1  0.75000002  0.95303700  0.74094901  1
