# generated using pymatgen
data_Mn2Cu3PdF12
_symmetry_space_group_name_H-M   'P 1'
_cell_length_a   5.40623999
_cell_length_b   5.40623999
_cell_length_c   7.71885824
_cell_angle_alpha   90.00000000
_cell_angle_beta   90.00000000
_cell_angle_gamma   90.82678223
_symmetry_Int_Tables_number   1
_chemical_formula_structural   Mn2Cu3PdF12
_chemical_formula_sum   'Mn2 Cu3 Pd1 F12'
_cell_volume   225.57890721
_cell_formula_units_Z   1
loop_
 _symmetry_equiv_pos_site_id
 _symmetry_equiv_pos_as_xyz
  1  'x, y, z'
loop_
 _atom_site_type_symbol
 _atom_site_label
 _atom_site_symmetry_multiplicity
 _atom_site_fract_x
 _atom_site_fract_y
 _atom_site_fract_z
 _atom_site_occupancy
  Mn  Mn0  1  0.01462351  0.98537653  -0.00000000  1
  Mn  Mn1  1  0.48471126  0.51528876  0.50000000  1
  Cu  Cu2  1  0.99991842  0.49751333  0.74905577  1
  Cu  Cu3  1  0.99991842  0.49751333  0.25094424  1
  Cu  Cu4  1  0.50248667  0.00008160  0.25094424  1
  Pd  Pd5  1  0.50248667  0.00008160  0.74905577  1
  F  F6  1  0.20523783  0.20440484  0.75258493  1
  F  F7  1  0.79559519  0.79476218  0.75258493  1
  F  F8  1  0.79559519  0.79476218  0.24741508  1
  F  F9  1  0.20523783  0.20440484  0.24741508  1
  F  F10  1  0.69654541  0.30345460  0.69843345  1
  F  F11  1  0.28877980  0.71122023  0.78823728  1
  F  F12  1  0.28877980  0.71122023  0.21176273  1
  F  F13  1  0.69654541  0.30345460  0.30156656  1
  F  F14  1  0.95413138  0.46122990  -0.00000000  1
  F  F15  1  0.06612927  0.52809185  0.50000000  1
  F  F16  1  0.53877010  0.04586864  -0.00000000  1
  F  F17  1  0.47190819  0.93387074  0.50000000  1
