# generated using pymatgen
data_NdFe3P13
_symmetry_space_group_name_H-M   'P 1'
_cell_length_a   6.77132607
_cell_length_b   6.77132607
_cell_length_c   6.77132607
_cell_angle_alpha   109.47122192
_cell_angle_beta   109.47122192
_cell_angle_gamma   109.47122192
_symmetry_Int_Tables_number   1
_chemical_formula_structural   NdFe3P13
_chemical_formula_sum   'Nd1 Fe3 P13'
_cell_volume   239.00075353
_cell_formula_units_Z   1
loop_
 _symmetry_equiv_pos_site_id
 _symmetry_equiv_pos_as_xyz
  1  'x, y, z'
loop_
 _atom_site_type_symbol
 _atom_site_label
 _atom_site_symmetry_multiplicity
 _atom_site_fract_x
 _atom_site_fract_y
 _atom_site_fract_z
 _atom_site_occupancy
  Nd  Nd0  1  0.00000000  0.00000000  0.00000000  1
  Fe  Fe1  1  0.50000005  0.50000003  0.50000005  1
  Fe  Fe2  1  0.00000003  0.50000003  0.00000003  1
  Fe  Fe3  1  0.00000000  0.00000000  0.50000001  1
  P  P4  1  0.50000008  1.00000006  1.00000009  1
  P  P5  1  0.50526002  0.15183101  0.35343003  1
  P  P6  1  0.79840103  0.15183001  0.64657104  1
  P  P7  1  0.20159906  0.84817005  0.35342906  1
  P  P8  1  0.84817005  0.35343002  0.20159904  1
  P  P9  1  0.64657107  0.79840105  0.15183106  1
  P  P10  1  0.49474007  0.84816905  0.64657007  1
  P  P11  1  0.84817006  0.64657104  0.49474107  1
  P  P12  1  0.64657105  0.49474103  0.84817006  1
  P  P13  1  0.15183005  0.64657004  0.79840105  1
  P  P14  1  0.35342904  0.50525903  0.15183004  1
  P  P15  1  0.15183003  0.35342902  0.50525903  1
  P  P16  1  0.35342902  0.20159901  0.84816904  1
