# generated using pymatgen
data_Cr(AgS)3
_symmetry_space_group_name_H-M   'P 1'
_cell_length_a   7.55212116
_cell_length_b   7.57357264
_cell_length_c   7.64310598
_cell_angle_alpha   92.19031525
_cell_angle_beta   117.77250671
_cell_angle_gamma   118.51631927
_symmetry_Int_Tables_number   1
_chemical_formula_structural   Cr(AgS)3
_chemical_formula_sum   'Cr2 Ag6 S6'
_cell_volume   320.20092199
_cell_formula_units_Z   2
loop_
 _symmetry_equiv_pos_site_id
 _symmetry_equiv_pos_as_xyz
  1  'x, y, z'
loop_
 _atom_site_type_symbol
 _atom_site_label
 _atom_site_symmetry_multiplicity
 _atom_site_fract_x
 _atom_site_fract_y
 _atom_site_fract_z
 _atom_site_occupancy
  Cr  Cr0  1  0.98160401  0.48604704  0.50450001  1
  Ag  Ag1  1  0.88163799  0.25894702  0.88896498  1
  Ag  Ag2  1  0.45422300  0.19641402  0.08629700  1
  Cr  Cr3  1  0.06376506  0.71402806  0.06384807  1
  Ag  Ag4  1  0.63457403  0.63567005  0.67608303  1
  Ag  Ag5  1  0.08454101  0.19574602  0.30595001  1
  Ag  Ag6  1  0.09409708  0.97324708  0.61455108  1
  Ag  Ag7  1  0.42657799  0.01368600  0.49557298  1
  S  S8  1  0.01574600  0.00930900  0.97875498  1
  S  S9  1  0.52007901  0.28885802  0.77657000  1
  S  S10  1  0.74238198  0.11240301  0.36924698  1
  S  S11  1  0.73045703  0.60636605  0.38449203  1
  S  S12  1  0.20674305  0.59165305  0.86012103  1
  S  S13  1  0.24557005  0.61362505  0.38704804  1
