# generated using pymatgen
data_Ce(GePt)2
_symmetry_space_group_name_H-M   'P 1'
_cell_length_a   4.44939995
_cell_length_b   4.44939995
_cell_length_c   10.10140133
_cell_angle_alpha   90.00000000
_cell_angle_beta   90.00000000
_cell_angle_gamma   90.00000000
_symmetry_Int_Tables_number   1
_chemical_formula_structural   Ce(GePt)2
_chemical_formula_sum   'Ce2 Ge4 Pt4'
_cell_volume   199.97905731
_cell_formula_units_Z   2
loop_
 _symmetry_equiv_pos_site_id
 _symmetry_equiv_pos_as_xyz
  1  'x, y, z'
loop_
 _atom_site_type_symbol
 _atom_site_label
 _atom_site_symmetry_multiplicity
 _atom_site_fract_x
 _atom_site_fract_y
 _atom_site_fract_z
 _atom_site_occupancy
  Ce  Ce0  1  0.00000000  0.50000001  0.23402899  1
  Ce  Ce1  1  0.50000001  0.00000000  0.76597098  1
  Ge  Ge2  1  0.00000000  0.00000000  0.00000000  1
  Ge  Ge3  1  0.50000001  0.50000001  0.00000000  1
  Ge  Ge4  1  0.50000001  0.00000000  0.37241899  1
  Ge  Ge5  1  0.00000000  0.50000001  0.62758098  1
  Pt  Pt6  1  0.50000001  0.00000000  0.12554300  1
  Pt  Pt7  1  0.00000000  0.00000000  0.49999998  1
  Pt  Pt8  1  0.50000001  0.50000001  0.49999998  1
  Pt  Pt9  1  0.00000000  0.50000001  0.87445697  1
