# generated using pymatgen
data_TmRu2
_symmetry_space_group_name_H-M   'P 1'
_cell_length_a   5.37713957
_cell_length_b   5.37713957
_cell_length_c   8.46062374
_cell_angle_alpha   90.00000000
_cell_angle_beta   90.00000000
_cell_angle_gamma   119.98638916
_symmetry_Int_Tables_number   1
_chemical_formula_structural   TmRu2
_chemical_formula_sum   'Tm4 Ru8'
_cell_volume   211.88254439
_cell_formula_units_Z   4
loop_
 _symmetry_equiv_pos_site_id
 _symmetry_equiv_pos_as_xyz
  1  'x, y, z'
loop_
 _atom_site_type_symbol
 _atom_site_label
 _atom_site_symmetry_multiplicity
 _atom_site_fract_x
 _atom_site_fract_y
 _atom_site_fract_z
 _atom_site_occupancy
  Tm  Tm0  1  0.33333338  0.66666669  0.45225901  1
  Tm  Tm1  1  0.66666669  0.33333334  0.56944402  1
  Tm  Tm2  1  0.66666669  0.33333334  0.93055603  1
  Tm  Tm3  1  0.33333338  0.66666669  0.04774100  1
  Ru  Ru4  1  0.32547801  0.16273100  0.25000001  1
  Ru  Ru5  1  0.83725701  0.16274400  0.25000001  1
  Ru  Ru6  1  0.83726904  0.67452202  0.25000001  1
  Ru  Ru7  1  0.99996200  0.00003700  0.51752002  1
  Ru  Ru8  1  0.99996200  0.00003700  0.98248003  1
  Ru  Ru9  1  0.66831805  0.83413002  0.75000002  1
  Ru  Ru10  1  0.16586205  0.83413802  0.75000002  1
  Ru  Ru11  1  0.16587002  0.33168201  0.75000002  1
