# generated using pymatgen
data_Sr3CaFeCoO8
_symmetry_space_group_name_H-M   'P 1'
_cell_length_a   5.47892618
_cell_length_b   5.48005295
_cell_length_c   6.77405882
_cell_angle_alpha   90.00000000
_cell_angle_beta   113.85384369
_cell_angle_gamma   90.00000000
_symmetry_Int_Tables_number   1
_chemical_formula_structural   Sr3CaFeCoO8
_chemical_formula_sum   'Sr3 Ca1 Fe1 Co1 O8'
_cell_volume   186.01624893
_cell_formula_units_Z   1
loop_
 _symmetry_equiv_pos_site_id
 _symmetry_equiv_pos_as_xyz
  1  'x, y, z'
loop_
 _atom_site_type_symbol
 _atom_site_label
 _atom_site_symmetry_multiplicity
 _atom_site_fract_x
 _atom_site_fract_y
 _atom_site_fract_z
 _atom_site_occupancy
  Sr  Sr0  1  0.64136898  0.00000000  0.28273800  1
  Sr  Sr1  1  0.36100399  0.00000000  0.72200801  1
  Sr  Sr2  1  0.85816297  0.50000000  0.71632600  1
  Ca  Ca3  1  0.13868200  0.50000000  0.27736400  1
  Fe  Fe4  1  0.49718698  0.50000000  0.99437401  1
  Co  Co5  1  0.99829196  0.00000000  0.99658401  1
  O  O6  1  0.24821799  0.25484500  0.00631000  1
  O  O7  1  0.75809197  0.74515501  0.00631000  1
  O  O8  1  0.24821799  0.74515501  0.00631000  1
  O  O9  1  0.75809197  0.25484500  0.00631000  1
  O  O10  1  0.84142597  0.00000000  0.68285200  1
  O  O11  1  0.33280599  0.50000000  0.66561201  1
  O  O12  1  0.65846498  0.50000000  0.31693000  1
  O  O13  1  0.15998699  0.00000000  0.31997400  1
