# generated using pymatgen
data_Sc2(ZnAg)3
_symmetry_space_group_name_H-M   'P 1'
_cell_length_a   4.82614803
_cell_length_b   6.00294590
_cell_length_c   6.00294542
_cell_angle_alpha   120.00000000
_cell_angle_beta   90.00000000
_cell_angle_gamma   90.00000000
_symmetry_Int_Tables_number   1
_chemical_formula_structural   Sc2(ZnAg)3
_chemical_formula_sum   'Sc2 Zn3 Ag3'
_cell_volume   150.61218010
_cell_formula_units_Z   1
loop_
 _symmetry_equiv_pos_site_id
 _symmetry_equiv_pos_as_xyz
  1  'x, y, z'
loop_
 _atom_site_type_symbol
 _atom_site_label
 _atom_site_symmetry_multiplicity
 _atom_site_fract_x
 _atom_site_fract_y
 _atom_site_fract_z
 _atom_site_occupancy
  Sc  Sc0  1  0.74999999  0.84196798  0.15803294  1
  Sc  Sc1  1  0.74999999  0.31606499  0.15803298  1
  Ag  Ag2  1  0.74999999  0.84196798  0.68393593  1
  Zn  Zn3  1  0.25000000  0.15803200  0.84196698  1
  Zn  Zn4  1  0.25000000  0.68393499  0.84196694  1
  Zn  Zn5  1  0.25000000  0.15803200  0.31606399  1
  Ag  Ag6  1  0.25000000  0.66666665  0.33333328  1
  Ag  Ag7  1  0.74999999  0.33333333  0.66666664  1
