# generated using pymatgen
data_Mn3BiO6
_symmetry_space_group_name_H-M   'P 1'
_cell_length_a   5.49744129
_cell_length_b   5.49762964
_cell_length_c   5.82316351
_cell_angle_alpha   61.83269119
_cell_angle_beta   61.83406067
_cell_angle_gamma   60.00225067
_symmetry_Int_Tables_number   1
_chemical_formula_structural   Mn3BiO6
_chemical_formula_sum   'Mn3 Bi1 O6'
_cell_volume   127.78580582
_cell_formula_units_Z   1
loop_
 _symmetry_equiv_pos_site_id
 _symmetry_equiv_pos_as_xyz
  1  'x, y, z'
loop_
 _atom_site_type_symbol
 _atom_site_label
 _atom_site_symmetry_multiplicity
 _atom_site_fract_x
 _atom_site_fract_y
 _atom_site_fract_z
 _atom_site_occupancy
  Mn  Mn0  1  0.50718799  0.50718900  0.47839100  1
  Mn  Mn1  1  0.00441200  0.00440800  0.98679496  1
  Mn  Mn2  1  0.30297899  0.30298600  0.09109601  1
  Bi  Bi3  1  0.79107098  0.79116200  0.62659801  1
  O  O4  1  0.61285399  0.89153601  0.26793002  1
  O  O5  1  0.22770300  0.61283900  0.26792600  1
  O  O6  1  0.89156296  0.22769800  0.26786902  1
  O  O7  1  0.71738597  0.35335900  0.78080600  1
  O  O8  1  0.35340399  0.14844700  0.78078598  1
  O  O9  1  0.14843701  0.71737400  0.78080598  1
