# generated using pymatgen
data_Tm2NiGe3
_symmetry_space_group_name_H-M   'P 1'
_cell_length_a   4.32016182
_cell_length_b   6.86019421
_cell_length_c   7.34609795
_cell_angle_alpha   90.00000000
_cell_angle_beta   90.00000000
_cell_angle_gamma   90.00000000
_symmetry_Int_Tables_number   1
_chemical_formula_structural   Tm2NiGe3
_chemical_formula_sum   'Tm4 Ni2 Ge6'
_cell_volume   217.71740002
_cell_formula_units_Z   2
loop_
 _symmetry_equiv_pos_site_id
 _symmetry_equiv_pos_as_xyz
  1  'x, y, z'
loop_
 _atom_site_type_symbol
 _atom_site_label
 _atom_site_symmetry_multiplicity
 _atom_site_fract_x
 _atom_site_fract_y
 _atom_site_fract_z
 _atom_site_occupancy
  Tm  Tm0  1  0.25000001  0.01941600  0.80035901  1
  Tm  Tm1  1  0.25000001  0.51941598  0.69964101  1
  Tm  Tm2  1  0.75000003  0.98058397  0.19964100  1
  Tm  Tm3  1  0.75000003  0.48058399  0.30035900  1
  Ni  Ni4  1  0.25000001  0.18249999  0.42031100  1
  Ge  Ge5  1  0.25000001  0.68249998  0.07968900  1
  Ge  Ge6  1  0.75000003  0.81749998  0.57968900  1
  Ni  Ni7  1  0.75000003  0.31749999  0.92031101  1
  Ge  Ge8  1  0.25000001  0.79457098  0.40814800  1
  Ge  Ge9  1  0.25000001  0.29457099  0.09185200  1
  Ge  Ge10  1  0.75000003  0.20542899  0.59185200  1
  Ge  Ge11  1  0.75000003  0.70542898  0.90814801  1
