# generated using pymatgen
data_K3Zr3Ga2F12
_symmetry_space_group_name_H-M   'P 1'
_cell_length_a   6.99970102
_cell_length_b   7.18350649
_cell_length_c   9.17673111
_cell_angle_alpha   86.55022430
_cell_angle_beta   87.95477295
_cell_angle_gamma   87.71730042
_symmetry_Int_Tables_number   1
_chemical_formula_structural   K3Zr3Ga2F12
_chemical_formula_sum   'K3 Zr3 Ga2 F12'
_cell_volume   459.96996100
_cell_formula_units_Z   1
loop_
 _symmetry_equiv_pos_site_id
 _symmetry_equiv_pos_as_xyz
  1  'x, y, z'
loop_
 _atom_site_type_symbol
 _atom_site_label
 _atom_site_symmetry_multiplicity
 _atom_site_fract_x
 _atom_site_fract_y
 _atom_site_fract_z
 _atom_site_occupancy
  K  K0  1  0.47172702  0.39715699  0.27899196  1
  K  K1  1  0.52827303  0.60284299  0.72100795  1
  K  K2  1  0.97838801  0.11795600  0.74771395  1
  Zr  Zr3  1  0.02161205  0.88204398  0.25228596  1
  Zr  Zr4  1  0.35055005  0.96181498  0.97276694  1
  Zr  Zr5  1  0.64945000  0.03818500  0.02723297  1
  Ga  Ga6  1  0.93483702  0.39302499  0.43515194  1
  Ga  Ga7  1  0.06516303  0.60697499  0.56484797  1
  F  F8  1  0.12776702  0.47561599  0.75900397  1
  F  F9  1  0.83475404  0.83713699  0.95047993  1
  F  F10  1  0.29036104  0.70163099  0.43878196  1
  F  F11  1  0.87223303  0.52438399  0.24099594  1
  F  F12  1  0.85920504  0.81862199  0.56187893  1
  F  F13  1  0.70963901  0.29836899  0.56121795  1
  F  F14  1  0.14079501  0.18137800  0.43812098  1
  F  F15  1  0.34779305  0.96738798  0.75111594  1
  F  F16  1  0.29900804  0.71223699  0.07579896  1
  F  F17  1  0.70099201  0.28776300  0.92420095  1
  F  F18  1  0.65220700  0.03261200  0.24888397  1
  F  F19  1  0.16524601  0.16286300  0.04951999  1
