# generated using pymatgen
data_Ce2Si3Pt5
_symmetry_space_group_name_H-M   'P 1'
_cell_length_a   4.21705389
_cell_length_b   4.21705389
_cell_length_c   10.20012379
_cell_angle_alpha   90.00000000
_cell_angle_beta   90.00000000
_cell_angle_gamma   90.00000000
_symmetry_Int_Tables_number   1
_chemical_formula_structural   Ce2Si3Pt5
_chemical_formula_sum   'Ce2 Si3 Pt5'
_cell_volume   181.39434520
_cell_formula_units_Z   1
loop_
 _symmetry_equiv_pos_site_id
 _symmetry_equiv_pos_as_xyz
  1  'x, y, z'
loop_
 _atom_site_type_symbol
 _atom_site_label
 _atom_site_symmetry_multiplicity
 _atom_site_fract_x
 _atom_site_fract_y
 _atom_site_fract_z
 _atom_site_occupancy
  Ce  Ce0  1  0.00000000  0.50000001  0.25625301  1
  Ce  Ce1  1  0.50000001  0.00000000  0.74374702  1
  Si  Si2  1  0.00000000  0.00000000  0.50000001  1
  Si  Si3  1  0.50000001  0.50000001  0.50000001  1
  Si  Si4  1  0.00000000  0.50000001  0.86797902  1
  Pt  Pt5  1  0.50000001  0.00000000  0.13202100  1
  Pt  Pt6  1  0.00000000  0.00000000  0.00000000  1
  Pt  Pt7  1  0.50000001  0.50000001  -0.00000000  1
  Pt  Pt8  1  0.00000000  0.50000001  0.63080401  1
  Pt  Pt9  1  0.50000001  0.00000000  0.36919601  1
