# generated using pymatgen
data_La2Ge5Ru4
_symmetry_space_group_name_H-M   'P 1'
_cell_length_a   4.09040785
_cell_length_b   7.67755795
_cell_length_c   7.67755795
_cell_angle_alpha   120.00000000
_cell_angle_beta   90.00000000
_cell_angle_gamma   90.00000000
_symmetry_Int_Tables_number   1
_chemical_formula_structural   La2Ge5Ru4
_chemical_formula_sum   'La2 Ge5 Ru4'
_cell_volume   208.80622916
_cell_formula_units_Z   1
loop_
 _symmetry_equiv_pos_site_id
 _symmetry_equiv_pos_as_xyz
  1  'x, y, z'
loop_
 _atom_site_type_symbol
 _atom_site_label
 _atom_site_symmetry_multiplicity
 _atom_site_fract_x
 _atom_site_fract_y
 _atom_site_fract_z
 _atom_site_occupancy
  La  La0  1  -0.00000000  0.33333333  0.66666664  1
  La  La1  1  -0.00000000  0.66666666  0.33333331  1
  Ge  Ge2  1  0.50000002  0.28133000  0.28132999  1
  Ge  Ge3  1  0.50000002  0.00000000  0.71866998  1
  Ru  Ru4  1  1.00000004  0.80963800  0.80963797  1
  Ru  Ru5  1  -0.00000000  0.19036200  0.99999997  1
  Ru  Ru6  1  0.50000002  0.71867000  -0.00000001  1
  Ru  Ru7  1  0.00000000  0.00000000  0.19036200  1
  Ge  Ge8  1  0.50000002  0.61128700  0.61128697  1
  Ge  Ge9  1  0.50000002  0.38871300  -0.00000001  1
  Ge  Ge10  1  0.50000002  0.00000000  0.38871299  1
