# generated using pymatgen
data_AlCr3CuMoS8
_symmetry_space_group_name_H-M   'P 1'
_cell_length_a   7.31423283
_cell_length_b   7.31423283
_cell_length_c   7.31423330
_cell_angle_alpha   60.15786743
_cell_angle_beta   60.15786743
_cell_angle_gamma   60.15787506
_symmetry_Int_Tables_number   1
_chemical_formula_structural   AlCr3CuMoS8
_chemical_formula_sum   'Al1 Cr3 Cu1 Mo1 S8'
_cell_volume   277.67803132
_cell_formula_units_Z   1
loop_
 _symmetry_equiv_pos_site_id
 _symmetry_equiv_pos_as_xyz
  1  'x, y, z'
loop_
 _atom_site_type_symbol
 _atom_site_label
 _atom_site_symmetry_multiplicity
 _atom_site_fract_x
 _atom_site_fract_y
 _atom_site_fract_z
 _atom_site_occupancy
  Cr  Cr0  1  0.00000000  0.00000000  0.00000000  1
  Al  Al1  1  0.61990300  0.61990302  0.61990296  1
  Cr  Cr2  1  0.38009700  0.38009701  0.38009698  1
  Cr  Cr3  1  -0.00000001  0.50000002  -0.00000001  1
  Mo  Mo4  1  0.00000000  0.00000000  0.49999999  1
  Cu  Cu5  1  0.50000001  0.00000000  -0.00000001  1
  S  S6  1  0.74915700  0.74915703  0.74915696  1
  S  S7  1  0.76949002  0.22935601  0.76948996  1
  S  S8  1  0.76949000  0.76949003  0.22935597  1
  S  S9  1  0.22935599  0.76949003  0.76948996  1
  S  S10  1  0.25084300  0.25084301  0.25084298  1
  S  S11  1  0.23050999  0.77064403  0.23050998  1
  S  S12  1  0.23051000  0.23051001  0.77064397  1
  S  S13  1  0.77064402  0.23051001  0.23050998  1
