# generated using pymatgen
data_Al7Zn13
_symmetry_space_group_name_H-M   'P 1'
_cell_length_a   4.33620501
_cell_length_b   4.49819708
_cell_length_c   13.03164291
_cell_angle_alpha   90.00000000
_cell_angle_beta   90.00000000
_cell_angle_gamma   90.00000000
_symmetry_Int_Tables_number   1
_chemical_formula_structural   Al7Zn13
_chemical_formula_sum   'Al7 Zn13'
_cell_volume   254.18355930
_cell_formula_units_Z   1
loop_
 _symmetry_equiv_pos_site_id
 _symmetry_equiv_pos_as_xyz
  1  'x, y, z'
loop_
 _atom_site_type_symbol
 _atom_site_label
 _atom_site_symmetry_multiplicity
 _atom_site_fract_x
 _atom_site_fract_y
 _atom_site_fract_z
 _atom_site_occupancy
  Al  Al0  1  0.25000000  0.15917900  0.59671000  1
  Al  Al1  1  0.25000000  0.65917899  0.90329001  1
  Al  Al2  1  0.75000000  0.84082099  0.40329000  1
  Al  Al3  1  0.75000000  0.34082099  0.09671000  1
  Al  Al4  1  0.25000000  0.16344600  0.00303900  1
  Zn  Zn5  1  0.25000000  0.66344599  0.49696100  1
  Al  Al6  1  0.75000000  0.83655399  0.99696101  1
  Al  Al7  1  0.75000000  0.33655399  0.50303900  1
  Zn  Zn8  1  0.25000000  0.16362100  0.79866801  1
  Zn  Zn9  1  0.25000000  0.66362099  0.70133200  1
  Zn  Zn10  1  0.75000000  0.83637899  0.20133200  1
  Zn  Zn11  1  0.75000000  0.33637899  0.29866800  1
  Zn  Zn12  1  0.25000000  0.17893500  0.39529900  1
  Zn  Zn13  1  0.25000000  0.67893499  0.10470100  1
  Zn  Zn14  1  0.75000000  0.82106499  0.60470100  1
  Zn  Zn15  1  0.75000000  0.32106499  0.89529901  1
  Zn  Zn16  1  0.25000000  0.16795900  0.20224000  1
  Zn  Zn17  1  0.25000000  0.66795899  0.29776000  1
  Zn  Zn18  1  0.75000000  0.83204099  0.79776001  1
  Zn  Zn19  1  0.75000000  0.33204099  0.70224000  1
