# generated using pymatgen
data_Li4V(TeO4)3
_symmetry_space_group_name_H-M   'P 1'
_cell_length_a   5.20820093
_cell_length_b   5.49377632
_cell_length_c   7.58840990
_cell_angle_alpha   85.69144440
_cell_angle_beta   89.88115692
_cell_angle_gamma   89.85951996
_symmetry_Int_Tables_number   1
_chemical_formula_structural   Li4V(TeO4)3
_chemical_formula_sum   'Li4 V1 Te3 O12'
_cell_volume   216.51017689
_cell_formula_units_Z   1
loop_
 _symmetry_equiv_pos_site_id
 _symmetry_equiv_pos_as_xyz
  1  'x, y, z'
loop_
 _atom_site_type_symbol
 _atom_site_label
 _atom_site_symmetry_multiplicity
 _atom_site_fract_x
 _atom_site_fract_y
 _atom_site_fract_z
 _atom_site_occupancy
  Li  Li0  1  0.99898103  0.58913602  0.26667599  1
  Li  Li1  1  0.50368701  0.05619800  0.80572701  1
  Li  Li2  1  0.00561902  0.58152802  0.80504799  1
  Li  Li3  1  0.49242204  0.99857004  0.23318097  1
  V  V4  1  0.99947601  0.01500600  0.00247501  1
  Te  Te5  1  0.50267502  0.50611802  0.50662099  1
  Te  Te6  1  0.00436000  0.00787500  0.50245100  1
  Te  Te7  1  0.49651502  0.50134602  0.00389699  1
  O  O8  1  0.69132903  0.81251003  0.42645798  1
  O  O9  1  0.87762804  0.98957204  0.73554598  1
  O  O10  1  0.67806601  0.19060501  0.04851900  1
  O  O11  1  0.83180802  0.31104301  0.43155200  1
  O  O12  1  0.20674801  0.30652401  0.93250600  1
  O  O13  1  0.63380002  0.49304102  0.75183400  1
  O  O14  1  0.37005802  0.48991002  0.24639399  1
  O  O15  1  0.79699003  0.68327503  0.05131998  1
  O  O16  1  0.17307102  0.67787303  0.56100698  1
  O  O17  1  0.30266603  0.79065003  0.93779698  1
  O  O18  1  0.11542003  0.97552904  0.25876197  1
  O  O19  1  0.31868201  0.16609001  0.56342800  1
