# generated using pymatgen
data_Er2Co3Si5
_symmetry_space_group_name_H-M   'P 1'
_cell_length_a   5.54201412
_cell_length_b   7.84432220
_cell_length_c   7.84432220
_cell_angle_alpha   75.16900635
_cell_angle_beta   69.31376648
_cell_angle_gamma   69.31376648
_symmetry_Int_Tables_number   1
_chemical_formula_structural   Er2Co3Si5
_chemical_formula_sum   'Er4 Co6 Si10'
_cell_volume   295.09295818
_cell_formula_units_Z   2
loop_
 _symmetry_equiv_pos_site_id
 _symmetry_equiv_pos_as_xyz
  1  'x, y, z'
loop_
 _atom_site_type_symbol
 _atom_site_label
 _atom_site_symmetry_multiplicity
 _atom_site_fract_x
 _atom_site_fract_y
 _atom_site_fract_z
 _atom_site_occupancy
  Er  Er0  1  0.86724693  0.86809500  0.39741199  1
  Er  Er1  1  0.13275299  0.13190500  0.60258799  1
  Er  Er2  1  0.36724697  0.39741200  0.86809499  1
  Er  Er3  1  0.63275295  0.60258800  0.13190499  1
  Co  Co4  1  0.25000000  0.00000000  -0.00000001  1
  Co  Co5  1  0.75000000  0.00000000  -0.00000003  1
  Co  Co6  1  0.63618498  0.25171200  0.47591698  1
  Co  Co7  1  0.36381494  0.74828800  0.52408301  1
  Co  Co8  1  0.13618496  0.47591700  0.25171201  1
  Co  Co9  1  0.86381496  0.52408300  0.74828798  1
  Si  Si10  1  0.24999996  0.50000000  0.50000000  1
  Si  Si11  1  0.74999996  0.50000000  0.49999998  1
  Si  Si12  1  0.01876198  0.23123800  0.23123800  1
  Si  Si13  1  0.48123794  0.76876200  0.76876200  1
  Si  Si14  1  0.98123794  0.76876200  0.76876198  1
  Si  Si15  1  0.51876198  0.23123800  0.23123799  1
  Si  Si16  1  0.60287799  0.05253600  0.74170897  1
  Si  Si17  1  0.39712192  0.94746400  0.25829101  1
  Si  Si18  1  0.10287794  0.74170900  0.05253602  1
  Si  Si19  1  0.89712198  0.25829100  0.94746396  1
