# generated using pymatgen
data_Zr4Ga
_symmetry_space_group_name_H-M   'P 1'
_cell_length_a   3.35442710
_cell_length_b   3.35442710
_cell_length_c   17.66164970
_cell_angle_alpha   90.00000000
_cell_angle_beta   90.00000000
_cell_angle_gamma   90.00000000
_symmetry_Int_Tables_number   1
_chemical_formula_structural   Zr4Ga
_chemical_formula_sum   'Zr8 Ga2'
_cell_volume   198.73208212
_cell_formula_units_Z   2
loop_
 _symmetry_equiv_pos_site_id
 _symmetry_equiv_pos_as_xyz
  1  'x, y, z'
loop_
 _atom_site_type_symbol
 _atom_site_label
 _atom_site_symmetry_multiplicity
 _atom_site_fract_x
 _atom_site_fract_y
 _atom_site_fract_z
 _atom_site_occupancy
  Zr  Zr0  1  0.49999999  0.49999999  0.00000000  1
  Zr  Zr1  1  0.00000000  0.00000000  0.89132396  1
  Zr  Zr2  1  0.00000000  0.00000000  0.10867600  1
  Zr  Zr3  1  0.00000000  0.00000000  0.30410899  1
  Zr  Zr4  1  0.00000000  0.00000000  0.49999998  1
  Zr  Zr5  1  0.00000000  0.00000000  0.69589097  1
  Zr  Zr6  1  0.49999999  0.49999999  0.20380599  1
  Zr  Zr7  1  0.49999999  0.49999999  0.40153298  1
  Ga  Ga8  1  0.49999999  0.49999999  0.59846698  1
  Ga  Ga9  1  0.49999999  0.49999999  0.79619397  1
