# generated using pymatgen
data_In5Ni3
_symmetry_space_group_name_H-M   'P 1'
_cell_length_a   4.89063787
_cell_length_b   5.09781408
_cell_length_c   6.60766983
_cell_angle_alpha   90.00000000
_cell_angle_beta   90.00000000
_cell_angle_gamma   90.00000000
_symmetry_Int_Tables_number   1
_chemical_formula_structural   In5Ni3
_chemical_formula_sum   'In5 Ni3'
_cell_volume   164.73953423
_cell_formula_units_Z   1
loop_
 _symmetry_equiv_pos_site_id
 _symmetry_equiv_pos_as_xyz
  1  'x, y, z'
loop_
 _atom_site_type_symbol
 _atom_site_label
 _atom_site_symmetry_multiplicity
 _atom_site_fract_x
 _atom_site_fract_y
 _atom_site_fract_z
 _atom_site_occupancy
  In  In0  1  0.75000002  0.68578099  0.20717901  1
  In  In1  1  0.75000002  0.81421899  0.70717902  1
  In  In2  1  0.25000001  0.31421899  0.79282102  1
  In  In3  1  0.25000001  0.18578100  0.29282101  1
  Ni  Ni4  1  0.75000002  0.29979700  0.45448301  1
  In  In5  1  0.75000002  0.20020300  0.95448302  1
  Ni  Ni6  1  0.25000001  0.70020299  0.54551701  1
  Ni  Ni7  1  0.25000001  0.79979699  0.04551700  1
