# generated using pymatgen
data_Al2GePd7
_symmetry_space_group_name_H-M   'P 1'
_cell_length_a   4.11814404
_cell_length_b   5.53947639
_cell_length_c   7.18704224
_cell_angle_alpha   104.38509369
_cell_angle_beta   106.64839935
_cell_angle_gamma   90.00000000
_symmetry_Int_Tables_number   1
_chemical_formula_structural   Al2GePd7
_chemical_formula_sum   'Al2 Ge1 Pd7'
_cell_volume   151.70764163
_cell_formula_units_Z   1
loop_
 _symmetry_equiv_pos_site_id
 _symmetry_equiv_pos_as_xyz
  1  'x, y, z'
loop_
 _atom_site_type_symbol
 _atom_site_label
 _atom_site_symmetry_multiplicity
 _atom_site_fract_x
 _atom_site_fract_y
 _atom_site_fract_z
 _atom_site_occupancy
  Al  Al0  1  0.00000000  0.00000000  0.00000000  1
  Al  Al1  1  0.80899097  0.33772200  0.61798198  1
  Ge  Ge2  1  0.19100897  0.66227799  0.38201797  1
  Pd  Pd3  1  -0.00000002  0.49999999  -0.00000003  1
  Pd  Pd4  1  0.79388795  0.86154599  0.58777595  1
  Pd  Pd5  1  0.20611199  0.13845400  0.41222400  1
  Pd  Pd6  1  0.62561497  0.38508500  0.25122997  1
  Pd  Pd7  1  0.37438497  0.61491499  0.74876998  1
  Pd  Pd8  1  0.58217295  0.85544699  0.16434595  1
  Pd  Pd9  1  0.41782699  0.14455300  0.83565400  1
