# generated using pymatgen
data_ZnInAgS4
_symmetry_space_group_name_H-M   'P 1'
_cell_length_a   5.63194609
_cell_length_b   5.63194609
_cell_length_c   6.78762436
_cell_angle_alpha   114.51104736
_cell_angle_beta   114.51104736
_cell_angle_gamma   90.00000000
_symmetry_Int_Tables_number   1
_chemical_formula_structural   ZnInAgS4
_chemical_formula_sum   'Zn1 In1 Ag1 S4'
_cell_volume   174.34514938
_cell_formula_units_Z   1
loop_
 _symmetry_equiv_pos_site_id
 _symmetry_equiv_pos_as_xyz
  1  'x, y, z'
loop_
 _atom_site_type_symbol
 _atom_site_label
 _atom_site_symmetry_multiplicity
 _atom_site_fract_x
 _atom_site_fract_y
 _atom_site_fract_z
 _atom_site_occupancy
  Zn  Zn0  1  0.24999996  0.74999997  0.49999995  1
  In  In1  1  0.49999996  0.49999998  -0.00000004  1
  Ag  Ag2  1  0.00000000  0.00000000  0.00000000  1
  S  S3  1  0.61932196  0.60517498  0.73590094  1
  S  S4  1  0.39482495  0.88342096  0.26409894  1
  S  S5  1  0.86927396  0.38067798  0.26409895  1
  S  S6  1  0.11657899  0.13072599  0.73590098  1
