# generated using pymatgen
data_Li3V5O8
_symmetry_space_group_name_H-M   'P 1'
_cell_length_a   5.86801147
_cell_length_b   5.86801147
_cell_length_c   5.86801243
_cell_angle_alpha   60.02948761
_cell_angle_beta   60.02948761
_cell_angle_gamma   60.02947998
_symmetry_Int_Tables_number   1
_chemical_formula_structural   Li3V5O8
_chemical_formula_sum   'Li3 V5 O8'
_cell_volume   142.97105138
_cell_formula_units_Z   1
loop_
 _symmetry_equiv_pos_site_id
 _symmetry_equiv_pos_as_xyz
  1  'x, y, z'
loop_
 _atom_site_type_symbol
 _atom_site_label
 _atom_site_symmetry_multiplicity
 _atom_site_fract_x
 _atom_site_fract_y
 _atom_site_fract_z
 _atom_site_occupancy
  Li  Li0  1  0.49999999  0.00000000  0.00000001  1
  Li  Li1  1  -0.00000001  0.50000000  0.00000001  1
  Li  Li2  1  0.00000000  0.00000000  0.49999998  1
  V  V3  1  0.49999998  0.50000000  0.50000000  1
  V  V4  1  -0.00000001  0.50000000  0.49999999  1
  V  V5  1  0.00000000  0.00000000  0.00000000  1
  V  V6  1  0.49999999  0.00000000  0.49999999  1
  V  V7  1  0.49999998  0.50000000  0.00000002  1
  O  O8  1  0.73476799  0.24999600  0.24999601  1
  O  O9  1  0.26523198  0.75000400  0.75000399  1
  O  O10  1  0.75000399  0.26523200  0.75000399  1
  O  O11  1  0.74290498  0.74290500  0.74290500  1
  O  O12  1  0.25709499  0.25709500  0.25709500  1
  O  O13  1  0.24999598  0.73476800  0.24999601  1
  O  O14  1  0.75000398  0.75000400  0.26523202  1
  O  O15  1  0.24999599  0.24999600  0.73476798  1
