# generated using pymatgen
data_Rb3YV2O8
_symmetry_space_group_name_H-M   'P 1'
_cell_length_a   6.07650995
_cell_length_b   6.07650995
_cell_length_c   7.93525791
_cell_angle_alpha   90.00000000
_cell_angle_beta   90.00000000
_cell_angle_gamma   120.00000000
_symmetry_Int_Tables_number   1
_chemical_formula_structural   Rb3YV2O8
_chemical_formula_sum   'Rb3 Y1 V2 O8'
_cell_volume   253.74652627
_cell_formula_units_Z   1
loop_
 _symmetry_equiv_pos_site_id
 _symmetry_equiv_pos_as_xyz
  1  'x, y, z'
loop_
 _atom_site_type_symbol
 _atom_site_label
 _atom_site_symmetry_multiplicity
 _atom_site_fract_x
 _atom_site_fract_y
 _atom_site_fract_z
 _atom_site_occupancy
  Rb  Rb0  1  0.33333333  0.66666667  0.68096301  1
  Rb  Rb1  1  0.66666667  0.33333333  0.31903700  1
  Rb  Rb2  1  0.00000000  0.00000000  0.00000000  1
  Y  Y3  1  0.00000000  0.00000000  0.50000001  1
  V  V4  1  0.33333333  0.66666667  0.24397200  1
  V  V5  1  0.66666667  0.33333333  0.75602801  1
  O  O6  1  0.33333333  0.66666667  0.02738000  1
  O  O7  1  0.66666667  0.33333333  0.97262001  1
  O  O8  1  0.17655100  0.82344800  0.32128500  1
  O  O9  1  0.82344901  0.17655200  0.67871501  1
  O  O10  1  0.17655100  0.35310200  0.32128500  1
  O  O11  1  0.82344901  0.64689800  0.67871501  1
  O  O12  1  0.64689700  0.82344800  0.32128500  1
  O  O13  1  0.35310300  0.17655200  0.67871501  1
