# generated using pymatgen
data_Er3Mg2(InAg)2
_symmetry_space_group_name_H-M   'P 1'
_cell_length_a   3.97984695
_cell_length_b   7.92556190
_cell_length_c   7.92556190
_cell_angle_alpha   120.00000000
_cell_angle_beta   90.00000000
_cell_angle_gamma   90.00000000
_symmetry_Int_Tables_number   1
_chemical_formula_structural   Er3Mg2(InAg)2
_chemical_formula_sum   'Er3 Mg2 In2 Ag2'
_cell_volume   216.49961493
_cell_formula_units_Z   1
loop_
 _symmetry_equiv_pos_site_id
 _symmetry_equiv_pos_as_xyz
  1  'x, y, z'
loop_
 _atom_site_type_symbol
 _atom_site_label
 _atom_site_symmetry_multiplicity
 _atom_site_fract_x
 _atom_site_fract_y
 _atom_site_fract_z
 _atom_site_occupancy
  Er  Er0  1  0.50000001  0.59686601  1.00000001  1
  Er  Er1  1  0.50000001  0.40313400  0.40313400  1
  Er  Er2  1  0.50000001  0.00000000  0.59686600  1
  Mg  Mg3  1  -0.00000000  0.33333334  0.66666667  1
  Ag  Ag4  1  -0.00000000  0.66666667  0.33333333  1
  Mg  Mg5  1  0.50000001  0.00000000  -0.00000000  1
  In  In6  1  -0.00000000  0.26257200  1.00000001  1
  In  In7  1  -0.00000000  0.73742801  0.73742800  1
  Ag  Ag8  1  -0.00000000  0.00000000  0.26257200  1
