# generated using pymatgen
data_La2AlNi15
_symmetry_space_group_name_H-M   'P 1'
_cell_length_a   3.91495299
_cell_length_b   9.01488876
_cell_length_c   9.60712719
_cell_angle_alpha   90.00000000
_cell_angle_beta   90.00000000
_cell_angle_gamma   90.00000000
_symmetry_Int_Tables_number   1
_chemical_formula_structural   La2AlNi15
_chemical_formula_sum   'La2 Al1 Ni15'
_cell_volume   339.06305014
_cell_formula_units_Z   1
loop_
 _symmetry_equiv_pos_site_id
 _symmetry_equiv_pos_as_xyz
  1  'x, y, z'
loop_
 _atom_site_type_symbol
 _atom_site_label
 _atom_site_symmetry_multiplicity
 _atom_site_fract_x
 _atom_site_fract_y
 _atom_site_fract_z
 _atom_site_occupancy
  La  La0  1  0.00000000  0.05898800  0.25000000  1
  La  La1  1  -0.00000000  0.94101202  0.74999999  1
  Ni  Ni2  1  0.50000000  0.71444402  0.25000000  1
  Al  Al3  1  0.50000000  0.57675502  0.88672898  1
  Ni  Ni4  1  0.00000000  0.63998102  0.07809300  1
  Ni  Ni5  1  0.50000000  0.42324501  0.38672899  1
  Ni  Ni6  1  0.50000000  0.42324501  0.11327100  1
  Ni  Ni7  1  0.00000000  0.36001901  0.92190698  1
  Ni  Ni8  1  0.00000000  0.36001901  0.57809299  1
  Ni  Ni9  1  0.50000000  0.57675502  0.61327099  1
  Ni  Ni10  1  0.00000000  0.63998102  0.42190699  1
  Ni  Ni11  1  0.50000000  0.28555601  0.74999999  1
  Ni  Ni12  1  0.50000000  0.22032201  0.52799899  1
  Ni  Ni13  1  0.00000000  0.45750201  0.25000000  1
  Ni  Ni14  1  0.50000000  0.77967802  0.02799900  1
  Ni  Ni15  1  -0.00000000  0.54249801  0.74999999  1
  Ni  Ni16  1  0.50000000  0.22032201  0.97200098  1
  Ni  Ni17  1  0.50000000  0.77967802  0.47200099  1
