# generated using pymatgen
data_V2B3Mo5
_symmetry_space_group_name_H-M   'P 1'
_cell_length_a   3.23393607
_cell_length_b   5.69061708
_cell_length_c   5.69061708
_cell_angle_alpha   90.00000000
_cell_angle_beta   90.00000000
_cell_angle_gamma   90.00000000
_symmetry_Int_Tables_number   1
_chemical_formula_structural   V2B3Mo5
_chemical_formula_sum   'V2 B3 Mo5'
_cell_volume   104.72494894
_cell_formula_units_Z   1
loop_
 _symmetry_equiv_pos_site_id
 _symmetry_equiv_pos_as_xyz
  1  'x, y, z'
loop_
 _atom_site_type_symbol
 _atom_site_label
 _atom_site_symmetry_multiplicity
 _atom_site_fract_x
 _atom_site_fract_y
 _atom_site_fract_z
 _atom_site_occupancy
  V  V0  1  0.00000000  0.00000000  0.00000000  1
  V  V1  1  0.00000000  0.49999999  0.49999999  1
  B  B2  1  0.00000000  0.88418999  0.38418999  1
  B  B3  1  0.00000000  0.38418999  0.11581000  1
  Mo  Mo4  1  0.99999998  0.11581000  0.61580999  1
  B  B5  1  0.00000000  0.61580999  0.88418999  1
  Mo  Mo6  1  0.49999999  0.17791000  0.32209000  1
  Mo  Mo7  1  0.49999999  0.67790999  0.17791000  1
  Mo  Mo8  1  0.49999999  0.32209000  0.82208999  1
  Mo  Mo9  1  0.49999999  0.82208999  0.67790999  1
