# generated using pymatgen
data_LiCo3OF5
_symmetry_space_group_name_H-M   'P 1'
_cell_length_a   5.46565390
_cell_length_b   5.46676493
_cell_length_c   10.67469788
_cell_angle_alpha   80.27764130
_cell_angle_beta   85.27564240
_cell_angle_gamma   60.01705551
_symmetry_Int_Tables_number   1
_chemical_formula_structural   LiCo3OF5
_chemical_formula_sum   'Li2 Co6 O2 F10'
_cell_volume   272.30111300
_cell_formula_units_Z   2
loop_
 _symmetry_equiv_pos_site_id
 _symmetry_equiv_pos_as_xyz
  1  'x, y, z'
loop_
 _atom_site_type_symbol
 _atom_site_label
 _atom_site_symmetry_multiplicity
 _atom_site_fract_x
 _atom_site_fract_y
 _atom_site_fract_z
 _atom_site_occupancy
  Li  Li0  1  0.00014898  0.50793403  0.97664797  1
  Li  Li1  1  0.66030598  0.66611104  0.50920400  1
  Co  Co2  1  0.33548499  0.32312402  0.50896899  1
  Co  Co3  1  0.00335700  0.00288900  0.50892999  1
  Co  Co4  1  0.33378197  0.90858305  0.77191098  1
  Co  Co5  1  0.66620900  0.24090601  0.77652199  1
  Co  Co6  1  0.66771601  0.08949101  0.23105101  1
  Co  Co7  1  0.33412797  0.75505004  0.23087400  1
  O  O8  1  0.41033900  0.14486601  0.83213699  1
  O  O9  1  0.58963399  0.55587103  0.83217899  1
  F  F10  1  0.57772497  0.86754405  0.16399801  1
  F  F11  1  0.42276599  0.44468203  0.16301600  1
  F  F12  1  0.33524196  0.96403906  0.60293599  1
  F  F13  1  0.66459200  0.29849802  0.60464900  1
  F  F14  1  0.66814601  0.03636600  0.39685800  1
  F  F15  1  0.33467598  0.69801404  0.39670599  1
  F  F16  1  0.00068996  0.96610606  0.83138697  1
  F  F17  1  0.00066000  0.02250900  0.16341000  1
  F  F18  1  0.00039597  0.63986004  0.58928698  1
  F  F19  1  0.99400300  0.36755802  0.40932701  1
