# generated using pymatgen
data_TiS
_symmetry_space_group_name_H-M   'P 1'
_cell_length_a   7.49919128
_cell_length_b   7.49919128
_cell_length_c   7.49919128
_cell_angle_alpha   60.00000000
_cell_angle_beta   60.00000000
_cell_angle_gamma   60.00000000
_symmetry_Int_Tables_number   1
_chemical_formula_structural   TiS
_chemical_formula_sum   'Ti6 S6'
_cell_volume   298.21418429
_cell_formula_units_Z   6
loop_
 _symmetry_equiv_pos_site_id
 _symmetry_equiv_pos_as_xyz
  1  'x, y, z'
loop_
 _atom_site_type_symbol
 _atom_site_label
 _atom_site_symmetry_multiplicity
 _atom_site_fract_x
 _atom_site_fract_y
 _atom_site_fract_z
 _atom_site_occupancy
  Ti  Ti0  1  0.61434200  0.61434200  0.61434200  1
  Ti  Ti1  1  0.61434200  0.61434200  0.15697400  1
  Ti  Ti2  1  0.59302600  0.13565800  0.13565800  1
  Ti  Ti3  1  0.13565800  0.13565800  0.59302600  1
  Ti  Ti4  1  0.13565800  0.13565800  0.13565800  1
  Ti  Ti5  1  0.13565800  0.59302600  0.13565800  1
  S  S6  1  0.15697400  0.61434200  0.61434200  1
  S  S7  1  0.61434200  0.15697400  0.61434200  1
  S  S8  1  0.37500000  0.37500000  0.87500000  1
  S  S9  1  0.37500000  0.37500000  0.37500000  1
  S  S10  1  0.37500000  0.87500000  0.37500000  1
  S  S11  1  0.87500000  0.37500000  0.37500000  1
