# generated using pymatgen
data_Nb4PdS3Br4
_symmetry_space_group_name_H-M   'P 1'
_cell_length_a   7.34942770
_cell_length_b   7.34942770
_cell_length_c   7.34942770
_cell_angle_alpha   60.00000000
_cell_angle_beta   60.00000000
_cell_angle_gamma   60.00000000
_symmetry_Int_Tables_number   1
_chemical_formula_structural   Nb4PdS3Br4
_chemical_formula_sum   'Nb4 Pd1 S3 Br4'
_cell_volume   280.70203932
_cell_formula_units_Z   1
loop_
 _symmetry_equiv_pos_site_id
 _symmetry_equiv_pos_as_xyz
  1  'x, y, z'
loop_
 _atom_site_type_symbol
 _atom_site_label
 _atom_site_symmetry_multiplicity
 _atom_site_fract_x
 _atom_site_fract_y
 _atom_site_fract_z
 _atom_site_occupancy
  Nb  Nb0  1  0.05308400  0.64897198  0.64897198  1
  Nb  Nb1  1  0.64897298  0.05308300  0.64897198  1
  Nb  Nb2  1  0.64897298  0.64897198  0.64897198  1
  Nb  Nb3  1  0.64897298  0.64897198  0.05308300  1
  Pd  Pd4  1  0.36349499  0.87883497  0.87883497  1
  S  S5  1  0.87883597  0.36349399  0.87883497  1
  S  S6  1  0.87883597  0.87883497  0.87883497  1
  S  S7  1  0.87883597  0.87883497  0.36349399  1
  Br  Br8  1  0.86564597  0.37811799  0.37811799  1
  Br  Br9  1  0.37811899  0.86564497  0.37811799  1
  Br  Br10  1  0.37811899  0.37811799  0.37811799  1
  Br  Br11  1  0.37811899  0.37811799  0.86564497  1
