# generated using pymatgen
data_LiCdGe
_symmetry_space_group_name_H-M   'P 1'
_cell_length_a   4.09542179
_cell_length_b   6.88548183
_cell_length_c   6.88548183
_cell_angle_alpha   120.00000000
_cell_angle_beta   90.00000000
_cell_angle_gamma   90.00000000
_symmetry_Int_Tables_number   1
_chemical_formula_structural   LiCdGe
_chemical_formula_sum   'Li3 Cd3 Ge3'
_cell_volume   168.15041448
_cell_formula_units_Z   3
loop_
 _symmetry_equiv_pos_site_id
 _symmetry_equiv_pos_as_xyz
  1  'x, y, z'
loop_
 _atom_site_type_symbol
 _atom_site_label
 _atom_site_symmetry_multiplicity
 _atom_site_fract_x
 _atom_site_fract_y
 _atom_site_fract_z
 _atom_site_occupancy
  Li  Li0  1  0.50000003  0.57860301  -0.00000002  1
  Li  Li1  1  0.50000003  0.42139700  0.42139698  1
  Li  Li2  1  0.50000003  1.00000001  0.57860296  1
  Cd  Cd3  1  1.00000005  0.23947100  -0.00000001  1
  Cd  Cd4  1  -0.00000000  0.76052901  0.76052897  1
  Cd  Cd5  1  1.00000005  1.00000001  0.23947097  1
  Ge  Ge6  1  -0.00000000  0.33333334  0.66666665  1
  Ge  Ge7  1  1.00000005  0.66666667  0.33333331  1
  Ge  Ge8  1  0.50000003  0.00000000  -0.00000000  1
