# generated using pymatgen
data_Y2Al6Si5
_symmetry_space_group_name_H-M   'P 1'
_cell_length_a   4.17029762
_cell_length_b   4.17029762
_cell_length_c   17.04877663
_cell_angle_alpha   82.97486115
_cell_angle_beta   82.97486115
_cell_angle_gamma   60.00001144
_symmetry_Int_Tables_number   1
_chemical_formula_structural   Y2Al6Si5
_chemical_formula_sum   'Y2 Al6 Si5'
_cell_volume   254.20454459
_cell_formula_units_Z   1
loop_
 _symmetry_equiv_pos_site_id
 _symmetry_equiv_pos_as_xyz
  1  'x, y, z'
loop_
 _atom_site_type_symbol
 _atom_site_label
 _atom_site_symmetry_multiplicity
 _atom_site_fract_x
 _atom_site_fract_y
 _atom_site_fract_z
 _atom_site_occupancy
  Y  Y0  1  0.56584298  0.56584296  0.30247102  1
  Y  Y1  1  0.43415699  0.43415697  0.69752903  1
  Al  Al2  1  0.94955897  0.94955893  0.15132302  1
  Al  Al3  1  0.05044100  0.05044100  0.84867703  1
  Al  Al4  1  0.31747299  0.31747298  0.04758101  1
  Al  Al5  1  0.81479598  0.81479594  0.55561203  1
  Al  Al6  1  0.18520399  0.18520399  0.44438802  1
  Al  Al7  1  0.68252698  0.68252695  0.95241904  1
  Si  Si8  1  0.26567499  0.26567498  0.20297501  1
  Si  Si9  1  0.13504500  0.13504499  0.59486502  1
  Si  Si10  1  0.86495498  0.86495494  0.40513503  1
  Si  Si11  1  0.73432498  0.73432495  0.79702504  1
  Si  Si12  1  0.00000000  0.00000000  0.00000000  1
