# generated using pymatgen
data_Ti3Sn
_symmetry_space_group_name_H-M   'P 1'
_cell_length_a   4.75384378
_cell_length_b   5.83297205
_cell_length_c   5.83297205
_cell_angle_alpha   60.00000000
_cell_angle_beta   90.00000000
_cell_angle_gamma   90.00000000
_symmetry_Int_Tables_number   1
_chemical_formula_structural   Ti3Sn
_chemical_formula_sum   'Ti6 Sn2'
_cell_volume   140.07328982
_cell_formula_units_Z   2
loop_
 _symmetry_equiv_pos_site_id
 _symmetry_equiv_pos_as_xyz
  1  'x, y, z'
loop_
 _atom_site_type_symbol
 _atom_site_label
 _atom_site_symmetry_multiplicity
 _atom_site_fract_x
 _atom_site_fract_y
 _atom_site_fract_z
 _atom_site_occupancy
  Ti  Ti0  1  0.25000001  0.33333333  0.33333333  1
  Ti  Ti1  1  0.75000003  0.66666666  0.66666666  1
  Ti  Ti2  1  0.75000003  0.66128000  0.16936000  1
  Ti  Ti3  1  0.75000003  0.16936000  0.16936000  1
  Ti  Ti4  1  0.75000003  0.16936000  0.66128000  1
  Ti  Ti5  1  0.25000001  0.33872000  0.83064000  1
  Sn  Sn6  1  0.25000001  0.83064000  0.83064000  1
  Sn  Sn7  1  0.25000001  0.83064000  0.33871999  1
