# generated using pymatgen
data_Sr4Ti2WO12
_symmetry_space_group_name_H-M   'P 1'
_cell_length_a   5.55200863
_cell_length_b   5.55200863
_cell_length_c   7.83632708
_cell_angle_alpha   90.00000000
_cell_angle_beta   90.00000000
_cell_angle_gamma   90.68906403
_symmetry_Int_Tables_number   1
_chemical_formula_structural   Sr4Ti2WO12
_chemical_formula_sum   'Sr4 Ti2 W1 O12'
_cell_volume   241.53574507
_cell_formula_units_Z   1
loop_
 _symmetry_equiv_pos_site_id
 _symmetry_equiv_pos_as_xyz
  1  'x, y, z'
loop_
 _atom_site_type_symbol
 _atom_site_label
 _atom_site_symmetry_multiplicity
 _atom_site_fract_x
 _atom_site_fract_y
 _atom_site_fract_z
 _atom_site_occupancy
  Sr  Sr0  1  0.74263500  0.25736500  -0.00000000  1
  Sr  Sr1  1  0.74365400  0.25634600  0.50000000  1
  Sr  Sr2  1  0.24973297  0.75026701  -0.00000000  1
  Sr  Sr3  1  0.24825099  0.25115400  0.25714800  1
  Ti  Ti4  1  0.24825099  0.25115400  0.74285199  1
  Ti  Ti5  1  0.74884598  0.75174901  0.25714800  1
  W  W6  1  0.74884598  0.75174901  0.74285199  1
  O  O7  1  0.00060696  0.99939301  0.19920400  1
  O  O8  1  0.00060696  0.99939301  0.80079599  1
  O  O9  1  0.50824900  0.00644700  0.23599700  1
  O  O10  1  0.50824900  0.00644700  0.76400299  1
  O  O11  1  0.20527099  0.22270900  0.50000000  1
  O  O12  1  0.29035599  0.29899600  -0.00000000  1
  O  O13  1  0.99355299  0.49175100  0.23599700  1
  O  O14  1  0.99355299  0.49175100  0.76400299  1
  O  O15  1  0.51792099  0.48207900  0.27937200  1
  O  O16  1  0.51792099  0.48207900  0.72062799  1
  O  O17  1  0.70100398  0.70964400  -0.00000000  1
  O  O18  1  0.77729098  0.79472901  0.50000000  1
