# generated using pymatgen
data_Ti2Se3
_symmetry_space_group_name_H-M   'P 1'
_cell_length_a   3.95275998
_cell_length_b   11.50579262
_cell_length_c   11.99799633
_cell_angle_alpha   90.00000000
_cell_angle_beta   90.00000000
_cell_angle_gamma   90.00000000
_symmetry_Int_Tables_number   1
_chemical_formula_structural   Ti2Se3
_chemical_formula_sum   'Ti8 Se12'
_cell_volume   545.66451316
_cell_formula_units_Z   4
loop_
 _symmetry_equiv_pos_site_id
 _symmetry_equiv_pos_as_xyz
  1  'x, y, z'
loop_
 _atom_site_type_symbol
 _atom_site_label
 _atom_site_symmetry_multiplicity
 _atom_site_fract_x
 _atom_site_fract_y
 _atom_site_fract_z
 _atom_site_occupancy
  Ti  Ti0  1  0.50000000  0.20853501  0.64678698  1
  Ti  Ti1  1  0.50000000  0.79146503  0.14678700  1
  Ti  Ti2  1  0.00000000  0.28565101  0.35365699  1
  Ti  Ti3  1  0.00000000  0.71434902  0.85365698  1
  Ti  Ti4  1  0.00000000  0.92204203  0.53703599  1
  Ti  Ti5  1  0.00000000  0.07795800  0.03703600  1
  Ti  Ti6  1  0.50000000  0.58450802  0.46684599  1
  Ti  Ti7  1  0.50000000  0.41549201  0.96684597  1
  Se  Se8  1  0.50000000  0.44532501  0.28672599  1
  Se  Se9  1  0.50000000  0.55467502  0.78672598  1
  Se  Se10  1  0.00000000  0.37664401  0.55466598  1
  Se  Se11  1  0.00000000  0.62335602  0.05466600  1
  Se  Se12  1  0.50000000  0.11637700  0.44711299  1
  Se  Se13  1  0.50000000  0.88362303  0.94711297  1
  Se  Se14  1  0.50000000  0.80917103  0.62472298  1
  Se  Se15  1  0.50000000  0.19082901  0.12472300  1
  Se  Se16  1  0.00000000  0.69469502  0.37851199  1
  Se  Se17  1  0.00000000  0.30530501  0.87851198  1
  Se  Se18  1  0.00000000  0.05838000  0.70393498  1
  Se  Se19  1  0.00000000  0.94162003  0.20393499  1
