# generated using pymatgen
data_CeCuAs2
_symmetry_space_group_name_H-M   'P 1'
_cell_length_a   4.33860397
_cell_length_b   4.33860397
_cell_length_c   9.64555836
_cell_angle_alpha   90.00000000
_cell_angle_beta   90.00000000
_cell_angle_gamma   90.00000000
_symmetry_Int_Tables_number   1
_chemical_formula_structural   CeCuAs2
_chemical_formula_sum   'Ce2 Cu2 As4'
_cell_volume   181.56301763
_cell_formula_units_Z   2
loop_
 _symmetry_equiv_pos_site_id
 _symmetry_equiv_pos_as_xyz
  1  'x, y, z'
loop_
 _atom_site_type_symbol
 _atom_site_label
 _atom_site_symmetry_multiplicity
 _atom_site_fract_x
 _atom_site_fract_y
 _atom_site_fract_z
 _atom_site_occupancy
  Ce  Ce0  1  0.00000000  0.50000000  0.73423397  1
  Ce  Ce1  1  0.50000000  0.00000000  0.26576599  1
  Cu  Cu2  1  0.50000000  0.50000000  0.49999998  1
  Cu  Cu3  1  0.00000000  0.00000000  0.49999998  1
  As  As4  1  0.50000000  0.50000000  0.00000000  1
  As  As5  1  0.00000000  0.00000000  0.00000000  1
  As  As6  1  0.00000000  0.50000000  0.35848299  1
  As  As7  1  0.50000000  0.00000000  0.64151698  1
