# generated using pymatgen
data_Ce2Si5Pt3
_symmetry_space_group_name_H-M   'P 1'
_cell_length_a   5.96962786
_cell_length_b   8.26129913
_cell_length_c   8.26129913
_cell_angle_alpha   74.37144470
_cell_angle_beta   68.81989288
_cell_angle_gamma   68.81989288
_symmetry_Int_Tables_number   1
_chemical_formula_structural   Ce2Si5Pt3
_chemical_formula_sum   'Ce4 Si10 Pt6'
_cell_volume   349.69041201
_cell_formula_units_Z   2
loop_
 _symmetry_equiv_pos_site_id
 _symmetry_equiv_pos_as_xyz
  1  'x, y, z'
loop_
 _atom_site_type_symbol
 _atom_site_label
 _atom_site_symmetry_multiplicity
 _atom_site_fract_x
 _atom_site_fract_y
 _atom_site_fract_z
 _atom_site_occupancy
  Ce  Ce0  1  0.87108596  0.89570199  0.36212602  1
  Ce  Ce1  1  0.12891400  0.10429800  0.63787399  1
  Ce  Ce2  1  0.37108598  0.36212600  0.89570200  1
  Ce  Ce3  1  0.62891397  0.63787399  0.10429802  1
  Si  Si4  1  0.52504996  0.72494999  0.72495002  1
  Si  Si5  1  0.47495000  0.27505000  0.27505000  1
  Si  Si6  1  0.97495002  0.27505000  0.27504998  1
  Si  Si7  1  0.02504994  0.72494999  0.72495004  1
  Si  Si8  1  0.61374201  0.23486200  0.53765399  1
  Si  Si9  1  0.38625795  0.76513799  0.46234603  1
  Si  Si10  1  0.11374196  0.53765400  0.23486203  1
  Si  Si11  1  0.88625800  0.46234600  0.76513799  1
  Si  Si12  1  0.25000001  0.00000000  0.99999998  1
  Si  Si13  1  0.75000003  0.00000000  0.99999996  1
  Pt  Pt14  1  0.63802494  0.97115299  0.75279603  1
  Pt  Pt15  1  0.36197501  0.02884700  0.24720399  1
  Pt  Pt16  1  0.13802594  0.75279499  0.97115303  1
  Pt  Pt17  1  0.86197402  0.24720500  0.02884699  1
  Pt  Pt18  1  0.24999997  0.50000000  0.50000002  1
  Pt  Pt19  1  0.74999999  0.50000000  0.50000000  1
