# generated using pymatgen
data_Mn3Ga
_symmetry_space_group_name_H-M   'P 1'
_cell_length_a   4.17842579
_cell_length_b   5.17778587
_cell_length_c   5.17778587
_cell_angle_alpha   120.00000000
_cell_angle_beta   90.00000000
_cell_angle_gamma   90.00000000
_symmetry_Int_Tables_number   1
_chemical_formula_structural   Mn3Ga
_chemical_formula_sum   'Mn6 Ga2'
_cell_volume   97.01334909
_cell_formula_units_Z   2
loop_
 _symmetry_equiv_pos_site_id
 _symmetry_equiv_pos_as_xyz
  1  'x, y, z'
loop_
 _atom_site_type_symbol
 _atom_site_label
 _atom_site_symmetry_multiplicity
 _atom_site_fract_x
 _atom_site_fract_y
 _atom_site_fract_z
 _atom_site_occupancy
  Mn  Mn0  1  0.75000004  0.16133400  0.32266799  1
  Mn  Mn1  1  0.75000004  0.16133400  0.83866499  1
  Mn  Mn2  1  0.75000004  0.67733101  0.83866498  1
  Mn  Mn3  1  0.25000001  0.83866601  0.67733197  1
  Mn  Mn4  1  0.25000001  0.83866601  0.16133498  1
  Mn  Mn5  1  0.25000001  0.32266900  0.16133499  1
  Ga  Ga6  1  0.75000004  0.66666668  0.33333331  1
  Ga  Ga7  1  0.25000001  0.33333334  0.66666665  1
