# generated using pymatgen
data_LiCoO2
_symmetry_space_group_name_H-M   'P 1'
_cell_length_a   2.91082811
_cell_length_b   5.03910208
_cell_length_c   5.05335808
_cell_angle_alpha   109.52864838
_cell_angle_beta   90.00000000
_cell_angle_gamma   90.00000000
_symmetry_Int_Tables_number   1
_chemical_formula_structural   LiCoO2
_chemical_formula_sum   'Li2 Co2 O4'
_cell_volume   69.85852044
_cell_formula_units_Z   2
loop_
 _symmetry_equiv_pos_site_id
 _symmetry_equiv_pos_as_xyz
  1  'x, y, z'
loop_
 _atom_site_type_symbol
 _atom_site_label
 _atom_site_symmetry_multiplicity
 _atom_site_fract_x
 _atom_site_fract_y
 _atom_site_fract_z
 _atom_site_occupancy
  Li  Li0  1  0.49999998  0.50000000  0.00000002  1
  Li  Li1  1  -0.00000000  0.50000000  0.50000002  1
  Co  Co2  1  0.49999998  0.00000000  0.50000000  1
  Co  Co3  1  0.00000000  0.00000000  0.00000000  1
  O  O4  1  0.49999998  0.22167600  0.26598501  1
  O  O5  1  0.49999998  0.77832400  0.73401503  1
  O  O6  1  -0.00000000  0.77167500  0.27519503  1
  O  O7  1  -0.00000000  0.22832500  0.72480501  1
