# generated using pymatgen
data_K3SbS6
_symmetry_space_group_name_H-M   'P 1'
_cell_length_a   7.43125391
_cell_length_b   8.12258244
_cell_length_c   10.83919907
_cell_angle_alpha   90.00000000
_cell_angle_beta   90.00000000
_cell_angle_gamma   90.00000000
_symmetry_Int_Tables_number   1
_chemical_formula_structural   K3SbS6
_chemical_formula_sum   'K6 Sb2 S12'
_cell_volume   654.26459659
_cell_formula_units_Z   2
loop_
 _symmetry_equiv_pos_site_id
 _symmetry_equiv_pos_as_xyz
  1  'x, y, z'
loop_
 _atom_site_type_symbol
 _atom_site_label
 _atom_site_symmetry_multiplicity
 _atom_site_fract_x
 _atom_site_fract_y
 _atom_site_fract_z
 _atom_site_occupancy
  K  K0  1  0.75000001  0.95082795  0.88799699  1
  K  K1  1  0.25000000  0.54917197  0.88799699  1
  K  K2  1  0.50000001  0.24999999  0.39624500  1
  K  K3  1  -0.00000000  0.24999999  0.39624500  1
  K  K4  1  0.50000001  0.74999996  0.60375500  1
  K  K5  1  0.00000000  0.74999996  0.60375500  1
  Sb  Sb6  1  0.25000000  0.04917200  0.11200300  1
  Sb  Sb7  1  0.75000001  0.45082798  0.11200300  1
  S  S8  1  0.75000001  0.83625796  0.28481500  1
  S  S9  1  0.75000001  0.33625798  0.71518500  1
  S  S10  1  0.25000000  0.66374196  0.28481500  1
  S  S11  1  0.25000000  0.16374199  0.71518500  1
  S  S12  1  0.75000001  0.07688500  0.16456800  1
  S  S13  1  0.25000000  0.41466798  0.60720000  1
  S  S14  1  0.75000001  0.58533197  0.39280000  1
  S  S15  1  0.25000000  0.42311498  0.16456800  1
  S  S16  1  0.25000000  0.91466795  0.39280000  1
  S  S17  1  0.75000001  0.57688497  0.83543199  1
  S  S18  1  0.25000000  0.92311495  0.83543199  1
  S  S19  1  0.75000001  0.08533200  0.60720000  1
