# generated using pymatgen
data_Ce(SiRu)2
_symmetry_space_group_name_H-M   'P 1'
_cell_length_a   4.21171379
_cell_length_b   4.21171379
_cell_length_c   5.74558449
_cell_angle_alpha   111.50099945
_cell_angle_beta   111.50099945
_cell_angle_gamma   90.00000000
_symmetry_Int_Tables_number   1
_chemical_formula_structural   Ce(SiRu)2
_chemical_formula_sum   'Ce1 Si2 Ru2'
_cell_volume   87.15826654
_cell_formula_units_Z   1
loop_
 _symmetry_equiv_pos_site_id
 _symmetry_equiv_pos_as_xyz
  1  'x, y, z'
loop_
 _atom_site_type_symbol
 _atom_site_label
 _atom_site_symmetry_multiplicity
 _atom_site_fract_x
 _atom_site_fract_y
 _atom_site_fract_z
 _atom_site_occupancy
  Ce  Ce0  1  0.00066000  0.00066000  0.00132000  1
  Si  Si1  1  0.58482303  0.58482303  0.16964599  1
  Si  Si2  1  0.23494501  0.73494503  0.46988999  1
  Ru  Ru3  1  0.73494503  0.23494501  0.46988999  1
  Ru  Ru4  1  0.34615202  0.34615202  0.69230398  1
