# generated using pymatgen
data_TbC2
_symmetry_space_group_name_H-M   'P 1'
_cell_length_a   4.11261988
_cell_length_b   4.11261988
_cell_length_c   4.74192476
_cell_angle_alpha   90.00000000
_cell_angle_beta   90.00000000
_cell_angle_gamma   90.00000000
_symmetry_Int_Tables_number   1
_chemical_formula_structural   TbC2
_chemical_formula_sum   'Tb2 C4'
_cell_volume   80.20321902
_cell_formula_units_Z   2
loop_
 _symmetry_equiv_pos_site_id
 _symmetry_equiv_pos_as_xyz
  1  'x, y, z'
loop_
 _atom_site_type_symbol
 _atom_site_label
 _atom_site_symmetry_multiplicity
 _atom_site_fract_x
 _atom_site_fract_y
 _atom_site_fract_z
 _atom_site_occupancy
  Tb  Tb0  1  0.50000001  0.50000001  -0.00000000  1
  Tb  Tb1  1  0.00000000  0.00000000  0.50000003  1
  C  C2  1  0.89318603  0.89318603  -0.00000000  1
  C  C3  1  0.10681400  0.10681400  -0.00000000  1
  C  C4  1  0.39318601  0.60681402  0.50000003  1
  C  C5  1  0.60681402  0.39318601  0.50000003  1
