# generated using pymatgen
data_YNi5
_symmetry_space_group_name_H-M   'P 1'
_cell_length_a   4.90637875
_cell_length_b   4.90637922
_cell_length_c   10.86537266
_cell_angle_alpha   90.00000000
_cell_angle_beta   90.00000000
_cell_angle_gamma   120.00000000
_symmetry_Int_Tables_number   1
_chemical_formula_structural   YNi5
_chemical_formula_sum   'Y3 Ni15'
_cell_volume   226.51524735
_cell_formula_units_Z   3
loop_
 _symmetry_equiv_pos_site_id
 _symmetry_equiv_pos_as_xyz
  1  'x, y, z'
loop_
 _atom_site_type_symbol
 _atom_site_label
 _atom_site_symmetry_multiplicity
 _atom_site_fract_x
 _atom_site_fract_y
 _atom_site_fract_z
 _atom_site_occupancy
  Y  Y0  1  0.00000000  0.00000000  0.00000000  1
  Y  Y1  1  0.00000000  0.00000000  0.32945801  1
  Y  Y2  1  0.00000000  0.00000000  0.67054202  1
  Ni  Ni3  1  0.50000001  0.00000000  0.50000002  1
  Ni  Ni4  1  0.50000000  0.50000001  0.50000002  1
  Ni  Ni5  1  -0.00000002  0.50000001  0.50000002  1
  Ni  Ni6  1  0.33333332  0.66666668  0.31914601  1
  Ni  Ni7  1  0.66666667  0.33333334  0.31914601  1
  Ni  Ni8  1  0.66666667  0.33333334  0.68085402  1
  Ni  Ni9  1  0.33333332  0.66666668  0.68085402  1
  Ni  Ni10  1  0.50000001  0.00000000  0.13416100  1
  Ni  Ni11  1  0.50000000  0.50000001  0.13416100  1
  Ni  Ni12  1  -0.00000002  0.50000001  0.13416100  1
  Ni  Ni13  1  0.50000001  0.00000000  0.86583903  1
  Ni  Ni14  1  0.50000000  0.50000001  0.86583903  1
  Ni  Ni15  1  -0.00000002  0.50000001  0.86583903  1
  Ni  Ni16  1  0.33333332  0.66666668  -0.00000000  1
  Ni  Ni17  1  0.66666667  0.33333334  -0.00000000  1
