# generated using pymatgen
data_VSb3
_symmetry_space_group_name_H-M   'P 1'
_cell_length_a   7.92611885
_cell_length_b   7.92611885
_cell_length_c   7.94630718
_cell_angle_alpha   109.49024200
_cell_angle_beta   109.43676758
_cell_angle_gamma   109.38352966
_symmetry_Int_Tables_number   1
_chemical_formula_structural   VSb3
_chemical_formula_sum   'V4 Sb12'
_cell_volume   384.78295245
_cell_formula_units_Z   4
loop_
 _symmetry_equiv_pos_site_id
 _symmetry_equiv_pos_as_xyz
  1  'x, y, z'
loop_
 _atom_site_type_symbol
 _atom_site_label
 _atom_site_symmetry_multiplicity
 _atom_site_fract_x
 _atom_site_fract_y
 _atom_site_fract_z
 _atom_site_occupancy
  V  V0  1  0.00000000  0.00000000  0.50000001  1
  V  V1  1  0.50000002  0.50000002  0.50000003  1
  V  V2  1  0.49999999  0.00000000  -0.00000002  1
  V  V3  1  0.00000003  0.50000002  0.00000004  1
  Sb  Sb4  1  0.33309000  0.15990001  0.49299001  1
  Sb  Sb5  1  0.66691004  0.84010003  0.50701005  1
  Sb  Sb6  1  0.33614604  0.84124703  0.17739305  1
  Sb  Sb7  1  0.66385399  0.15875301  0.82260700  1
  Sb  Sb8  1  0.15659505  0.82476203  0.66257906  1
  Sb  Sb9  1  0.84340499  0.17523801  0.33742099  1
  Sb  Sb10  1  0.83781701  0.50598402  0.66257902  1
  Sb  Sb11  1  0.16218303  0.49401602  0.33742104  1
  Sb  Sb12  1  0.50607003  0.66258702  0.83780104  1
  Sb  Sb13  1  0.49393001  0.33741301  0.16219901  1
  Sb  Sb14  1  0.82478602  0.66826902  0.16219902  1
  Sb  Sb15  1  0.17521402  0.33173101  0.83780103  1
