# generated using pymatgen
data_Ca3TlTe2
_symmetry_space_group_name_H-M   'P 1'
_cell_length_a   4.69575977
_cell_length_b   7.63070583
_cell_length_c   7.63070583
_cell_angle_alpha   90.00000000
_cell_angle_beta   90.00000000
_cell_angle_gamma   90.00000000
_symmetry_Int_Tables_number   1
_chemical_formula_structural   Ca3TlTe2
_chemical_formula_sum   'Ca3 Tl1 Te2'
_cell_volume   273.42315760
_cell_formula_units_Z   1
loop_
 _symmetry_equiv_pos_site_id
 _symmetry_equiv_pos_as_xyz
  1  'x, y, z'
loop_
 _atom_site_type_symbol
 _atom_site_label
 _atom_site_symmetry_multiplicity
 _atom_site_fract_x
 _atom_site_fract_y
 _atom_site_fract_z
 _atom_site_occupancy
  Ca  Ca0  1  0.00000000  0.00000000  0.00000000  1
  Ca  Ca1  1  0.50000002  0.50000001  0.50000001  1
  Tl  Tl2  1  0.00000000  0.29852101  0.29852101  1
  Ca  Ca3  1  -0.00000000  0.70147902  0.70147902  1
  Te  Te4  1  0.50000002  0.20147900  0.79852102  1
  Te  Te5  1  0.50000002  0.79852102  0.20147900  1
