# generated using pymatgen
data_Tb5Ge3C
_symmetry_space_group_name_H-M   'P 1'
_cell_length_a   6.47786808
_cell_length_b   8.49168015
_cell_length_c   8.49168015
_cell_angle_alpha   60.00000000
_cell_angle_beta   90.00000000
_cell_angle_gamma   90.00000000
_symmetry_Int_Tables_number   1
_chemical_formula_structural   Tb5Ge3C
_chemical_formula_sum   'Tb10 Ge6 C2'
_cell_volume   404.52930262
_cell_formula_units_Z   2
loop_
 _symmetry_equiv_pos_site_id
 _symmetry_equiv_pos_as_xyz
  1  'x, y, z'
loop_
 _atom_site_type_symbol
 _atom_site_label
 _atom_site_symmetry_multiplicity
 _atom_site_fract_x
 _atom_site_fract_y
 _atom_site_fract_z
 _atom_site_occupancy
  Tb  Tb0  1  0.00000000  0.66666666  0.66666666  1
  Tb  Tb1  1  0.99999999  0.33333333  0.33333333  1
  Tb  Tb2  1  0.49999999  0.33333333  0.33333333  1
  Tb  Tb3  1  0.49999999  0.66666666  0.66666666  1
  Tb  Tb4  1  0.25000000  0.22351800  -0.00000001  1
  Tb  Tb5  1  0.25000000  0.00000000  0.77648202  1
  Tb  Tb6  1  0.25000000  0.77648200  0.22351798  1
  Tb  Tb7  1  0.74999999  0.77648200  -0.00000002  1
  Tb  Tb8  1  0.74999999  0.00000000  0.22351801  1
  Tb  Tb9  1  0.74999999  0.22351800  0.77648201  1
  Ge  Ge10  1  0.25000000  0.58986100  1.00000001  1
  Ge  Ge11  1  0.25000000  0.00000000  0.41013901  1
  Ge  Ge12  1  0.25000000  0.41013900  0.58986100  1
  Ge  Ge13  1  0.74999999  0.41013900  -0.00000001  1
  Ge  Ge14  1  0.74999999  0.00000000  0.58986101  1
  Ge  Ge15  1  0.74999999  0.58986100  0.41013899  1
  C  C16  1  0.00000000  0.00000000  0.00000000  1
  C  C17  1  0.49999999  0.00000000  0.00000000  1
