# generated using pymatgen
data_Zr4Al3Ni5
_symmetry_space_group_name_H-M   'P 1'
_cell_length_a   5.15291500
_cell_length_b   5.15753317
_cell_length_c   8.30362415
_cell_angle_alpha   90.00000000
_cell_angle_beta   90.00000000
_cell_angle_gamma   119.97039032
_symmetry_Int_Tables_number   1
_chemical_formula_structural   Zr4Al3Ni5
_chemical_formula_sum   'Zr4 Al3 Ni5'
_cell_volume   191.17135802
_cell_formula_units_Z   1
loop_
 _symmetry_equiv_pos_site_id
 _symmetry_equiv_pos_as_xyz
  1  'x, y, z'
loop_
 _atom_site_type_symbol
 _atom_site_label
 _atom_site_symmetry_multiplicity
 _atom_site_fract_x
 _atom_site_fract_y
 _atom_site_fract_z
 _atom_site_occupancy
  Zr  Zr0  1  0.33368501  0.66737003  0.43809099  1
  Zr  Zr1  1  0.66631501  0.33263001  0.56190899  1
  Zr  Zr2  1  0.66631501  0.33263001  0.93809098  1
  Zr  Zr3  1  0.33368501  0.66737003  0.06190900  1
  Al  Al4  1  0.00000000  0.00000000  0.49999999  1
  Al  Al5  1  0.00000000  0.00000000  0.00000000  1
  Al  Al6  1  0.83409300  0.16551201  0.25000000  1
  Ni  Ni7  1  0.83439401  0.66878903  0.25000000  1
  Ni  Ni8  1  0.33141900  0.16551201  0.25000000  1
  Ni  Ni9  1  0.16590701  0.83448803  0.74999999  1
  Ni  Ni10  1  0.16560601  0.33121101  0.74999999  1
  Ni  Ni11  1  0.66858101  0.83448803  0.74999999  1
