# generated using pymatgen
data_HoGa2Ni
_symmetry_space_group_name_H-M   'P 1'
_cell_length_a   4.11639214
_cell_length_b   4.13902092
_cell_length_c   8.18339539
_cell_angle_alpha   90.00000000
_cell_angle_beta   90.00000000
_cell_angle_gamma   90.00000000
_symmetry_Int_Tables_number   1
_chemical_formula_structural   HoGa2Ni
_chemical_formula_sum   'Ho2 Ga4 Ni2'
_cell_volume   139.42732529
_cell_formula_units_Z   2
loop_
 _symmetry_equiv_pos_site_id
 _symmetry_equiv_pos_as_xyz
  1  'x, y, z'
loop_
 _atom_site_type_symbol
 _atom_site_label
 _atom_site_symmetry_multiplicity
 _atom_site_fract_x
 _atom_site_fract_y
 _atom_site_fract_z
 _atom_site_occupancy
  Ho  Ho0  1  0.00000000  0.00000000  0.24593999  1
  Ho  Ho1  1  0.00000000  0.00000000  0.75405996  1
  Ga  Ga2  1  -0.00000000  0.50000001  0.00000000  1
  Ga  Ga3  1  0.49999998  0.00000000  0.49999998  1
  Ni  Ni4  1  0.49999998  0.00000000  -0.00000000  1
  Ga  Ga5  1  0.49999998  0.50000001  0.24499299  1
  Ga  Ga6  1  0.49999998  0.50000001  0.75500696  1
  Ni  Ni7  1  -0.00000000  0.50000001  0.49999998  1
