# generated using pymatgen
data_BeBPO4
_symmetry_space_group_name_H-M   'P 1'
_cell_length_a   4.45069981
_cell_length_b   4.66873837
_cell_length_c   4.45069981
_cell_angle_alpha   118.46678162
_cell_angle_beta   90.00000000
_cell_angle_gamma   118.46678162
_symmetry_Int_Tables_number   1
_chemical_formula_structural   BeBPO4
_chemical_formula_sum   'Be1 B1 P1 O4'
_cell_volume   68.31211900
_cell_formula_units_Z   1
loop_
 _symmetry_equiv_pos_site_id
 _symmetry_equiv_pos_as_xyz
  1  'x, y, z'
loop_
 _atom_site_type_symbol
 _atom_site_label
 _atom_site_symmetry_multiplicity
 _atom_site_fract_x
 _atom_site_fract_y
 _atom_site_fract_z
 _atom_site_occupancy
  Be  Be0  1  0.50000002  0.00000000  0.50000002  1
  P  P1  1  0.00000000  0.00000000  0.00000000  1
  B  B2  1  0.75000008  0.50000004  0.25000006  1
  O  O3  1  0.85576406  0.25592802  0.28087804  1
  O  O4  1  0.40016404  0.25592802  0.97505007  1
  O  O5  1  0.02495007  0.74407306  0.14423708  1
  O  O6  1  0.71912210  0.74407106  0.59983510  1
