# generated using pymatgen
data_Li2Ti2FeBO6
_symmetry_space_group_name_H-M   'P 1'
_cell_length_a   3.92906404
_cell_length_b   5.55232382
_cell_length_c   7.75196600
_cell_angle_alpha   90.00000000
_cell_angle_beta   104.68020630
_cell_angle_gamma   90.00000000
_symmetry_Int_Tables_number   1
_chemical_formula_structural   Li2Ti2FeBO6
_chemical_formula_sum   'Li2 Ti2 Fe1 B1 O6'
_cell_volume   163.59189950
_cell_formula_units_Z   1
loop_
 _symmetry_equiv_pos_site_id
 _symmetry_equiv_pos_as_xyz
  1  'x, y, z'
loop_
 _atom_site_type_symbol
 _atom_site_label
 _atom_site_symmetry_multiplicity
 _atom_site_fract_x
 _atom_site_fract_y
 _atom_site_fract_z
 _atom_site_occupancy
  Li  Li0  1  0.81673701  0.86699303  0.63347403  1
  Li  Li1  1  0.18326300  0.36699301  0.36652601  1
  Ti  Ti2  1  0.58486500  0.80942603  0.16973002  1
  Ti  Ti3  1  0.41513500  0.30942601  0.83027002  1
  Fe  Fe4  1  0.90738301  0.26707701  0.81476603  1
  O  O5  1  0.70078501  0.59568502  0.40157002  1
  B  B6  1  0.66513000  0.08215800  0.33026002  1
  O  O7  1  0.52946600  0.46345902  0.05893202  1
  O  O8  1  0.47053400  0.96345903  0.94106802  1
  O  O9  1  0.33487000  0.58215802  0.66974001  1
  O  O10  1  0.29921500  0.09568500  0.59843001  1
  O  O11  1  0.09261700  0.76707703  0.18523400  1
