# generated using pymatgen
data_NaAg(PbO3)2
_symmetry_space_group_name_H-M   'P 1'
_cell_length_a   7.36728907
_cell_length_b   7.36728907
_cell_length_c   7.36728907
_cell_angle_alpha   60.00000000
_cell_angle_beta   60.00000000
_cell_angle_gamma   60.00000000
_symmetry_Int_Tables_number   1
_chemical_formula_structural   NaAg(PbO3)2
_chemical_formula_sum   'Na2 Ag2 Pb4 O12'
_cell_volume   282.75359364
_cell_formula_units_Z   2
loop_
 _symmetry_equiv_pos_site_id
 _symmetry_equiv_pos_as_xyz
  1  'x, y, z'
loop_
 _atom_site_type_symbol
 _atom_site_label
 _atom_site_symmetry_multiplicity
 _atom_site_fract_x
 _atom_site_fract_y
 _atom_site_fract_z
 _atom_site_occupancy
  Na  Na0  1  0.37500000  0.87499999  0.87499999  1
  Na  Na1  1  0.87499999  0.87499999  0.37500000  1
  Ag  Ag2  1  0.87499999  0.37500000  0.87499999  1
  Ag  Ag3  1  0.87499999  0.87499999  0.87499999  1
  Pb  Pb4  1  0.87499999  0.37500000  0.37500000  1
  Pb  Pb5  1  0.37500000  0.37500000  0.87499999  1
  Pb  Pb6  1  0.37500000  0.37500000  0.37500000  1
  Pb  Pb7  1  0.37500000  0.87499999  0.37500000  1
  O  O8  1  0.55600399  0.94399599  0.55600399  1
  O  O9  1  0.94399599  0.55600399  0.94399599  1
  O  O10  1  0.94399599  0.55600399  0.55600399  1
  O  O11  1  0.55600399  0.55600399  0.94399599  1
  O  O12  1  0.80600399  0.19399600  0.80600399  1
  O  O13  1  0.80600399  0.80600399  0.19399600  1
  O  O14  1  0.55600399  0.94399599  0.94399599  1
  O  O15  1  0.19399600  0.80600399  0.19399600  1
  O  O16  1  0.19399600  0.80600399  0.80600399  1
  O  O17  1  0.19399600  0.19399600  0.80600399  1
  O  O18  1  0.94399599  0.94399599  0.55600399  1
  O  O19  1  0.80600399  0.19399600  0.19399600  1
