# generated using pymatgen
data_Li5UBiO12
_symmetry_space_group_name_H-M   'P 1'
_cell_length_a   5.77084398
_cell_length_b   6.05243826
_cell_length_c   6.44728613
_cell_angle_alpha   103.14522552
_cell_angle_beta   98.93849182
_cell_angle_gamma   100.01362610
_symmetry_Int_Tables_number   1
_chemical_formula_structural   Li5UBiO12
_chemical_formula_sum   'Li5 U1 Bi1 O12'
_cell_volume   211.43957779
_cell_formula_units_Z   1
loop_
 _symmetry_equiv_pos_site_id
 _symmetry_equiv_pos_as_xyz
  1  'x, y, z'
loop_
 _atom_site_type_symbol
 _atom_site_label
 _atom_site_symmetry_multiplicity
 _atom_site_fract_x
 _atom_site_fract_y
 _atom_site_fract_z
 _atom_site_occupancy
  Li  Li0  1  0.15196905  0.58953101  0.33050202  1
  Li  Li1  1  0.38320505  0.66343101  0.85787102  1
  Li  Li2  1  0.60934203  0.33106600  0.13717302  1
  Li  Li3  1  0.85865104  0.40653000  0.67914702  1
  U  U4  1  0.72437207  0.86228801  0.37653104  1
  Li  Li5  1  0.00195600  0.00160700  0.01111500  1
  Bi  Bi6  1  0.29375201  0.13519800  0.58246000  1
  O  O7  1  0.05100407  0.96961401  0.33349503  1
  O  O8  1  0.04648505  0.69570001  0.90361002  1
  O  O9  1  0.40439307  0.85332101  0.59119003  1
  O  O10  1  0.68121607  0.87899401  0.01086104  1
  O  O11  1  0.18104503  0.41511500  0.58093601  1
  O  O12  1  0.43422605  0.61850301  0.19752403  1
  O  O13  1  0.56202103  0.36031100  0.79312401  1
  O  O14  1  0.82568705  0.59462501  0.42623103  1
  O  O15  1  0.31490701  0.11086600  0.99083900  1
  O  O16  1  0.60206601  0.14575000  0.38590301  1
  O  O17  1  0.95236303  0.30747200  0.11048802  1
  O  O18  1  0.92133801  0.06007700  0.70099601  1
