# generated using pymatgen
data_Nd2MgSi2
_symmetry_space_group_name_H-M   'P 1'
_cell_length_a   4.48573112
_cell_length_b   7.45522499
_cell_length_c   7.45522499
_cell_angle_alpha   90.00000000
_cell_angle_beta   90.00000000
_cell_angle_gamma   90.00000000
_symmetry_Int_Tables_number   1
_chemical_formula_structural   Nd2MgSi2
_chemical_formula_sum   'Nd4 Mg2 Si4'
_cell_volume   249.31863899
_cell_formula_units_Z   2
loop_
 _symmetry_equiv_pos_site_id
 _symmetry_equiv_pos_as_xyz
  1  'x, y, z'
loop_
 _atom_site_type_symbol
 _atom_site_label
 _atom_site_symmetry_multiplicity
 _atom_site_fract_x
 _atom_site_fract_y
 _atom_site_fract_z
 _atom_site_occupancy
  Nd  Nd0  1  0.49999999  0.67729900  0.17729900  1
  Nd  Nd1  1  0.49999999  0.32270100  0.82270100  1
  Nd  Nd2  1  0.49999999  0.17729900  0.32270100  1
  Nd  Nd3  1  0.49999999  0.82270100  0.67729900  1
  Mg  Mg4  1  0.00000000  0.50000000  0.50000000  1
  Mg  Mg5  1  0.00000000  0.00000000  0.00000000  1
  Si  Si6  1  -0.00000000  0.11937300  0.61937300  1
  Si  Si7  1  0.00000000  0.88062700  0.38062700  1
  Si  Si8  1  -0.00000000  0.61937300  0.88062700  1
  Si  Si9  1  -0.00000000  0.38062700  0.11937300  1
