# generated using pymatgen
data_MgZrCr3S8
_symmetry_space_group_name_H-M   'P 1'
_cell_length_a   6.97186995
_cell_length_b   6.97259712
_cell_length_c   6.97406483
_cell_angle_alpha   61.20829773
_cell_angle_beta   61.20805359
_cell_angle_gamma   61.19869614
_symmetry_Int_Tables_number   1
_chemical_formula_structural   MgZrCr3S8
_chemical_formula_sum   'Mg1 Zr1 Cr3 S8'
_cell_volume   246.22357574
_cell_formula_units_Z   1
loop_
 _symmetry_equiv_pos_site_id
 _symmetry_equiv_pos_as_xyz
  1  'x, y, z'
loop_
 _atom_site_type_symbol
 _atom_site_label
 _atom_site_symmetry_multiplicity
 _atom_site_fract_x
 _atom_site_fract_y
 _atom_site_fract_z
 _atom_site_occupancy
  Mg  Mg0  1  0.12103101  0.12100300  0.12086800  1
  Zr  Zr1  1  0.52092503  0.52110599  0.52110400  1
  Cr  Cr2  1  0.98474204  0.50390600  0.50388800  1
  Cr  Cr3  1  0.50393504  0.98472499  0.50384599  1
  Cr  Cr4  1  0.50394203  0.50387300  0.98469200  1
  S  S5  1  0.74177604  0.74169599  0.74165899  1
  S  S6  1  0.70435403  0.26621100  0.26633500  1
  S  S7  1  0.26630202  0.26619600  0.70439700  1
  S  S8  1  0.26622603  0.70437099  0.26629199  1
  S  S9  1  0.74513804  0.74511499  0.26029099  1
  S  S10  1  0.74521703  0.26025500  0.74515600  1
  S  S11  1  0.26126101  0.26127100  0.26126400  1
  S  S12  1  0.26013303  0.74528699  0.74520199  1
