# generated using pymatgen
data_Li2Fe5Sn2Au11
_symmetry_space_group_name_H-M   'P 1'
_cell_length_a   7.05122852
_cell_length_b   7.05122852
_cell_length_c   7.05122852
_cell_angle_alpha   90.24771881
_cell_angle_beta   89.75228119
_cell_angle_gamma   89.75228882
_symmetry_Int_Tables_number   1
_chemical_formula_structural   Li2Fe5Sn2Au11
_chemical_formula_sum   'Li2 Fe5 Sn2 Au11'
_cell_volume   350.57598064
_cell_formula_units_Z   1
loop_
 _symmetry_equiv_pos_site_id
 _symmetry_equiv_pos_as_xyz
  1  'x, y, z'
loop_
 _atom_site_type_symbol
 _atom_site_label
 _atom_site_symmetry_multiplicity
 _atom_site_fract_x
 _atom_site_fract_y
 _atom_site_fract_z
 _atom_site_occupancy
  Li  Li0  1  0.31180798  0.68819202  0.68819199  1
  Li  Li1  1  0.68280201  0.19038401  0.80587098  1
  Fe  Fe2  1  0.19412899  0.31719801  0.19038400  1
  Fe  Fe3  1  0.80961599  0.80587102  0.31719799  1
  Sn  Sn4  1  0.94176903  0.05823100  0.05823099  1
  Fe  Fe5  1  0.80180700  0.45264601  0.13104299  1
  Fe  Fe6  1  0.86895702  0.19819301  0.45264598  1
  Fe  Fe7  1  0.54735401  0.13104300  0.19819299  1
  Au  Au8  1  0.19637696  0.96123003  0.36410000  1
  Sn  Sn9  1  0.12552297  0.70298302  0.04143301  1
  Au  Au10  1  0.45772799  0.63151802  0.29943300  1
  Au  Au11  1  0.70056700  0.54227202  0.63151798  1
  Au  Au12  1  0.63589998  0.80362302  0.96122998  1
  Au  Au13  1  0.95856699  0.87447703  0.70298298  1
  Au  Au14  1  0.29701701  0.04143300  0.87447698  1
  Au  Au15  1  0.36848200  0.29943301  0.54227199  1
  Au  Au16  1  0.03876999  0.36409901  0.80362299  1
  Au  Au17  1  0.06484898  0.56463602  0.43738700  1
  Au  Au18  1  0.56261298  0.93515103  0.56463599  1
  Au  Au19  1  0.43536399  0.43738701  0.93515098  1
