# generated using pymatgen
data_NaYNiBiF8
_symmetry_space_group_name_H-M   'P 1'
_cell_length_a   5.31249809
_cell_length_b   5.31249809
_cell_length_c   6.60674286
_cell_angle_alpha   113.70647430
_cell_angle_beta   113.70647430
_cell_angle_gamma   90.00000000
_symmetry_Int_Tables_number   1
_chemical_formula_structural   NaYNiBiF8
_chemical_formula_sum   'Na1 Y1 Ni1 Bi1 F8'
_cell_volume   153.38614980
_cell_formula_units_Z   1
loop_
 _symmetry_equiv_pos_site_id
 _symmetry_equiv_pos_as_xyz
  1  'x, y, z'
loop_
 _atom_site_type_symbol
 _atom_site_label
 _atom_site_symmetry_multiplicity
 _atom_site_fract_x
 _atom_site_fract_y
 _atom_site_fract_z
 _atom_site_occupancy
  Y  Y0  1  0.25000003  0.75000001  0.50000006  1
  Na  Na1  1  0.50000002  0.50000000  0.00000004  1
  Bi  Bi2  1  0.00000000  0.00000000  0.00000000  1
  Ni  Ni3  1  0.75000001  0.25000000  0.50000005  1
  F  F4  1  0.09573902  0.56142700  0.70222105  1
  F  F5  1  0.89079401  0.34574000  0.20222105  1
  F  F6  1  0.31142704  0.85648101  0.20222006  1
  F  F7  1  0.14351900  0.10920700  0.79778003  1
  F  F8  1  0.60648101  0.14079300  0.70222005  1
  F  F9  1  0.43857302  0.39351900  0.29778004  1
  F  F10  1  0.85920604  0.90426001  0.29777908  1
  F  F11  1  0.65426103  0.68857301  0.79777908  1
