# generated using pymatgen
data_BaVF4
_symmetry_space_group_name_H-M   'P 1'
_cell_length_a   5.93630791
_cell_length_b   6.06865501
_cell_length_c   8.54215240
_cell_angle_alpha   90.00000000
_cell_angle_beta   110.33273315
_cell_angle_gamma   90.00000000
_symmetry_Int_Tables_number   1
_chemical_formula_structural   BaVF4
_chemical_formula_sum   'Ba3 V3 F12'
_cell_volume   288.55973871
_cell_formula_units_Z   3
loop_
 _symmetry_equiv_pos_site_id
 _symmetry_equiv_pos_as_xyz
  1  'x, y, z'
loop_
 _atom_site_type_symbol
 _atom_site_label
 _atom_site_symmetry_multiplicity
 _atom_site_fract_x
 _atom_site_fract_y
 _atom_site_fract_z
 _atom_site_occupancy
  Ba  Ba0  1  0.34889000  0.50000000  0.69778002  1
  Ba  Ba1  1  0.15111000  0.00000000  0.30222001  1
  Ba  Ba2  1  0.65111001  0.50000000  0.30222000  1
  V  V3  1  0.84889001  0.00000000  0.69778001  1
  V  V4  1  0.00000000  0.50000000  -0.00000000  1
  V  V5  1  0.50000000  0.00000000  -0.00000001  1
  F  F6  1  0.11861100  0.50000000  0.23722201  1
  F  F7  1  0.38138900  0.00000000  0.76277802  1
  F  F8  1  0.88138901  0.50000000  0.76277801  1
  F  F9  1  0.61861101  0.00000000  0.23722200  1
  F  F10  1  0.28890500  0.65717000  -0.00000000  1
  F  F11  1  0.21109500  0.15717000  -0.00000000  1
  F  F12  1  0.00221400  0.25000000  0.50000001  1
  F  F13  1  0.49778600  0.75000000  0.50000001  1
  F  F14  1  0.99778601  0.75000000  0.50000000  1
  F  F15  1  0.50221400  0.25000000  0.50000001  1
  F  F16  1  0.71109501  0.34283000  -0.00000001  1
  F  F17  1  0.78890501  0.84283000  -0.00000001  1
