# generated using pymatgen
data_K2RuF6
_symmetry_space_group_name_H-M   'P 1'
_cell_length_a   4.77779913
_cell_length_b   5.75177002
_cell_length_c   5.75177002
_cell_angle_alpha   60.00000000
_cell_angle_beta   90.00000000
_cell_angle_gamma   90.00000000
_symmetry_Int_Tables_number   1
_chemical_formula_structural   K2RuF6
_chemical_formula_sum   'K2 Ru1 F6'
_cell_volume   136.88679152
_cell_formula_units_Z   1
loop_
 _symmetry_equiv_pos_site_id
 _symmetry_equiv_pos_as_xyz
  1  'x, y, z'
loop_
 _atom_site_type_symbol
 _atom_site_label
 _atom_site_symmetry_multiplicity
 _atom_site_fract_x
 _atom_site_fract_y
 _atom_site_fract_z
 _atom_site_occupancy
  K  K0  1  0.29808599  0.33333333  0.33333333  1
  K  K1  1  0.70191398  0.66666667  0.66666667  1
  Ru  Ru2  1  0.00000000  0.00000000  0.00000000  1
  F  F3  1  0.21588899  0.84731700  0.30536600  1
  F  F4  1  0.21588899  0.30536700  0.84731600  1
  F  F5  1  0.21588899  0.84731700  0.84731600  1
  F  F6  1  0.78411098  0.15268300  0.69463400  1
  F  F7  1  0.78411098  0.69463300  0.15268400  1
  F  F8  1  0.78411098  0.15268300  0.15268400  1
