# generated using pymatgen
data_Zr(CoSe2)3
_symmetry_space_group_name_H-M   'P 1'
_cell_length_a   6.68792534
_cell_length_b   6.73008585
_cell_length_c   6.70689392
_cell_angle_alpha   103.20499420
_cell_angle_beta   104.28259277
_cell_angle_gamma   103.17263031
_symmetry_Int_Tables_number   1
_chemical_formula_structural   Zr(CoSe2)3
_chemical_formula_sum   'Zr1 Co3 Se6'
_cell_volume   271.58014874
_cell_formula_units_Z   1
loop_
 _symmetry_equiv_pos_site_id
 _symmetry_equiv_pos_as_xyz
  1  'x, y, z'
loop_
 _atom_site_type_symbol
 _atom_site_label
 _atom_site_symmetry_multiplicity
 _atom_site_fract_x
 _atom_site_fract_y
 _atom_site_fract_z
 _atom_site_occupancy
  Co  Co0  1  -0.00000002  0.49999999  0.00000002  1
  Zr  Zr1  1  0.49999999  0.00000000  0.99999995  1
  Co  Co2  1  0.00000000  0.00000000  0.49999999  1
  Co  Co3  1  0.00000000  0.00000000  0.00000000  1
  Se  Se4  1  0.05427096  0.77345898  0.77468200  1
  Se  Se5  1  0.94572897  0.22654100  0.22531797  1
  Se  Se6  1  0.77857395  0.78229198  0.06886299  1
  Se  Se7  1  0.22142599  0.21770800  0.93113697  1
  Se  Se8  1  0.77562698  0.06888600  0.77806395  1
  Se  Se9  1  0.22437295  0.93111398  0.22193602  1
