# generated using pymatgen
data_Li3Mn2O5
_symmetry_space_group_name_H-M   'P 1'
_cell_length_a   2.90567899
_cell_length_b   6.53412056
_cell_length_c   9.82868290
_cell_angle_alpha   100.92577362
_cell_angle_beta   91.52606201
_cell_angle_gamma   102.70850372
_symmetry_Int_Tables_number   1
_chemical_formula_structural   Li3Mn2O5
_chemical_formula_sum   'Li6 Mn4 O10'
_cell_volume   178.28134486
_cell_formula_units_Z   2
loop_
 _symmetry_equiv_pos_site_id
 _symmetry_equiv_pos_as_xyz
  1  'x, y, z'
loop_
 _atom_site_type_symbol
 _atom_site_label
 _atom_site_symmetry_multiplicity
 _atom_site_fract_x
 _atom_site_fract_y
 _atom_site_fract_z
 _atom_site_occupancy
  Li  Li0  1  0.81235393  0.61777199  0.39876301  1
  Li  Li1  1  0.00000000  0.00000000  0.00000000  1
  Li  Li2  1  0.39070590  0.80481499  0.20882600  1
  Li  Li3  1  0.60929398  0.19518500  0.79117402  1
  Li  Li4  1  0.18764595  0.38222800  0.60123701  1
  Li  Li5  1  0.50000000  0.00000000  0.50000002  1
  Mn  Mn6  1  0.91513690  0.81009399  0.69440101  1
  Mn  Mn7  1  0.08486298  0.18990600  0.30559901  1
  Mn  Mn8  1  0.30678293  0.59616499  0.89815602  1
  Mn  Mn9  1  0.69321695  0.40383500  0.10184400  1
  O  O10  1  0.35449891  0.70801399  0.56828001  1
  O  O11  1  0.53704399  0.11464300  0.16567001  1
  O  O12  1  0.95717489  0.92059599  0.34377700  1
  O  O13  1  0.16713096  0.30975800  0.96229002  1
  O  O14  1  0.78685094  0.51685299  0.75597002  1
  O  O15  1  0.21314894  0.48314699  0.24403000  1
  O  O16  1  0.46295589  0.88535699  0.83433001  1
  O  O17  1  0.83286892  0.69024199  0.03770999  1
  O  O18  1  0.04282499  0.07940400  0.65622302  1
  O  O19  1  0.64550097  0.29198600  0.43172001  1
