# generated using pymatgen
data_ZrPtAu
_symmetry_space_group_name_H-M   'P 1'
_cell_length_a   4.64177418
_cell_length_b   4.64177465
_cell_length_c   5.67322111
_cell_angle_alpha   90.00000000
_cell_angle_beta   90.00000000
_cell_angle_gamma   119.99999237
_symmetry_Int_Tables_number   1
_chemical_formula_structural   ZrPtAu
_chemical_formula_sum   'Zr2 Pt2 Au2'
_cell_volume   105.85915827
_cell_formula_units_Z   2
loop_
 _symmetry_equiv_pos_site_id
 _symmetry_equiv_pos_as_xyz
  1  'x, y, z'
loop_
 _atom_site_type_symbol
 _atom_site_label
 _atom_site_symmetry_multiplicity
 _atom_site_fract_x
 _atom_site_fract_y
 _atom_site_fract_z
 _atom_site_occupancy
  Zr  Zr0  1  0.00000000  0.00000000  0.99563898  1
  Zr  Zr1  1  0.00000000  0.00000000  0.49563899  1
  Au  Au2  1  0.33333328  0.66666665  0.74033699  1
  Au  Au3  1  0.66666662  0.33333333  0.24033700  1
  Pt  Pt4  1  0.33333328  0.66666665  0.25502399  1
  Pt  Pt5  1  0.66666662  0.33333333  0.75502399  1
