# generated using pymatgen
data_Zr2Sn
_symmetry_space_group_name_H-M   'P 1'
_cell_length_a   3.43159103
_cell_length_b   8.41008377
_cell_length_c   8.41008472
_cell_angle_alpha   120.00000000
_cell_angle_beta   90.00000000
_cell_angle_gamma   90.00000000
_symmetry_Int_Tables_number   1
_chemical_formula_structural   Zr2Sn
_chemical_formula_sum   'Zr6 Sn3'
_cell_volume   210.19716237
_cell_formula_units_Z   3
loop_
 _symmetry_equiv_pos_site_id
 _symmetry_equiv_pos_as_xyz
  1  'x, y, z'
loop_
 _atom_site_type_symbol
 _atom_site_label
 _atom_site_symmetry_multiplicity
 _atom_site_fract_x
 _atom_site_fract_y
 _atom_site_fract_z
 _atom_site_occupancy
  Zr  Zr0  1  -0.00000000  0.70906303  0.70906301  1
  Zr  Zr1  1  -0.00000000  0.29093701  0.99999999  1
  Zr  Zr2  1  -0.00000000  0.00000000  0.29093699  1
  Zr  Zr3  1  0.50000000  0.37097902  0.37097901  1
  Zr  Zr4  1  0.50000000  0.62902103  0.00000003  1
  Zr  Zr5  1  0.50000000  0.00000000  0.62902099  1
  Sn  Sn6  1  0.50000000  0.00000000  -0.00000000  1
  Sn  Sn7  1  -0.00000000  0.66666670  0.33333335  1
  Sn  Sn8  1  -0.00000000  0.33333335  0.66666667  1
