# generated using pymatgen
data_Li4FePt3
_symmetry_space_group_name_H-M   'P 1'
_cell_length_a   6.82148266
_cell_length_b   6.82148266
_cell_length_c   6.82148266
_cell_angle_alpha   61.62859726
_cell_angle_beta   61.62859726
_cell_angle_gamma   61.62860489
_symmetry_Int_Tables_number   1
_chemical_formula_structural   Li4FePt3
_chemical_formula_sum   'Li8 Fe2 Pt6'
_cell_volume   232.64892119
_cell_formula_units_Z   2
loop_
 _symmetry_equiv_pos_site_id
 _symmetry_equiv_pos_as_xyz
  1  'x, y, z'
loop_
 _atom_site_type_symbol
 _atom_site_label
 _atom_site_symmetry_multiplicity
 _atom_site_fract_x
 _atom_site_fract_y
 _atom_site_fract_z
 _atom_site_occupancy
  Li  Li0  1  0.72489805  0.72489800  0.72489792  1
  Li  Li1  1  0.27510202  0.27510200  0.27510197  1
  Li  Li2  1  0.15554603  0.44287500  0.65740596  1
  Li  Li3  1  0.44287504  0.65740600  0.15554595  1
  Li  Li4  1  0.65740602  0.15554600  0.44287496  1
  Li  Li5  1  0.84445403  0.34259400  0.55712494  1
  Li  Li6  1  0.55712505  0.84445400  0.34259393  1
  Li  Li7  1  0.34259404  0.55712500  0.84445394  1
  Fe  Fe8  1  0.10087201  0.10087200  0.10087199  1
  Fe  Fe9  1  0.89912806  0.89912800  0.89912791  1
  Pt  Pt10  1  0.50000001  0.10811700  0.89188296  1
  Pt  Pt11  1  0.10811705  0.89188300  0.49999994  1
  Pt  Pt12  1  0.89188304  0.50000000  0.10811695  1
  Pt  Pt13  1  0.00000004  0.73635500  0.26364496  1
  Pt  Pt14  1  0.73635503  0.26364500  0.99999994  1
  Pt  Pt15  1  0.26364500  0.00000000  0.73635497  1
