# generated using pymatgen
data_VCu2O5
_symmetry_space_group_name_H-M   'P 1'
_cell_length_a   3.72668695
_cell_length_b   5.06163120
_cell_length_c   11.71972847
_cell_angle_alpha   90.00000000
_cell_angle_beta   90.00000000
_cell_angle_gamma   90.00000000
_symmetry_Int_Tables_number   1
_chemical_formula_structural   VCu2O5
_chemical_formula_sum   'V2 Cu4 O10'
_cell_volume   221.07058556
_cell_formula_units_Z   2
loop_
 _symmetry_equiv_pos_site_id
 _symmetry_equiv_pos_as_xyz
  1  'x, y, z'
loop_
 _atom_site_type_symbol
 _atom_site_label
 _atom_site_symmetry_multiplicity
 _atom_site_fract_x
 _atom_site_fract_y
 _atom_site_fract_z
 _atom_site_occupancy
  Cu  Cu0  1  0.50000001  0.40521698  0.52373398  1
  V  V1  1  0.00000000  0.59478298  0.02373400  1
  Cu  Cu2  1  0.50000001  0.10593600  0.15612999  1
  V  V3  1  0.00000000  0.89406396  0.65612997  1
  Cu  Cu4  1  0.50000001  0.89849896  0.85484197  1
  Cu  Cu5  1  0.00000000  0.10150100  0.35484199  1
  O  O6  1  0.00000000  0.42594298  0.37211699  1
  O  O7  1  0.50000001  0.57405698  0.87211697  1
  O  O8  1  0.00000000  0.02792400  0.18572699  1
  O  O9  1  0.50000001  0.97207596  0.68572697  1
  O  O10  1  0.00000000  0.01959000  0.51665298  1
  O  O11  1  0.50000001  0.98040996  0.01665300  1
  O  O12  1  0.50000001  0.43015898  0.14049399  1
  O  O13  1  -0.00000000  0.56984098  0.64049397  1
  O  O14  1  0.50000001  0.01008000  0.32226199  1
  O  O15  1  0.00000000  0.98991996  0.82226197  1
