# generated using pymatgen
data_Ce2GaRh3
_symmetry_space_group_name_H-M   'P 1'
_cell_length_a   5.29028606
_cell_length_b   5.29028606
_cell_length_c   5.29028559
_cell_angle_alpha   64.69766998
_cell_angle_beta   64.69766998
_cell_angle_gamma   64.69766235
_symmetry_Int_Tables_number   1
_chemical_formula_structural   Ce2GaRh3
_chemical_formula_sum   'Ce2 Ga1 Rh3'
_cell_volume   115.46227563
_cell_formula_units_Z   1
loop_
 _symmetry_equiv_pos_site_id
 _symmetry_equiv_pos_as_xyz
  1  'x, y, z'
loop_
 _atom_site_type_symbol
 _atom_site_label
 _atom_site_symmetry_multiplicity
 _atom_site_fract_x
 _atom_site_fract_y
 _atom_site_fract_z
 _atom_site_occupancy
  Ce  Ce0  1  0.12919298  0.12919300  0.12919302  1
  Ce  Ce1  1  0.87080689  0.87080702  0.87080713  1
  Ga  Ga2  1  0.49999994  0.50000001  0.50000007  1
  Rh  Rh3  1  0.49999994  0.50000001  0.00000008  1
  Rh  Rh4  1  0.49999999  0.00000000  0.50000003  1
  Rh  Rh5  1  -0.00000006  0.50000001  0.50000004  1
