# generated using pymatgen
data_Ho3Sc3NiGe5
_symmetry_space_group_name_H-M   'P 1'
_cell_length_a   3.04413295
_cell_length_b   9.16079617
_cell_length_c   9.16079521
_cell_angle_alpha   120.00000000
_cell_angle_beta   90.00000000
_cell_angle_gamma   90.00000000
_symmetry_Int_Tables_number   1
_chemical_formula_structural   Ho3Sc3NiGe5
_chemical_formula_sum   'Ho3 Sc3 Ni1 Ge5'
_cell_volume   221.23846771
_cell_formula_units_Z   1
loop_
 _symmetry_equiv_pos_site_id
 _symmetry_equiv_pos_as_xyz
  1  'x, y, z'
loop_
 _atom_site_type_symbol
 _atom_site_label
 _atom_site_symmetry_multiplicity
 _atom_site_fract_x
 _atom_site_fract_y
 _atom_site_fract_z
 _atom_site_occupancy
  Ho  Ho0  1  -0.00000000  0.49999997  -0.00000003  1
  Ho  Ho1  1  -0.00000000  0.49999997  0.49999996  1
  Ho  Ho2  1  -0.00000000  0.00000000  0.49999999  1
  Sc  Sc3  1  0.00000000  0.00000000  0.00000000  1
  Sc  Sc4  1  0.50000001  0.33333332  0.66666664  1
  Sc  Sc5  1  0.50000001  0.66666663  0.33333328  1
  Ge  Ge6  1  0.50000001  0.17288499  0.34576998  1
  Ge  Ge7  1  0.50000001  0.82711496  0.65422994  1
  Ge  Ge8  1  0.50000001  0.17288499  0.82711498  1
  Ni  Ni9  1  0.50000001  0.82711496  0.17288494  1
  Ge  Ge10  1  0.50000001  0.65422997  0.82711495  1
  Ge  Ge11  1  0.50000001  0.34576998  0.17288497  1
