# generated using pymatgen
data_NdSnPt
_symmetry_space_group_name_H-M   'P 1'
_cell_length_a   4.66105413
_cell_length_b   7.26300383
_cell_length_c   7.99791908
_cell_angle_alpha   90.00000000
_cell_angle_beta   90.00000000
_cell_angle_gamma   90.00000000
_symmetry_Int_Tables_number   1
_chemical_formula_structural   NdSnPt
_chemical_formula_sum   'Nd4 Sn4 Pt4'
_cell_volume   270.75558627
_cell_formula_units_Z   4
loop_
 _symmetry_equiv_pos_site_id
 _symmetry_equiv_pos_as_xyz
  1  'x, y, z'
loop_
 _atom_site_type_symbol
 _atom_site_label
 _atom_site_symmetry_multiplicity
 _atom_site_fract_x
 _atom_site_fract_y
 _atom_site_fract_z
 _atom_site_occupancy
  Nd  Nd0  1  0.74999998  0.01024900  0.20805500  1
  Nd  Nd1  1  0.24999999  0.98975102  0.79194499  1
  Nd  Nd2  1  0.74999998  0.51024901  0.29194500  1
  Nd  Nd3  1  0.24999999  0.48975101  0.70805499  1
  Sn  Sn4  1  0.74999998  0.19654800  0.58880399  1
  Sn  Sn5  1  0.24999999  0.80345202  0.41119600  1
  Sn  Sn6  1  0.74999998  0.69654802  0.91119599  1
  Sn  Sn7  1  0.24999999  0.30345201  0.08880400  1
  Pt  Pt8  1  0.74999998  0.79686102  0.58254599  1
  Pt  Pt9  1  0.24999999  0.20313900  0.41745400  1
  Pt  Pt10  1  0.74999998  0.29686101  0.91745399  1
  Pt  Pt11  1  0.24999999  0.70313902  0.08254600  1
