# generated using pymatgen
data_LiTiO2
_symmetry_space_group_name_H-M   'P 1'
_cell_length_a   3.04479313
_cell_length_b   5.30804729
_cell_length_c   7.96289396
_cell_angle_alpha   108.37507629
_cell_angle_beta   101.02693939
_cell_angle_gamma   89.98729706
_symmetry_Int_Tables_number   1
_chemical_formula_structural   LiTiO2
_chemical_formula_sum   'Li3 Ti3 O6'
_cell_volume   119.62930096
_cell_formula_units_Z   3
loop_
 _symmetry_equiv_pos_site_id
 _symmetry_equiv_pos_as_xyz
  1  'x, y, z'
loop_
 _atom_site_type_symbol
 _atom_site_label
 _atom_site_symmetry_multiplicity
 _atom_site_fract_x
 _atom_site_fract_y
 _atom_site_fract_z
 _atom_site_occupancy
  Li  Li0  1  0.25046298  0.25053601  0.50098302  1
  Li  Li1  1  0.75048893  0.75036203  0.49979904  1
  Li  Li2  1  0.40815094  0.74738103  0.81641204  1
  Ti  Ti3  1  0.58906697  0.25733701  0.17934602  1
  Ti  Ti4  1  0.90970196  0.24272001  0.82129204  1
  Ti  Ti5  1  0.09168595  0.75237303  0.18289402  1
  O  O6  1  0.50342395  0.52589302  0.00834202  1
  O  O7  1  0.99483591  0.97441303  0.99143606  1
  O  O8  1  0.16254396  0.51174902  0.32357302  1
  O  O9  1  0.65852392  0.98699103  0.31638104  1
  O  O10  1  0.84242494  0.51239702  0.68362204  1
  O  O11  1  0.33872993  0.98784803  0.67592004  1
