# generated using pymatgen
data_Nb5Mo3
_symmetry_space_group_name_H-M   'P 1'
_cell_length_a   5.22171116
_cell_length_b   7.87177467
_cell_length_c   7.87177467
_cell_angle_alpha   83.68428040
_cell_angle_beta   70.62963867
_cell_angle_gamma   70.62964630
_symmetry_Int_Tables_number   1
_chemical_formula_structural   Nb5Mo3
_chemical_formula_sum   'Nb10 Mo6'
_cell_volume   287.96832548
_cell_formula_units_Z   2
loop_
 _symmetry_equiv_pos_site_id
 _symmetry_equiv_pos_as_xyz
  1  'x, y, z'
loop_
 _atom_site_type_symbol
 _atom_site_label
 _atom_site_symmetry_multiplicity
 _atom_site_fract_x
 _atom_site_fract_y
 _atom_site_fract_z
 _atom_site_occupancy
  Nb  Nb0  1  0.72740091  0.85826300  0.70870300  1
  Nb  Nb1  1  0.29436698  0.14173700  0.29129700  1
  Nb  Nb2  1  0.77259897  0.29129700  0.14173697  1
  Nb  Nb3  1  0.20563293  0.70870300  0.85826303  1
  Nb  Nb4  1  0.58566393  0.70870300  0.14173699  1
  Nb  Nb5  1  0.43610297  0.29129700  0.85826301  1
  Nb  Nb6  1  0.06389599  0.14173700  0.70870302  1
  Nb  Nb7  1  0.91433691  0.85826300  0.29129698  1
  Nb  Nb8  1  0.74999995  0.50000000  0.49999999  1
  Nb  Nb9  1  0.24999995  0.50000000  0.50000001  1
  Mo  Mo10  1  0.74999999  0.00000000  -0.00000003  1
  Mo  Mo11  1  0.16387095  0.50000000  0.17225901  1
  Mo  Mo12  1  0.83612895  0.50000000  0.82774099  1
  Mo  Mo13  1  0.33612992  0.82774100  0.50000001  1
  Mo  Mo14  1  0.66386998  0.17225900  0.49999998  1
  Mo  Mo15  1  0.25000000  0.00000000  -0.00000001  1
