# generated using pymatgen
data_Cr(CuS2)2
_symmetry_space_group_name_H-M   'P 1'
_cell_length_a   6.97522783
_cell_length_b   7.01613665
_cell_length_c   7.01613665
_cell_angle_alpha   60.65812683
_cell_angle_beta   60.19268799
_cell_angle_gamma   60.19268799
_symmetry_Int_Tables_number   1
_chemical_formula_structural   Cr(CuS2)2
_chemical_formula_sum   'Cr2 Cu4 S8'
_cell_volume   244.69466922
_cell_formula_units_Z   2
loop_
 _symmetry_equiv_pos_site_id
 _symmetry_equiv_pos_as_xyz
  1  'x, y, z'
loop_
 _atom_site_type_symbol
 _atom_site_label
 _atom_site_symmetry_multiplicity
 _atom_site_fract_x
 _atom_site_fract_y
 _atom_site_fract_z
 _atom_site_occupancy
  Cr  Cr0  1  -0.00000001  0.49999999  -0.00000000  1
  Cr  Cr1  1  0.50000001  0.49999999  -0.00000001  1
  Cu  Cu2  1  0.12469800  0.12530200  0.62530198  1
  Cu  Cu3  1  0.87530202  0.87469798  0.37469798  1
  Cu  Cu4  1  0.50000001  0.49999999  0.49999998  1
  Cu  Cu5  1  0.50000002  0.00000000  -0.00000001  1
  S  S6  1  0.27469300  0.74325199  0.24325199  1
  S  S7  1  0.73880302  0.74325199  0.24325198  1
  S  S8  1  0.74332302  0.74140399  0.77194897  1
  S  S9  1  0.74332402  0.27194799  0.24140398  1
  S  S10  1  0.72530702  0.25674800  0.75674797  1
  S  S11  1  0.26119701  0.25674800  0.75674798  1
  S  S12  1  0.25667701  0.25859600  0.22805099  1
  S  S13  1  0.25667600  0.72805199  0.75859598  1
