# generated using pymatgen
data_Bi7Pt5
_symmetry_space_group_name_H-M   'P 1'
_cell_length_a   6.89695120
_cell_length_b   7.01564217
_cell_length_c   7.08323765
_cell_angle_alpha   115.94724274
_cell_angle_beta   90.00000000
_cell_angle_gamma   90.00000000
_symmetry_Int_Tables_number   1
_chemical_formula_structural   Bi7Pt5
_chemical_formula_sum   'Bi7 Pt5'
_cell_volume   308.18492817
_cell_formula_units_Z   1
loop_
 _symmetry_equiv_pos_site_id
 _symmetry_equiv_pos_as_xyz
  1  'x, y, z'
loop_
 _atom_site_type_symbol
 _atom_site_label
 _atom_site_symmetry_multiplicity
 _atom_site_fract_x
 _atom_site_fract_y
 _atom_site_fract_z
 _atom_site_occupancy
  Bi  Bi0  1  0.64189698  0.34678398  0.17081497  1
  Bi  Bi1  1  0.14189700  0.65321596  0.32918495  1
  Bi  Bi2  1  0.35810299  0.65321596  0.82918495  1
  Bi  Bi3  1  0.85810298  0.34678398  0.67081497  1
  Pt  Pt4  1  0.36369899  0.14539999  0.37425099  1
  Bi  Bi5  1  0.86369898  0.85459995  0.12574894  1
  Bi  Bi6  1  0.63630098  0.85459995  0.62574893  1
  Bi  Bi7  1  0.13630100  0.14539999  0.87425098  1
  Pt  Pt8  1  0.00300600  0.27085999  0.28605098  1
  Pt  Pt9  1  0.50300599  0.72913996  0.21394895  1
  Pt  Pt10  1  0.99699397  0.72913996  0.71394894  1
  Pt  Pt11  1  0.49699399  0.27085999  0.78605097  1
