# generated using pymatgen
data_CaMnO3
_symmetry_space_group_name_H-M   'P 1'
_cell_length_a   5.46855497
_cell_length_b   5.47801971
_cell_length_c   7.67474413
_cell_angle_alpha   89.90394592
_cell_angle_beta   90.02974701
_cell_angle_gamma   89.84010315
_symmetry_Int_Tables_number   1
_chemical_formula_structural   CaMnO3
_chemical_formula_sum   'Ca4 Mn4 O12'
_cell_volume   229.90992374
_cell_formula_units_Z   4
loop_
 _symmetry_equiv_pos_site_id
 _symmetry_equiv_pos_as_xyz
  1  'x, y, z'
loop_
 _atom_site_type_symbol
 _atom_site_label
 _atom_site_symmetry_multiplicity
 _atom_site_fract_x
 _atom_site_fract_y
 _atom_site_fract_z
 _atom_site_occupancy
  Ca  Ca0  1  0.00188100  0.01448900  0.24762500  1
  Ca  Ca1  1  0.99841501  0.98552398  0.75242405  1
  Ca  Ca2  1  0.49633701  0.50949599  0.75396703  1
  Ca  Ca3  1  0.50406801  0.49044499  0.24588202  1
  Mn  Mn4  1  0.50024603  0.99994898  0.99996304  1
  Mn  Mn5  1  0.00013002  0.49996399  0.49996301  1
  Mn  Mn6  1  0.50012403  0.99994098  0.49999203  1
  Mn  Mn7  1  0.00034302  0.50007599  0.99977602  1
  O  O8  1  0.75122999  0.24832899  0.45737703  1
  O  O9  1  0.24913103  0.75194998  0.54271602  1
  O  O10  1  0.49963702  0.91994998  0.25081903  1
  O  O11  1  0.50107899  0.08005100  0.74926602  1
  O  O12  1  0.74654201  0.74691098  0.95355804  1
  O  O13  1  0.25404300  0.25295499  0.04650901  1
  O  O14  1  0.25199500  0.25148199  0.45478701  1
  O  O15  1  0.74846201  0.74862098  0.54530303  1
  O  O16  1  0.99388899  0.58535999  0.25083904  1
  O  O17  1  0.00678902  0.41465199  0.74920101  1
  O  O18  1  0.24982003  0.75440298  0.95503603  1
  O  O19  1  0.75084799  0.24544899  0.04499702  1
