# generated using pymatgen
data_V2CuS4
_symmetry_space_group_name_H-M   'P 1'
_cell_length_a   3.53445005
_cell_length_b   6.12905264
_cell_length_c   6.21748209
_cell_angle_alpha   117.30950928
_cell_angle_beta   106.51311493
_cell_angle_gamma   90.00000000
_symmetry_Int_Tables_number   1
_chemical_formula_structural   V2CuS4
_chemical_formula_sum   'V2 Cu1 S4'
_cell_volume   113.38766668
_cell_formula_units_Z   1
loop_
 _symmetry_equiv_pos_site_id
 _symmetry_equiv_pos_as_xyz
  1  'x, y, z'
loop_
 _atom_site_type_symbol
 _atom_site_label
 _atom_site_symmetry_multiplicity
 _atom_site_fract_x
 _atom_site_fract_y
 _atom_site_fract_z
 _atom_site_occupancy
  V  V0  1  0.26013698  0.28773799  0.52027398  1
  V  V1  1  0.00240600  0.00241300  0.00481200  1
  Cu  Cu2  1  0.73666496  0.70966398  0.47332997  1
  S  S3  1  0.88251996  0.55166398  0.76503996  1
  S  S4  1  0.11776398  0.45129298  0.23552799  1
  S  S5  1  0.63516295  0.97478397  0.27032597  1
  S  S6  1  0.36534499  0.02244400  0.73068998  1
