# generated using pymatgen
data_ErAlNi
_symmetry_space_group_name_H-M   'P 1'
_cell_length_a   5.39379215
_cell_length_b   5.39547396
_cell_length_c   8.73601818
_cell_angle_alpha   90.00000000
_cell_angle_beta   90.00000000
_cell_angle_gamma   118.16435242
_symmetry_Int_Tables_number   1
_chemical_formula_structural   ErAlNi
_chemical_formula_sum   'Er4 Al4 Ni4'
_cell_volume   224.13391755
_cell_formula_units_Z   4
loop_
 _symmetry_equiv_pos_site_id
 _symmetry_equiv_pos_as_xyz
  1  'x, y, z'
loop_
 _atom_site_type_symbol
 _atom_site_label
 _atom_site_symmetry_multiplicity
 _atom_site_fract_x
 _atom_site_fract_y
 _atom_site_fract_z
 _atom_site_occupancy
  Er  Er0  1  0.66854103  0.33150300  0.43536499  1
  Er  Er1  1  0.33391202  0.66609099  0.56445199  1
  Er  Er2  1  0.33391202  0.66609099  0.93554798  1
  Er  Er3  1  0.66854103  0.33150300  0.06463500  1
  Al  Al4  1  0.16304102  0.83703599  0.24999999  1
  Al  Al5  1  0.82055304  0.65284099  0.74999998  1
  Al  Al6  1  0.34706002  0.17937600  0.74999998  1
  Al  Al7  1  0.82978204  0.17012800  0.74999998  1
  Ni  Ni8  1  0.01076201  0.98915899  0.51166099  1
  Ni  Ni9  1  0.01076201  0.98915899  0.98833898  1
  Ni  Ni10  1  0.16073401  0.34761200  0.24999999  1
  Ni  Ni11  1  0.65239904  0.83950399  0.24999999  1
