# generated using pymatgen
data_Na8InAu11
_symmetry_space_group_name_H-M   'P 1'
_cell_length_a   7.96585512
_cell_length_b   8.45179844
_cell_length_c   10.60051441
_cell_angle_alpha   90.00000000
_cell_angle_beta   90.00000000
_cell_angle_gamma   110.66858673
_symmetry_Int_Tables_number   1
_chemical_formula_structural   Na8InAu11
_chemical_formula_sum   'Na8 In1 Au11'
_cell_volume   667.75351492
_cell_formula_units_Z   1
loop_
 _symmetry_equiv_pos_site_id
 _symmetry_equiv_pos_as_xyz
  1  'x, y, z'
loop_
 _atom_site_type_symbol
 _atom_site_label
 _atom_site_symmetry_multiplicity
 _atom_site_fract_x
 _atom_site_fract_y
 _atom_site_fract_z
 _atom_site_occupancy
  Na  Na0  1  0.76761599  0.23771800  0.97117596  1
  Na  Na1  1  0.76761599  0.23771800  0.52882398  1
  Na  Na2  1  0.23238399  0.76228199  0.47117598  1
  Na  Na3  1  0.23238399  0.76228199  0.02882400  1
  Na  Na4  1  0.25797499  0.20499100  0.74999997  1
  Na  Na5  1  0.74202498  0.79500899  0.24999999  1
  Au  Au6  1  0.87595099  0.07032300  0.74999997  1
  Na  Na7  1  0.62508698  0.86173698  0.00876300  1
  Na  Na8  1  0.62508698  0.86173698  0.49123698  1
  Au  Au9  1  0.15522599  0.42027099  0.92307096  1
  In  In10  1  0.15522599  0.42027099  0.57692898  1
  Au  Au11  1  0.80602699  0.15203900  0.24999999  1
  Au  Au12  1  0.36049099  0.61473199  0.24999999  1
  Au  Au13  1  0.63950899  0.38526799  0.74999997  1
  Au  Au14  1  0.19397299  0.84796098  0.74999997  1
  Au  Au15  1  0.84477398  0.57972899  0.42307098  1
  Au  Au16  1  0.84477398  0.57972899  0.07692900  1
  Au  Au17  1  0.37491299  0.13826300  0.50876298  1
  Au  Au18  1  0.37491299  0.13826300  0.99123696  1
  Au  Au19  1  0.12404899  0.92967698  0.24999999  1
