# generated using pymatgen
data_TmGaGe
_symmetry_space_group_name_H-M   'P 1'
_cell_length_a   4.23664284
_cell_length_b   7.19543600
_cell_length_c   7.61825895
_cell_angle_alpha   90.00000000
_cell_angle_beta   90.00000000
_cell_angle_gamma   90.00000000
_symmetry_Int_Tables_number   1
_chemical_formula_structural   TmGaGe
_chemical_formula_sum   'Tm4 Ga4 Ge4'
_cell_volume   232.23875712
_cell_formula_units_Z   4
loop_
 _symmetry_equiv_pos_site_id
 _symmetry_equiv_pos_as_xyz
  1  'x, y, z'
loop_
 _atom_site_type_symbol
 _atom_site_label
 _atom_site_symmetry_multiplicity
 _atom_site_fract_x
 _atom_site_fract_y
 _atom_site_fract_z
 _atom_site_occupancy
  Tm  Tm0  1  0.75000003  0.98962100  0.68344900  1
  Tm  Tm1  1  0.25000001  0.01037900  0.31655100  1
  Tm  Tm2  1  0.25000001  0.51037900  0.18344900  1
  Tm  Tm3  1  0.75000003  0.48962100  0.81655101  1
  Ga  Ga4  1  0.75000003  0.87044800  0.05704800  1
  Ga  Ga5  1  0.25000001  0.62955200  0.55704800  1
  Ga  Ga6  1  0.75000003  0.37044800  0.44295200  1
  Ga  Ga7  1  0.25000001  0.12955200  0.94295201  1
  Ge  Ge8  1  0.75000003  0.21323400  0.11193600  1
  Ge  Ge9  1  0.25000001  0.78676600  0.88806401  1
  Ge  Ge10  1  0.25000001  0.28676600  0.61193600  1
  Ge  Ge11  1  0.75000003  0.71323400  0.38806400  1
