# generated using pymatgen
data_Cs2Cu2SbAsSe6
_symmetry_space_group_name_H-M   'P 1'
_cell_length_a   7.56762409
_cell_length_b   7.56762409
_cell_length_c   8.49486732
_cell_angle_alpha   63.54957199
_cell_angle_beta   63.54957199
_cell_angle_gamma   60.00000000
_symmetry_Int_Tables_number   1
_chemical_formula_structural   Cs2Cu2SbAsSe6
_chemical_formula_sum   'Cs2 Cu2 Sb1 As1 Se6'
_cell_volume   361.31588722
_cell_formula_units_Z   1
loop_
 _symmetry_equiv_pos_site_id
 _symmetry_equiv_pos_as_xyz
  1  'x, y, z'
loop_
 _atom_site_type_symbol
 _atom_site_label
 _atom_site_symmetry_multiplicity
 _atom_site_fract_x
 _atom_site_fract_y
 _atom_site_fract_z
 _atom_site_occupancy
  Cs  Cs0  1  0.19958800  0.19958800  0.40123601  1
  Cs  Cs1  1  0.80041201  0.80041199  0.59876404  1
  Cu  Cu2  1  0.50000000  0.00000000  0.00000001  1
  Cu  Cu3  1  0.00000001  0.50000000  0.00000001  1
  As  As4  1  0.00000000  0.00000000  0.00000000  1
  Se  Se5  1  0.50000001  0.50000000  0.00000003  1
  Se  Se6  1  0.22711300  0.22711300  0.83206401  1
  Sb  Sb7  1  0.77288701  0.77288699  0.16793604  1
  Se  Se8  1  0.71371000  0.22711300  0.83206403  1
  Se  Se9  1  0.22711301  0.71371000  0.83206402  1
  Se  Se10  1  0.77288700  0.28629000  0.16793603  1
  Se  Se11  1  0.28629001  0.77288699  0.16793603  1
