# generated using pymatgen
data_U3Bi4
_symmetry_space_group_name_H-M   'P 1'
_cell_length_a   8.18583679
_cell_length_b   8.18583679
_cell_length_c   8.18583679
_cell_angle_alpha   109.47122192
_cell_angle_beta   109.47122192
_cell_angle_gamma   109.47122192
_symmetry_Int_Tables_number   1
_chemical_formula_structural   U3Bi4
_chemical_formula_sum   'U6 Bi8'
_cell_volume   422.24773926
_cell_formula_units_Z   2
loop_
 _symmetry_equiv_pos_site_id
 _symmetry_equiv_pos_as_xyz
  1  'x, y, z'
loop_
 _atom_site_type_symbol
 _atom_site_label
 _atom_site_symmetry_multiplicity
 _atom_site_fract_x
 _atom_site_fract_y
 _atom_site_fract_z
 _atom_site_occupancy
  U  U0  1  0.25000002  0.37500001  0.12500002  1
  U  U1  1  0.37500004  0.62500001  0.75000003  1
  U  U2  1  0.12500005  0.87500002  0.25000005  1
  U  U3  1  0.87500004  0.75000002  0.62500005  1
  U  U4  1  0.62500001  0.25000001  0.87500001  1
  U  U5  1  0.75000000  0.12500000  0.37500002  1
  Bi  Bi6  1  0.34018500  0.00000000  0.99999999  1
  Bi  Bi7  1  0.65981504  0.65981502  0.15981505  1
  Bi  Bi8  1  0.50000005  0.84018502  0.50000005  1
  Bi  Bi9  1  1.00000002  0.50000001  0.34018505  1
  Bi  Bi10  1  0.50000002  0.34018501  0.50000002  1
  Bi  Bi11  1  1.00000002  0.50000001  0.84018504  1
  Bi  Bi12  1  0.84018506  1.00000002  1.00000006  1
  Bi  Bi13  1  0.15981501  0.15981500  0.65981500  1
