# generated using pymatgen
data_Gd4MnSbS4
_symmetry_space_group_name_H-M   'P 1'
_cell_length_a   4.08277369
_cell_length_b   4.08277369
_cell_length_c   16.77644157
_cell_angle_alpha   83.01082611
_cell_angle_beta   83.01082611
_cell_angle_gamma   60.00000381
_symmetry_Int_Tables_number   1
_chemical_formula_structural   Gd4MnSbS4
_chemical_formula_sum   'Gd4 Mn1 Sb1 S4'
_cell_volume   239.77909700
_cell_formula_units_Z   1
loop_
 _symmetry_equiv_pos_site_id
 _symmetry_equiv_pos_as_xyz
  1  'x, y, z'
loop_
 _atom_site_type_symbol
 _atom_site_label
 _atom_site_symmetry_multiplicity
 _atom_site_fract_x
 _atom_site_fract_y
 _atom_site_fract_z
 _atom_site_occupancy
  Gd  Gd0  1  0.70633699  0.70633701  0.88098902  1
  Gd  Gd1  1  0.10094000  0.10094000  0.69718002  1
  Gd  Gd2  1  0.49999999  0.50000001  0.50000001  1
  Gd  Gd3  1  0.29366300  0.29366300  0.11901100  1
  Mn  Mn4  1  0.89905998  0.89906001  0.30282000  1
  Sb  Sb5  1  0.00000000  0.00000000  0.00000000  1
  S  S6  1  0.59673799  0.59673801  0.20978600  1
  S  S7  1  0.19896600  0.19896600  0.40310201  1
  S  S8  1  0.80103399  0.80103401  0.59689801  1
  S  S9  1  0.40326199  0.40326201  0.79021402  1
