# generated using pymatgen
data_La2Rh7
_symmetry_space_group_name_H-M   'P 1'
_cell_length_a   5.33838415
_cell_length_b   5.33838415
_cell_length_c   13.66911983
_cell_angle_alpha   78.73940277
_cell_angle_beta   78.73940277
_cell_angle_gamma   59.99999619
_symmetry_Int_Tables_number   1
_chemical_formula_structural   La2Rh7
_chemical_formula_sum   'La4 Rh14'
_cell_volume   328.67010717
_cell_formula_units_Z   2
loop_
 _symmetry_equiv_pos_site_id
 _symmetry_equiv_pos_as_xyz
  1  'x, y, z'
loop_
 _atom_site_type_symbol
 _atom_site_label
 _atom_site_symmetry_multiplicity
 _atom_site_fract_x
 _atom_site_fract_y
 _atom_site_fract_z
 _atom_site_occupancy
  La  La0  1  0.94974295  0.94974302  0.15077105  1
  La  La1  1  0.05025700  0.05025700  0.84922902  1
  La  La2  1  0.85333995  0.85334001  0.43998005  1
  La  La3  1  0.14665999  0.14666000  0.56002002  1
  Rh  Rh4  1  0.49999997  0.50000001  0.50000003  1
  Rh  Rh5  1  0.72229696  0.72229701  0.83310905  1
  Rh  Rh6  1  0.27770298  0.27770300  0.16689102  1
  Rh  Rh7  1  0.61151397  0.61151401  0.16545803  1
  Rh  Rh8  1  0.38848598  0.38848601  0.83454204  1
  Rh  Rh9  1  0.49999997  0.50000001  0.00000002  1
  Rh  Rh10  1  0.50000000  0.00000000  1.00000003  1
  Rh  Rh11  1  -0.00000002  0.50000001  1.00000003  1
  Rh  Rh12  1  0.89055397  0.39024401  0.32895804  1
  Rh  Rh13  1  0.39024398  0.39024401  0.32895802  1
  Rh  Rh14  1  0.39024395  0.89055401  0.32895804  1
  Rh  Rh15  1  0.10944597  0.60975601  0.67104203  1
  Rh  Rh16  1  0.60975597  0.60975601  0.67104204  1
  Rh  Rh17  1  0.60975599  0.10944600  0.67104203  1
