# generated using pymatgen
data_VAs
_symmetry_space_group_name_H-M   'P 1'
_cell_length_a   3.53457499
_cell_length_b   5.64176941
_cell_length_c   6.27291441
_cell_angle_alpha   89.87712097
_cell_angle_beta   90.00000000
_cell_angle_gamma   90.00000000
_symmetry_Int_Tables_number   1
_chemical_formula_structural   VAs
_chemical_formula_sum   'V4 As4'
_cell_volume   125.08951088
_cell_formula_units_Z   4
loop_
 _symmetry_equiv_pos_site_id
 _symmetry_equiv_pos_as_xyz
  1  'x, y, z'
loop_
 _atom_site_type_symbol
 _atom_site_label
 _atom_site_symmetry_multiplicity
 _atom_site_fract_x
 _atom_site_fract_y
 _atom_site_fract_z
 _atom_site_occupancy
  V  V0  1  0.75000000  0.49407098  0.70557905  1
  V  V1  1  0.75000000  0.99451897  0.78544507  1
  V  V2  1  0.25000000  0.50507098  0.30349803  1
  V  V3  1  0.25000000  0.00674200  0.20877001  1
  As  As4  1  0.75000000  0.29802599  0.07981802  1
  As  As5  1  0.75000000  0.79241997  0.41474405  1
  As  As6  1  0.25000000  0.70747398  0.92493206  1
  As  As7  1  0.25000000  0.20167799  0.57721403  1
