# generated using pymatgen
data_Ce2Sn7Rh2
_symmetry_space_group_name_H-M   'P 1'
_cell_length_a   4.75421095
_cell_length_b   4.75421095
_cell_length_c   12.41465855
_cell_angle_alpha   90.00000000
_cell_angle_beta   90.00000000
_cell_angle_gamma   90.00000000
_symmetry_Int_Tables_number   1
_chemical_formula_structural   Ce2Sn7Rh2
_chemical_formula_sum   'Ce2 Sn7 Rh2'
_cell_volume   280.60258978
_cell_formula_units_Z   1
loop_
 _symmetry_equiv_pos_site_id
 _symmetry_equiv_pos_as_xyz
  1  'x, y, z'
loop_
 _atom_site_type_symbol
 _atom_site_label
 _atom_site_symmetry_multiplicity
 _atom_site_fract_x
 _atom_site_fract_y
 _atom_site_fract_z
 _atom_site_occupancy
  Ce  Ce0  1  0.00000000  0.00000000  0.30903201  1
  Ce  Ce1  1  0.00000000  0.00000000  0.69096803  1
  Sn  Sn2  1  0.50000001  0.00000000  0.12268100  1
  Sn  Sn3  1  0.00000000  0.50000001  0.12268100  1
  Sn  Sn4  1  0.50000001  0.50000001  0.30733601  1
  Sn  Sn5  1  0.50000001  0.00000000  0.50000002  1
  Sn  Sn6  1  0.00000000  0.50000001  0.50000002  1
  Sn  Sn7  1  0.50000001  0.50000001  0.69266403  1
  Sn  Sn8  1  0.50000001  0.00000000  0.87731903  1
  Rh  Rh9  1  0.00000000  0.50000001  0.87731903  1
  Rh  Rh10  1  0.00000000  0.00000000  0.00000000  1
