# generated using pymatgen
data_Dy5Sn3C
_symmetry_space_group_name_H-M   'P 1'
_cell_length_a   6.76137686
_cell_length_b   8.84878635
_cell_length_c   8.84878540
_cell_angle_alpha   120.00000000
_cell_angle_beta   90.00000000
_cell_angle_gamma   90.00000000
_symmetry_Int_Tables_number   1
_chemical_formula_structural   Dy5Sn3C
_chemical_formula_sum   'Dy10 Sn6 C2'
_cell_volume   458.49346173
_cell_formula_units_Z   2
loop_
 _symmetry_equiv_pos_site_id
 _symmetry_equiv_pos_as_xyz
  1  'x, y, z'
loop_
 _atom_site_type_symbol
 _atom_site_label
 _atom_site_symmetry_multiplicity
 _atom_site_fract_x
 _atom_site_fract_y
 _atom_site_fract_z
 _atom_site_occupancy
  Dy  Dy0  1  -0.00000000  0.33333331  0.66666667  1
  Dy  Dy1  1  -0.00000000  0.66666663  0.33333332  1
  Dy  Dy2  1  0.50000001  0.66666663  0.33333332  1
  Dy  Dy3  1  0.50000001  0.33333331  0.66666667  1
  Dy  Dy4  1  0.25000001  0.22232599  -0.00000001  1
  Dy  Dy5  1  0.25000001  0.77767396  0.77767399  1
  Dy  Dy6  1  0.25000001  0.00000000  0.22232600  1
  Dy  Dy7  1  0.75000002  0.77767396  -0.00000002  1
  Dy  Dy8  1  0.75000002  0.22232599  0.22232600  1
  Dy  Dy9  1  0.75000002  0.00000000  0.77767402  1
  Sn  Sn10  1  0.25000001  0.59095497  -0.00000002  1
  Sn  Sn11  1  0.25000001  0.40904498  0.40904500  1
  Sn  Sn12  1  0.25000001  0.00000000  0.59095501  1
  Sn  Sn13  1  0.75000002  0.40904498  -0.00000001  1
  Sn  Sn14  1  0.75000002  0.59095497  0.59095499  1
  Sn  Sn15  1  0.75000002  0.00000000  0.40904501  1
  C  C16  1  0.00000000  0.00000000  0.00000000  1
  C  C17  1  0.50000001  0.00000000  -0.00000000  1
