# generated using pymatgen
data_SrCeI4
_symmetry_space_group_name_H-M   'P 1'
_cell_length_a   7.49601030
_cell_length_b   8.65788555
_cell_length_c   9.09461117
_cell_angle_alpha   113.39739990
_cell_angle_beta   108.72354889
_cell_angle_gamma   101.03524017
_symmetry_Int_Tables_number   1
_chemical_formula_structural   SrCeI4
_chemical_formula_sum   'Sr2 Ce2 I8'
_cell_volume   477.26236047
_cell_formula_units_Z   2
loop_
 _symmetry_equiv_pos_site_id
 _symmetry_equiv_pos_as_xyz
  1  'x, y, z'
loop_
 _atom_site_type_symbol
 _atom_site_label
 _atom_site_symmetry_multiplicity
 _atom_site_fract_x
 _atom_site_fract_y
 _atom_site_fract_z
 _atom_site_occupancy
  Sr  Sr0  1  0.11496007  0.86495999  0.72992001  1
  Sr  Sr1  1  0.88504000  0.13504000  0.27008002  1
  Ce  Ce2  1  0.74990503  0.49990499  0.99981002  1
  Ce  Ce3  1  0.25009504  0.50009499  0.00019001  1
  I  I4  1  0.86805500  0.13396600  0.87503102  1
  I  I5  1  0.85616202  0.44561499  0.64722903  1
  I  I6  1  0.29106701  0.20161400  0.64722901  1
  I  I7  1  0.70893305  0.79838599  0.35277103  1
  I  I8  1  0.49302401  0.25893500  0.12496902  1
  I  I9  1  0.14383804  0.55438499  0.35277101  1
  I  I10  1  0.50697605  0.74106499  0.87503102  1
  I  I11  1  0.13194507  0.86603399  0.12496902  1
