# generated using pymatgen
data_K3Na
_symmetry_space_group_name_H-M   'P 1'
_cell_length_a   5.96260214
_cell_length_b   5.96260214
_cell_length_c   7.85418320
_cell_angle_alpha   112.30774689
_cell_angle_beta   112.30774689
_cell_angle_gamma   90.00000000
_symmetry_Int_Tables_number   1
_chemical_formula_structural   K3Na
_chemical_formula_sum   'K3 Na1'
_cell_volume   235.59317677
_cell_formula_units_Z   1
loop_
 _symmetry_equiv_pos_site_id
 _symmetry_equiv_pos_as_xyz
  1  'x, y, z'
loop_
 _atom_site_type_symbol
 _atom_site_label
 _atom_site_symmetry_multiplicity
 _atom_site_fract_x
 _atom_site_fract_y
 _atom_site_fract_z
 _atom_site_occupancy
  K  K0  1  0.74999996  0.24999999  0.49999995  1
  K  K1  1  0.24999995  0.74999996  0.49999994  1
  Na  Na2  1  0.49999995  0.49999997  0.99999994  1
  K  K3  1  0.00000000  0.00000000  0.00000000  1
