# generated using pymatgen
data_LiCeTaAs3
_symmetry_space_group_name_H-M   'P 1'
_cell_length_a   7.00673008
_cell_length_b   7.01540852
_cell_length_c   7.33795977
_cell_angle_alpha   80.70523834
_cell_angle_beta   71.12968445
_cell_angle_gamma   60.04091263
_symmetry_Int_Tables_number   1
_chemical_formula_structural   LiCeTaAs3
_chemical_formula_sum   'Li2 Ce2 Ta2 As6'
_cell_volume   295.70624708
_cell_formula_units_Z   2
loop_
 _symmetry_equiv_pos_site_id
 _symmetry_equiv_pos_as_xyz
  1  'x, y, z'
loop_
 _atom_site_type_symbol
 _atom_site_label
 _atom_site_symmetry_multiplicity
 _atom_site_fract_x
 _atom_site_fract_y
 _atom_site_fract_z
 _atom_site_occupancy
  Li  Li0  1  0.00000000  0.00000000  0.00000000  1
  Li  Li1  1  0.49999999  0.00000000  0.50000002  1
  Ce  Ce2  1  0.84236699  0.31526599  0.50000001  1
  Ce  Ce3  1  0.15763301  0.68473398  0.49999999  1
  Ta  Ta4  1  0.33122700  0.33754599  -0.00000001  1
  Ta  Ta5  1  0.66877300  0.66245398  -0.00000002  1
  As  As6  1  0.07576600  0.36140299  0.77580101  1
  As  As7  1  0.28595300  0.00000000  0.22279301  1
  As  As8  1  0.92423400  0.63859698  0.22419899  1
  As  As9  1  0.56283100  0.36140299  0.22419900  1
  As  As10  1  0.43716900  0.63859698  0.77580100  1
  As  As11  1  0.71404700  0.99999997  0.77720699  1
