# generated using pymatgen
data_MgCr3CuS8
_symmetry_space_group_name_H-M   'P 1'
_cell_length_a   7.03238726
_cell_length_b   7.03496027
_cell_length_c   7.04106474
_cell_angle_alpha   60.08262253
_cell_angle_beta   60.06848907
_cell_angle_gamma   60.02994156
_symmetry_Int_Tables_number   1
_chemical_formula_structural   MgCr3CuS8
_chemical_formula_sum   'Mg1 Cr3 Cu1 S8'
_cell_volume   246.65003841
_cell_formula_units_Z   1
loop_
 _symmetry_equiv_pos_site_id
 _symmetry_equiv_pos_as_xyz
  1  'x, y, z'
loop_
 _atom_site_type_symbol
 _atom_site_label
 _atom_site_symmetry_multiplicity
 _atom_site_fract_x
 _atom_site_fract_y
 _atom_site_fract_z
 _atom_site_occupancy
  Mg  Mg0  1  0.87485301  0.87504002  0.87548498  1
  Cr  Cr1  1  0.49133101  0.49165301  0.49265699  1
  Cr  Cr2  1  0.49215801  0.49229301  0.02298898  1
  Cr  Cr3  1  0.49249101  0.02360400  0.49227399  1
  S  S4  1  0.02398100  0.49244201  0.49222001  1
  Cu  Cu5  1  0.25574900  0.25556401  0.25552400  1
  S  S6  1  0.73539901  0.73527302  0.29353298  1
  S  S7  1  0.29330200  0.73566802  0.73520900  1
  S  S8  1  0.73568301  0.29340801  0.73513999  1
  S  S9  1  0.73344001  0.25557201  0.25528598  1
  S  S10  1  0.25555100  0.73370202  0.25516299  1
  S  S11  1  0.73578201  0.73563602  0.73550799  1
  S  S12  1  0.25528600  0.25513001  0.73402901  1
