# generated using pymatgen
data_LaCu3O4
_symmetry_space_group_name_H-M   'P 1'
_cell_length_a   3.44995689
_cell_length_b   5.45446777
_cell_length_c   6.08109665
_cell_angle_alpha   116.64603424
_cell_angle_beta   90.00000000
_cell_angle_gamma   90.00000000
_symmetry_Int_Tables_number   1
_chemical_formula_structural   LaCu3O4
_chemical_formula_sum   'La1 Cu3 O4'
_cell_volume   102.27876734
_cell_formula_units_Z   1
loop_
 _symmetry_equiv_pos_site_id
 _symmetry_equiv_pos_as_xyz
  1  'x, y, z'
loop_
 _atom_site_type_symbol
 _atom_site_label
 _atom_site_symmetry_multiplicity
 _atom_site_fract_x
 _atom_site_fract_y
 _atom_site_fract_z
 _atom_site_occupancy
  La  La0  1  0.50000002  0.00000000  -0.00000000  1
  Cu  Cu1  1  -0.00000000  0.75700004  0.51400002  1
  Cu  Cu2  1  -0.00000000  0.24300001  0.48600001  1
  Cu  Cu3  1  -0.00000000  0.50000003  1.00000002  1
  O  O4  1  -0.00000000  0.60852003  0.73960502  1
  O  O5  1  -0.00000000  0.13108501  0.73960501  1
  O  O6  1  -0.00000000  0.86891505  0.26039502  1
  O  O7  1  -0.00000000  0.39148002  0.26039501  1
