# generated using pymatgen
data_Ca5H3O4
_symmetry_space_group_name_H-M   'P 1'
_cell_length_a   4.48662949
_cell_length_b   7.83001900
_cell_length_c   7.97997236
_cell_angle_alpha   104.23040009
_cell_angle_beta   106.30224609
_cell_angle_gamma   90.02288055
_symmetry_Int_Tables_number   1
_chemical_formula_structural   Ca5H3O4
_chemical_formula_sum   'Ca5 H3 O4'
_cell_volume   260.08525503
_cell_formula_units_Z   1
loop_
 _symmetry_equiv_pos_site_id
 _symmetry_equiv_pos_as_xyz
  1  'x, y, z'
loop_
 _atom_site_type_symbol
 _atom_site_label
 _atom_site_symmetry_multiplicity
 _atom_site_fract_x
 _atom_site_fract_y
 _atom_site_fract_z
 _atom_site_occupancy
  Ca  Ca0  1  0.78662895  0.73475302  0.57327697  1
  Ca  Ca1  1  0.21337099  0.26524701  0.42672300  1
  H  H2  1  0.37781498  0.06498000  0.75571600  1
  Ca  Ca3  1  0.61327496  0.43080201  0.22660398  1
  Ca  Ca4  1  0.62218496  0.93502002  0.24428397  1
  Ca  Ca5  1  0.38672497  0.56919801  0.77339599  1
  O  O6  1  0.20401398  0.71526802  0.40839099  1
  H  H7  1  0.04384100  0.14650100  0.08887800  1
  O  O8  1  0.95615894  0.85349902  0.91112197  1
  H  H9  1  0.04594799  0.64935901  0.09199799  1
  O  O10  1  0.79598595  0.28473201  0.59160898  1
  O  O11  1  0.95405194  0.35064101  0.90800198  1
