# generated using pymatgen
data_Zr3Al
_symmetry_space_group_name_H-M   'P 1'
_cell_length_a   3.97062993
_cell_length_b   3.97062993
_cell_length_c   5.56214952
_cell_angle_alpha   110.91196442
_cell_angle_beta   110.91196442
_cell_angle_gamma   90.00000000
_symmetry_Int_Tables_number   1
_chemical_formula_structural   Zr3Al
_chemical_formula_sum   'Zr3 Al1'
_cell_volume   75.70022972
_cell_formula_units_Z   1
loop_
 _symmetry_equiv_pos_site_id
 _symmetry_equiv_pos_as_xyz
  1  'x, y, z'
loop_
 _atom_site_type_symbol
 _atom_site_label
 _atom_site_symmetry_multiplicity
 _atom_site_fract_x
 _atom_site_fract_y
 _atom_site_fract_z
 _atom_site_occupancy
  Zr  Zr0  1  0.00000000  0.00000000  0.00000000  1
  Zr  Zr1  1  0.75000002  0.25000001  0.50000002  1
  Zr  Zr2  1  0.25000002  0.75000002  0.50000002  1
  Al  Al3  1  0.50000002  0.50000001  0.00000002  1
