# generated using pymatgen
data_Sr2CuBi(RuO4)2
_symmetry_space_group_name_H-M   'P 1'
_cell_length_a   3.89371228
_cell_length_b   3.89371228
_cell_length_c   11.57097912
_cell_angle_alpha   89.88910675
_cell_angle_beta   89.88910675
_cell_angle_gamma   89.87313080
_symmetry_Int_Tables_number   1
_chemical_formula_structural   Sr2CuBi(RuO4)2
_chemical_formula_sum   'Sr2 Cu1 Bi1 Ru2 O8'
_cell_volume   175.42647469
_cell_formula_units_Z   1
loop_
 _symmetry_equiv_pos_site_id
 _symmetry_equiv_pos_as_xyz
  1  'x, y, z'
loop_
 _atom_site_type_symbol
 _atom_site_label
 _atom_site_symmetry_multiplicity
 _atom_site_fract_x
 _atom_site_fract_y
 _atom_site_fract_z
 _atom_site_occupancy
  Sr  Sr0  1  0.49933696  0.49969199  0.68928599  1
  Sr  Sr1  1  0.50030796  0.50066299  0.31071399  1
  Bi  Bi2  1  0.49981196  0.50018799  0.99999998  1
  Cu  Cu3  1  0.99969292  0.99974297  0.85686498  1
  Ru  Ru4  1  0.00025700  0.00030700  0.14313500  1
  Ru  Ru5  1  0.01808095  0.98191897  0.49999999  1
  O  O6  1  0.00050197  0.49965099  0.87238499  1
  O  O7  1  0.49940199  0.00008200  0.87257699  1
  O  O8  1  0.99991795  0.50059799  0.12742299  1
  O  O9  1  0.50034893  0.99949797  0.12761499  1
  O  O10  1  0.99489892  0.99809797  0.66876798  1
  O  O11  1  0.00190200  0.00510100  0.33123200  1
  O  O12  1  0.04297497  0.48243399  0.50132899  1
  O  O13  1  0.51756594  0.95702498  0.49867098  1
