# generated using pymatgen
data_Mg2Ga
_symmetry_space_group_name_H-M   'P 1'
_cell_length_a   3.02516389
_cell_length_b   5.79283285
_cell_length_c   7.69745398
_cell_angle_alpha   109.06279755
_cell_angle_beta   90.00000000
_cell_angle_gamma   105.13609314
_symmetry_Int_Tables_number   1
_chemical_formula_structural   Mg2Ga
_chemical_formula_sum   'Mg4 Ga2'
_cell_volume   122.53309813
_cell_formula_units_Z   2
loop_
 _symmetry_equiv_pos_site_id
 _symmetry_equiv_pos_as_xyz
  1  'x, y, z'
loop_
 _atom_site_type_symbol
 _atom_site_label
 _atom_site_symmetry_multiplicity
 _atom_site_fract_x
 _atom_site_fract_y
 _atom_site_fract_z
 _atom_site_occupancy
  Mg  Mg0  1  0.17375701  0.34751401  0.12449100  1
  Mg  Mg1  1  0.86405503  0.72811003  0.47465000  1
  Mg  Mg2  1  0.13594501  0.27189001  0.52534999  1
  Mg  Mg3  1  0.82624303  0.65248603  0.87550899  1
  Ga  Ga4  1  0.46061802  0.92123604  0.20881802  1
  Ga  Ga5  1  0.53938202  0.07876400  0.79118198  1
