# generated using pymatgen
data_CsSbSe3
_symmetry_space_group_name_H-M   'P 1'
_cell_length_a   5.84800291
_cell_length_b   7.91253281
_cell_length_c   16.35783768
_cell_angle_alpha   90.00000000
_cell_angle_beta   92.76612854
_cell_angle_gamma   90.00000000
_symmetry_Int_Tables_number   1
_chemical_formula_structural   CsSbSe3
_chemical_formula_sum   'Cs4 Sb4 Se12'
_cell_volume   756.03635739
_cell_formula_units_Z   4
loop_
 _symmetry_equiv_pos_site_id
 _symmetry_equiv_pos_as_xyz
  1  'x, y, z'
loop_
 _atom_site_type_symbol
 _atom_site_label
 _atom_site_symmetry_multiplicity
 _atom_site_fract_x
 _atom_site_fract_y
 _atom_site_fract_z
 _atom_site_occupancy
  Cs  Cs0  1  0.74861301  0.99277402  0.34797699  1
  Cs  Cs1  1  0.75138701  0.49277401  0.15202299  1
  Cs  Cs2  1  0.25138700  0.00722600  0.65202299  1
  Cs  Cs3  1  0.24861300  0.50722601  0.84797699  1
  Sb  Sb4  1  0.24430600  0.04256800  0.11310800  1
  Sb  Sb5  1  0.25569400  0.54256801  0.38689199  1
  Sb  Sb6  1  0.75569401  0.95743202  0.88689199  1
  Sb  Sb7  1  0.74430601  0.45743201  0.61310799  1
  Se  Se8  1  0.69114901  0.03273100  0.12471099  1
  Se  Se9  1  0.80885101  0.53273101  0.37528899  1
  Se  Se10  1  0.30885100  0.96726902  0.87528899  1
  Se  Se11  1  0.19114900  0.46726901  0.62471099  1
  Se  Se12  1  0.23482500  0.33298201  0.04537300  1
  Se  Se13  1  0.26517500  0.83298202  0.45462699  1
  Se  Se14  1  0.76517501  0.66701802  0.95462698  1
  Se  Se15  1  0.73482501  0.16701800  0.54537299  1
  Se  Se16  1  0.73234901  0.31114101  0.75313499  1
  Se  Se17  1  0.76765101  0.81114102  0.74686499  1
  Se  Se18  1  0.26765100  0.68885902  0.24686500  1
  Se  Se19  1  0.23234900  0.18885900  0.25313500  1
