# generated using pymatgen
data_LiV2CuO6
_symmetry_space_group_name_H-M   'P 1'
_cell_length_a   2.88692403
_cell_length_b   5.97076273
_cell_length_c   6.50746298
_cell_angle_alpha   104.84119415
_cell_angle_beta   102.81574249
_cell_angle_gamma   90.00000000
_symmetry_Int_Tables_number   1
_chemical_formula_structural   LiV2CuO6
_chemical_formula_sum   'Li1 V2 Cu1 O6'
_cell_volume   105.53462398
_cell_formula_units_Z   1
loop_
 _symmetry_equiv_pos_site_id
 _symmetry_equiv_pos_as_xyz
  1  'x, y, z'
loop_
 _atom_site_type_symbol
 _atom_site_label
 _atom_site_symmetry_multiplicity
 _atom_site_fract_x
 _atom_site_fract_y
 _atom_site_fract_z
 _atom_site_occupancy
  Li  Li0  1  0.00000000  0.00000000  0.00000000  1
  V  V1  1  0.00000001  0.50000001  0.00000000  1
  V  V2  1  0.67155901  0.82894002  0.34311801  1
  Cu  Cu3  1  0.32844100  0.17106000  0.65688201  1
  O  O4  1  0.83782900  0.37768601  0.67565801  1
  O  O5  1  0.51636301  0.74164002  0.03272601  1
  O  O6  1  0.48363700  0.25836001  0.96727401  1
  O  O7  1  0.17521500  0.04298800  0.35043000  1
  O  O8  1  0.16217101  0.62231401  0.32434201  1
  O  O9  1  0.82478501  0.95701202  0.64957001  1
