# generated using pymatgen
data_Li2V3O8
_symmetry_space_group_name_H-M   'P 1'
_cell_length_a   5.11741209
_cell_length_b   5.47539663
_cell_length_c   5.94654369
_cell_angle_alpha   73.42842102
_cell_angle_beta   85.35669708
_cell_angle_gamma   67.37920380
_symmetry_Int_Tables_number   1
_chemical_formula_structural   Li2V3O8
_chemical_formula_sum   'Li2 V3 O8'
_cell_volume   147.33706413
_cell_formula_units_Z   1
loop_
 _symmetry_equiv_pos_site_id
 _symmetry_equiv_pos_as_xyz
  1  'x, y, z'
loop_
 _atom_site_type_symbol
 _atom_site_label
 _atom_site_symmetry_multiplicity
 _atom_site_fract_x
 _atom_site_fract_y
 _atom_site_fract_z
 _atom_site_occupancy
  Li  Li0  1  0.93587000  0.58601100  0.22473499  1
  Li  Li1  1  0.06413001  0.41398900  0.77526498  1
  V  V2  1  0.50000000  0.50000000  -0.00000001  1
  V  V3  1  0.27185402  0.97470999  0.34266999  1
  V  V4  1  0.72814599  0.02529000  0.65732998  1
  O  O5  1  0.72085500  0.72945199  0.91231097  1
  O  O6  1  0.13875801  0.77987399  0.64195298  1
  O  O7  1  0.27914500  0.27054800  0.08768899  1
  O  O8  1  0.66095000  0.79825299  0.43075598  1
  O  O9  1  0.75440199  0.25363900  0.82001798  1
  O  O10  1  0.86124199  0.22012600  0.35804698  1
  O  O11  1  0.24559801  0.74636099  0.17998199  1
  O  O12  1  0.33905000  0.20174700  0.56924398  1
