# generated using pymatgen
data_Cu3SbSe3
_symmetry_space_group_name_H-M   'P 1'
_cell_length_a   4.24630308
_cell_length_b   6.13005495
_cell_length_c   17.09165382
_cell_angle_alpha   90.00000000
_cell_angle_beta   90.00000000
_cell_angle_gamma   90.00000000
_symmetry_Int_Tables_number   1
_chemical_formula_structural   Cu3SbSe3
_chemical_formula_sum   'Cu6 Sb2 Se6'
_cell_volume   444.89696642
_cell_formula_units_Z   2
loop_
 _symmetry_equiv_pos_site_id
 _symmetry_equiv_pos_as_xyz
  1  'x, y, z'
loop_
 _atom_site_type_symbol
 _atom_site_label
 _atom_site_symmetry_multiplicity
 _atom_site_fract_x
 _atom_site_fract_y
 _atom_site_fract_z
 _atom_site_occupancy
  Cu  Cu0  1  0.49999999  0.49223000  0.93391895  1
  Cu  Cu1  1  0.00000000  0.99223001  0.06608100  1
  Cu  Cu2  1  0.00000000  0.99754701  0.30580399  1
  Cu  Cu3  1  0.49999999  0.49046400  0.43676698  1
  Cu  Cu4  1  0.00000000  0.99046401  0.56323297  1
  Cu  Cu5  1  0.49999999  0.49754700  0.69419597  1
  Sb  Sb6  1  0.00000000  0.74862901  0.43434798  1
  Sb  Sb7  1  0.49999999  0.24862900  0.56565197  1
  Se  Se8  1  0.49999999  0.24406400  0.81336496  1
  Se  Se9  1  0.00000000  0.76116601  0.93394895  1
  Se  Se10  1  0.49999999  0.26116600  0.06605100  1
  Se  Se11  1  0.00000000  0.74406401  0.18663499  1
  Se  Se12  1  0.49999999  0.26590000  0.30449999  1
  Se  Se13  1  0.00000000  0.76590001  0.69549997  1
