# generated using pymatgen
data_ZrFeP
_symmetry_space_group_name_H-M   'P 1'
_cell_length_a   3.76884604
_cell_length_b   6.36120701
_cell_length_c   7.17365789
_cell_angle_alpha   90.00000000
_cell_angle_beta   90.00000000
_cell_angle_gamma   90.00000000
_symmetry_Int_Tables_number   1
_chemical_formula_structural   ZrFeP
_chemical_formula_sum   'Zr4 Fe4 P4'
_cell_volume   171.98421420
_cell_formula_units_Z   4
loop_
 _symmetry_equiv_pos_site_id
 _symmetry_equiv_pos_as_xyz
  1  'x, y, z'
loop_
 _atom_site_type_symbol
 _atom_site_label
 _atom_site_symmetry_multiplicity
 _atom_site_fract_x
 _atom_site_fract_y
 _atom_site_fract_z
 _atom_site_occupancy
  Zr  Zr0  1  0.74999999  0.52100300  0.68536701  1
  Zr  Zr1  1  0.74999999  0.02100400  0.81463301  1
  Zr  Zr2  1  0.25000000  0.47899600  0.31463300  1
  Zr  Zr3  1  0.25000000  0.97899700  0.18536700  1
  Fe  Fe4  1  0.74999999  0.63984900  0.06363400  1
  Fe  Fe5  1  0.74999999  0.13984800  0.43636601  1
  Fe  Fe6  1  0.25000000  0.36015200  0.93636601  1
  Fe  Fe7  1  0.25000000  0.86015100  0.56363401  1
  P  P8  1  0.74999999  0.26808200  0.11667500  1
  P  P9  1  0.74999999  0.76808200  0.38332501  1
  P  P10  1  0.25000000  0.73191800  0.88332501  1
  P  P11  1  0.25000000  0.23191800  0.61667501  1
