# generated using pymatgen
data_LiHO2
_symmetry_space_group_name_H-M   'P 1'
_cell_length_a   3.75069904
_cell_length_b   3.75069904
_cell_length_c   4.11682796
_cell_angle_alpha   90.00000000
_cell_angle_beta   90.00000000
_cell_angle_gamma   90.00000000
_symmetry_Int_Tables_number   1
_chemical_formula_structural   LiHO2
_chemical_formula_sum   'Li2 H2 O4'
_cell_volume   57.91447907
_cell_formula_units_Z   2
loop_
 _symmetry_equiv_pos_site_id
 _symmetry_equiv_pos_as_xyz
  1  'x, y, z'
loop_
 _atom_site_type_symbol
 _atom_site_label
 _atom_site_symmetry_multiplicity
 _atom_site_fract_x
 _atom_site_fract_y
 _atom_site_fract_z
 _atom_site_occupancy
  Li  Li0  1  0.49999999  0.49999999  0.00000000  1
  Li  Li1  1  0.00000000  0.00000000  0.00000000  1
  H  H2  1  0.14733600  0.64733599  0.59081701  1
  H  H3  1  0.35266400  0.14733600  0.40918300  1
  O  O4  1  0.85266399  0.35266400  0.59081701  1
  O  O5  1  0.64733599  0.85266399  0.40918300  1
  O  O6  1  -0.00000000  0.49999999  0.75423901  1
  O  O7  1  0.49999999  0.00000000  0.24576100  1
