# generated using pymatgen
data_Al3Co5H
_symmetry_space_group_name_H-M   'P 1'
_cell_length_a   5.02377987
_cell_length_b   5.64780998
_cell_length_c   5.64877272
_cell_angle_alpha   60.01209641
_cell_angle_beta   89.99603271
_cell_angle_gamma   89.99214935
_symmetry_Int_Tables_number   1
_chemical_formula_structural   Al3Co5H
_chemical_formula_sum   'Al3 Co5 H1'
_cell_volume   138.81881421
_cell_formula_units_Z   1
loop_
 _symmetry_equiv_pos_site_id
 _symmetry_equiv_pos_as_xyz
  1  'x, y, z'
loop_
 _atom_site_type_symbol
 _atom_site_label
 _atom_site_symmetry_multiplicity
 _atom_site_fract_x
 _atom_site_fract_y
 _atom_site_fract_z
 _atom_site_occupancy
  Al  Al0  1  0.42769301  0.00000600  0.99996201  1
  Al  Al1  1  0.47558103  0.33333334  0.33322766  1
  Al  Al2  1  0.01904104  0.66666667  0.66666668  1
  Co  Co3  1  0.65143106  0.65099601  0.09968999  1
  Co  Co4  1  0.65138202  0.09971000  0.24936599  1
  Co  Co5  1  0.65146103  0.24936900  0.65100100  1
  Co  Co6  1  0.19213703  0.35312300  0.90871801  1
  Co  Co7  1  0.19214406  0.90873401  0.73817401  1
  H  H8  1  0.19213005  0.73813301  0.35311900  1
