# generated using pymatgen
data_BaAgAs2
_symmetry_space_group_name_H-M   'P 1'
_cell_length_a   7.01807404
_cell_length_b   7.11505651
_cell_length_c   7.11505651
_cell_angle_alpha   75.92267609
_cell_angle_beta   60.44988251
_cell_angle_gamma   60.44988251
_symmetry_Int_Tables_number   1
_chemical_formula_structural   BaAgAs2
_chemical_formula_sum   'Ba2 Ag2 As4'
_cell_volume   268.86725315
_cell_formula_units_Z   2
loop_
 _symmetry_equiv_pos_site_id
 _symmetry_equiv_pos_as_xyz
  1  'x, y, z'
loop_
 _atom_site_type_symbol
 _atom_site_label
 _atom_site_symmetry_multiplicity
 _atom_site_fract_x
 _atom_site_fract_y
 _atom_site_fract_z
 _atom_site_occupancy
  Ba  Ba0  1  0.75000000  1.00000002  1.00000001  1
  Ba  Ba1  1  0.25000001  1.00000002  1.00000001  1
  Ag  Ag2  1  0.25000000  0.50000001  0.50000001  1
  Ag  Ag3  1  0.75000000  0.50000001  0.50000001  1
  As  As4  1  0.33717200  0.50000001  0.82565601  1
  As  As5  1  0.83717100  0.82565702  0.50000000  1
  As  As6  1  0.16282900  0.17434300  0.50000001  1
  As  As7  1  0.66282800  0.50000001  0.17434400  1
