# generated using pymatgen
data_MnAg2Se5
_symmetry_space_group_name_H-M   'P 1'
_cell_length_a   3.93571568
_cell_length_b   6.27724648
_cell_length_c   7.12971973
_cell_angle_alpha   116.11371613
_cell_angle_beta   106.01611328
_cell_angle_gamma   90.01303101
_symmetry_Int_Tables_number   1
_chemical_formula_structural   MnAg2Se5
_chemical_formula_sum   'Mn1 Ag2 Se5'
_cell_volume   150.50529190
_cell_formula_units_Z   1
loop_
 _symmetry_equiv_pos_site_id
 _symmetry_equiv_pos_as_xyz
  1  'x, y, z'
loop_
 _atom_site_type_symbol
 _atom_site_label
 _atom_site_symmetry_multiplicity
 _atom_site_fract_x
 _atom_site_fract_y
 _atom_site_fract_z
 _atom_site_occupancy
  Mn  Mn0  1  0.37495501  0.05878500  0.75000002  1
  Ag  Ag1  1  0.16615707  0.49749400  0.33257701  1
  Ag  Ag2  1  0.58358012  0.91491799  0.16742303  1
  Se  Se3  1  0.75101411  0.82180899  0.50272603  1
  Se  Se4  1  0.21908502  0.15397800  0.43768501  1
  Se  Se5  1  0.53140006  0.46629300  0.06231502  1
  Se  Se6  1  0.99828900  0.06908400  0.99727404  1
  Se  Se7  1  0.87551907  0.51763900  0.75000004  1
