# generated using pymatgen
data_Ba2NdTaO6
_symmetry_space_group_name_H-M   'P 1'
_cell_length_a   6.07279587
_cell_length_b   6.11469173
_cell_length_c   6.07279587
_cell_angle_alpha   60.22639084
_cell_angle_beta   90.00000000
_cell_angle_gamma   119.77360535
_symmetry_Int_Tables_number   1
_chemical_formula_structural   Ba2NdTaO6
_chemical_formula_sum   'Ba2 Nd1 Ta1 O6'
_cell_volume   160.53964726
_cell_formula_units_Z   1
loop_
 _symmetry_equiv_pos_site_id
 _symmetry_equiv_pos_as_xyz
  1  'x, y, z'
loop_
 _atom_site_type_symbol
 _atom_site_label
 _atom_site_symmetry_multiplicity
 _atom_site_fract_x
 _atom_site_fract_y
 _atom_site_fract_z
 _atom_site_occupancy
  Ba  Ba0  1  0.24999999  0.49999999  0.24999999  1
  Ba  Ba1  1  0.75000000  0.49999999  0.75000000  1
  Nd  Nd2  1  0.00000000  0.00000000  0.00000000  1
  Ta  Ta3  1  0.49999998  0.99999998  0.49999999  1
  O  O4  1  0.77425602  0.00000000  0.69099502  1
  O  O5  1  0.69099498  0.99999898  0.22574498  1
  O  O6  1  0.30900501  0.00000100  0.77425502  1
  O  O7  1  0.22574397  0.99999998  0.30900498  1
  O  O8  1  0.26665899  0.53331799  0.73334100  1
  O  O9  1  0.73334100  0.46668199  0.26665899  1
