# generated using pymatgen
data_LiNiO2
_symmetry_space_group_name_H-M   'P 1'
_cell_length_a   5.95130444
_cell_length_b   5.96312761
_cell_length_c   5.97617531
_cell_angle_alpha   119.79007721
_cell_angle_beta   119.81079102
_cell_angle_gamma   90.11103821
_symmetry_Int_Tables_number   1
_chemical_formula_structural   LiNiO2
_chemical_formula_sum   'Li4 Ni4 O8'
_cell_volume   150.72347800
_cell_formula_units_Z   4
loop_
 _symmetry_equiv_pos_site_id
 _symmetry_equiv_pos_as_xyz
  1  'x, y, z'
loop_
 _atom_site_type_symbol
 _atom_site_label
 _atom_site_symmetry_multiplicity
 _atom_site_fract_x
 _atom_site_fract_y
 _atom_site_fract_z
 _atom_site_occupancy
  Li  Li0  1  0.50001698  0.49998399  0.00002498  1
  Li  Li1  1  0.50002298  0.49998399  0.50003600  1
  Li  Li2  1  0.00001899  0.49998399  0.50003601  1
  Li  Li3  1  0.00000799  0.49998999  0.00001000  1
  Ni  Ni4  1  0.99996998  0.00000100  0.49987898  1
  Ni  Ni5  1  0.49990297  0.99997299  0.49988700  1
  Ni  Ni6  1  0.50002297  0.99996399  0.00006599  1
  Ni  Ni7  1  0.99990698  0.00006800  0.99982099  1
  O  O8  1  0.26627398  0.79491099  0.53446701  1
  O  O9  1  0.25222198  0.75898299  0.00187099  1
  O  O10  1  0.75274297  0.75715199  0.00291398  1
  O  O11  1  0.73379698  0.20513200  0.46567399  1
  O  O12  1  0.75378397  0.76511799  0.50826099  1
  O  O13  1  0.74776198  0.24104800  0.99818000  1
  O  O14  1  0.24732699  0.24287400  0.99713502  1
  O  O15  1  0.24621999  0.23482800  0.49173400  1
