# generated using pymatgen
data_MgIn
_symmetry_space_group_name_H-M   'P 1'
_cell_length_a   4.41987419
_cell_length_b   4.41987419
_cell_length_c   5.83529949
_cell_angle_alpha   112.25434113
_cell_angle_beta   112.25434113
_cell_angle_gamma   90.00000000
_symmetry_Int_Tables_number   1
_chemical_formula_structural   MgIn
_chemical_formula_sum   'Mg2 In2'
_cell_volume   96.26571752
_cell_formula_units_Z   2
loop_
 _symmetry_equiv_pos_site_id
 _symmetry_equiv_pos_as_xyz
  1  'x, y, z'
loop_
 _atom_site_type_symbol
 _atom_site_label
 _atom_site_symmetry_multiplicity
 _atom_site_fract_x
 _atom_site_fract_y
 _atom_site_fract_z
 _atom_site_occupancy
  Mg  Mg0  1  0.00000000  0.00000000  0.00000000  1
  Mg  Mg1  1  0.50000001  0.49999999  0.00000004  1
  In  In2  1  0.74999999  0.24999999  0.50000002  1
  In  In3  1  0.25000002  0.74999998  0.50000002  1
