# generated using pymatgen
data_Nb2Te3
_symmetry_space_group_name_H-M   'P 1'
_cell_length_a   3.67139006
_cell_length_b   10.73416996
_cell_length_c   10.73416996
_cell_angle_alpha   120.00000000
_cell_angle_beta   90.00000000
_cell_angle_gamma   90.00000000
_symmetry_Int_Tables_number   1
_chemical_formula_structural   Nb2Te3
_chemical_formula_sum   'Nb6 Te9'
_cell_volume   366.35160110
_cell_formula_units_Z   3
loop_
 _symmetry_equiv_pos_site_id
 _symmetry_equiv_pos_as_xyz
  1  'x, y, z'
loop_
 _atom_site_type_symbol
 _atom_site_label
 _atom_site_symmetry_multiplicity
 _atom_site_fract_x
 _atom_site_fract_y
 _atom_site_fract_z
 _atom_site_occupancy
  Nb  Nb0  1  0.25030100  0.61362200  0.51064901  1
  Nb  Nb1  1  0.25030100  0.89702701  0.38637801  1
  Nb  Nb2  1  0.25030100  0.48935100  0.10297300  1
  Nb  Nb3  1  0.74969899  0.38637800  0.48935101  1
  Nb  Nb4  1  0.74969899  0.10297300  0.61362201  1
  Nb  Nb5  1  0.74969899  0.51064900  0.89702701  1
  Te  Te6  1  0.49999999  0.00000000  -0.00000000  1
  Te  Te7  1  0.24902100  0.93891701  0.66864101  1
  Te  Te8  1  0.24902100  0.72972400  0.06108200  1
  Te  Te9  1  0.24902100  0.33135800  0.27027500  1
  Te  Te10  1  0.75097899  0.06108300  0.33135900  1
  Te  Te11  1  0.75097899  0.27027600  0.93891801  1
  Te  Te12  1  0.75097899  0.66864200  0.72972501  1
  Te  Te13  1  0.25044100  0.33333334  0.66666668  1
  Te  Te14  1  0.74955899  0.66666667  0.33333334  1
