# generated using pymatgen
data_Ho2Ga3Cu
_symmetry_space_group_name_H-M   'P 1'
_cell_length_a   4.37320614
_cell_length_b   4.37320662
_cell_length_c   7.29686785
_cell_angle_alpha   90.00000000
_cell_angle_beta   90.00000000
_cell_angle_gamma   120.00000000
_symmetry_Int_Tables_number   1
_chemical_formula_structural   Ho2Ga3Cu
_chemical_formula_sum   'Ho2 Ga3 Cu1'
_cell_volume   120.85567770
_cell_formula_units_Z   1
loop_
 _symmetry_equiv_pos_site_id
 _symmetry_equiv_pos_as_xyz
  1  'x, y, z'
loop_
 _atom_site_type_symbol
 _atom_site_label
 _atom_site_symmetry_multiplicity
 _atom_site_fract_x
 _atom_site_fract_y
 _atom_site_fract_z
 _atom_site_occupancy
  Ho  Ho0  1  0.66666667  0.33333333  0.23105000  1
  Ho  Ho1  1  0.66666667  0.33333333  0.76297602  1
  Ga  Ga2  1  0.00000000  0.00000000  0.98141402  1
  Ga  Ga3  1  0.00000000  0.00000000  0.54080901  1
  Ga  Ga4  1  0.33333337  0.66666666  0.45653701  1
  Cu  Cu5  1  0.33333337  0.66666666  0.02721400  1
