# generated using pymatgen
data_Ba4(BiAu3)3
_symmetry_space_group_name_H-M   'P 1'
_cell_length_a   6.91375113
_cell_length_b   6.91375113
_cell_length_c   11.00725365
_cell_angle_alpha   90.00000000
_cell_angle_beta   90.00000000
_cell_angle_gamma   102.35460663
_symmetry_Int_Tables_number   1
_chemical_formula_structural   Ba4(BiAu3)3
_chemical_formula_sum   'Ba4 Bi3 Au9'
_cell_volume   513.96178256
_cell_formula_units_Z   1
loop_
 _symmetry_equiv_pos_site_id
 _symmetry_equiv_pos_as_xyz
  1  'x, y, z'
loop_
 _atom_site_type_symbol
 _atom_site_label
 _atom_site_symmetry_multiplicity
 _atom_site_fract_x
 _atom_site_fract_y
 _atom_site_fract_z
 _atom_site_occupancy
  Ba  Ba0  1  0.14591501  0.14591500  0.75000002  1
  Ba  Ba1  1  0.85408504  0.85408500  0.25000001  1
  Ba  Ba2  1  0.70277701  0.29722300  1.00000003  1
  Ba  Ba3  1  0.29722304  0.70277700  0.50000002  1
  Bi  Bi4  1  0.29722304  0.70277700  1.00000003  1
  Bi  Bi5  1  0.70277701  0.29722300  0.50000002  1
  Au  Au6  1  0.54253003  0.54253000  0.75000002  1
  Bi  Bi7  1  0.45747002  0.45747000  0.25000001  1
  Au  Au8  1  0.59149206  0.99230400  0.75000002  1
  Au  Au9  1  0.40850800  0.00769600  0.25000001  1
  Au  Au10  1  0.99230403  0.59149200  0.75000002  1
  Au  Au11  1  0.00769603  0.40850800  0.25000001  1
  Au  Au12  1  0.18780701  0.18780700  0.44676501  1
  Au  Au13  1  0.81219304  0.81219300  0.94676503  1
  Au  Au14  1  0.18780701  0.18780700  0.05323500  1
  Au  Au15  1  0.81219304  0.81219300  0.55323502  1
