# generated using pymatgen
data_Li4Cr2S7
_symmetry_space_group_name_H-M   'P 1'
_cell_length_a   6.95833540
_cell_length_b   6.95833540
_cell_length_c   6.98017502
_cell_angle_alpha   60.10345459
_cell_angle_beta   60.10345459
_cell_angle_gamma   60.00000381
_symmetry_Int_Tables_number   1
_chemical_formula_structural   Li4Cr2S7
_chemical_formula_sum   'Li4 Cr2 S7'
_cell_volume   239.35328356
_cell_formula_units_Z   1
loop_
 _symmetry_equiv_pos_site_id
 _symmetry_equiv_pos_as_xyz
  1  'x, y, z'
loop_
 _atom_site_type_symbol
 _atom_site_label
 _atom_site_symmetry_multiplicity
 _atom_site_fract_x
 _atom_site_fract_y
 _atom_site_fract_z
 _atom_site_occupancy
  Li  Li0  1  0.00000000  0.00000000  0.00000000  1
  Li  Li1  1  0.49999997  0.50000000  0.50000005  1
  Li  Li2  1  0.50000000  0.00000000  0.00000002  1
  Li  Li3  1  -0.00000003  0.50000000  0.00000003  1
  Cr  Cr4  1  0.49999997  0.50000000  0.00000005  1
  Cr  Cr5  1  0.72803298  0.25769200  0.75658305  1
  S  S6  1  0.25769196  0.72803301  0.75658306  1
  S  S7  1  0.25769198  0.25769200  0.75658303  1
  S  S8  1  0.25847498  0.25847500  0.22457503  1
  S  S9  1  0.74152495  0.74152501  0.77542507  1
  S  S10  1  0.74230798  0.27196700  0.24341704  1
  S  S11  1  0.74230795  0.74230801  0.24341707  1
  S  S12  1  0.27196696  0.74230801  0.24341705  1
