# generated using pymatgen
data_Ti2CrSi6
_symmetry_space_group_name_H-M   'P 1'
_cell_length_a   4.68190193
_cell_length_b   4.70431948
_cell_length_c   13.00531197
_cell_angle_alpha   90.00000000
_cell_angle_beta   90.00000000
_cell_angle_gamma   119.60275269
_symmetry_Int_Tables_number   1
_chemical_formula_structural   Ti2CrSi6
_chemical_formula_sum   'Ti4 Cr2 Si12'
_cell_volume   249.05490233
_cell_formula_units_Z   2
loop_
 _symmetry_equiv_pos_site_id
 _symmetry_equiv_pos_as_xyz
  1  'x, y, z'
loop_
 _atom_site_type_symbol
 _atom_site_label
 _atom_site_symmetry_multiplicity
 _atom_site_fract_x
 _atom_site_fract_y
 _atom_site_fract_z
 _atom_site_occupancy
  Ti  Ti0  1  0.49999997  0.49999996  0.91737100  1
  Ti  Ti1  1  0.49999997  0.49999996  0.41462000  1
  Ti  Ti2  1  -0.00000003  0.49999996  0.75143200  1
  Ti  Ti3  1  -0.00000003  0.49999996  0.25097000  1
  Cr  Cr4  1  0.50000001  0.00000000  0.58161300  1
  Cr  Cr5  1  0.49999994  0.99999993  0.08396700  1
  Si  Si6  1  0.16551995  0.84506394  0.92148900  1
  Si  Si7  1  0.16344495  0.83760494  0.41532100  1
  Si  Si8  1  0.67677595  0.84392794  0.74671500  1
  Si  Si9  1  0.67891895  0.84681294  0.24663100  1
  Si  Si10  1  0.15774398  0.31617498  0.58214200  1
  Si  Si11  1  0.15495798  0.32344798  0.08771500  1
  Si  Si12  1  0.83448000  0.15493599  0.92148900  1
  Si  Si13  1  0.83655500  0.16239499  0.41532100  1
  Si  Si14  1  0.32322399  0.15607199  0.74671500  1
  Si  Si15  1  0.32108099  0.15318699  0.24663100  1
  Si  Si16  1  0.84225597  0.68382495  0.58214200  1
  Si  Si17  1  0.84504197  0.67655195  0.08771500  1
