# generated using pymatgen
data_SrTaO3
_symmetry_space_group_name_H-M   'P 1'
_cell_length_a   5.74073076
_cell_length_b   5.75417805
_cell_length_c   8.22887135
_cell_angle_alpha   90.00000000
_cell_angle_beta   90.00000000
_cell_angle_gamma   90.00000000
_symmetry_Int_Tables_number   1
_chemical_formula_structural   SrTaO3
_chemical_formula_sum   'Sr4 Ta4 O12'
_cell_volume   271.82584537
_cell_formula_units_Z   4
loop_
 _symmetry_equiv_pos_site_id
 _symmetry_equiv_pos_as_xyz
  1  'x, y, z'
loop_
 _atom_site_type_symbol
 _atom_site_label
 _atom_site_symmetry_multiplicity
 _atom_site_fract_x
 _atom_site_fract_y
 _atom_site_fract_z
 _atom_site_occupancy
  Sr  Sr0  1  0.00000000  0.00000000  0.00067300  1
  Sr  Sr1  1  0.00000000  0.00000000  0.50257398  1
  Sr  Sr2  1  0.50000002  0.50000000  0.49742598  1
  Sr  Sr3  1  0.50000002  0.50000000  0.99932696  1
  Ta  Ta4  1  0.00000000  0.50000000  0.75003097  1
  Ta  Ta5  1  0.00000000  0.50000000  0.24976699  1
  Ta  Ta6  1  0.50000002  0.00000000  0.75023297  1
  Ta  Ta7  1  0.50000002  0.00000000  0.24996899  1
  O  O8  1  0.71813203  0.71879399  0.75034997  1
  O  O9  1  0.00000000  0.50000000  0.49988398  1
  O  O10  1  0.28182001  0.28168200  0.24992299  1
  O  O11  1  0.78186803  0.21879400  0.24964999  1
  O  O12  1  0.50000002  0.00000000  0.00015300  1
  O  O13  1  0.50000002  0.00000000  0.50011598  1
  O  O14  1  0.21818001  0.78168199  0.75007697  1
  O  O15  1  0.71818003  0.71831799  0.24992299  1
  O  O16  1  0.00000000  0.50000000  0.99984696  1
  O  O17  1  0.28186801  0.28120600  0.75034997  1
  O  O18  1  0.78182003  0.21831800  0.75007697  1
  O  O19  1  0.21813201  0.78120599  0.24964999  1
