# generated using pymatgen
data_VP
_symmetry_space_group_name_H-M   'P 1'
_cell_length_a   2.49874187
_cell_length_b   2.49874187
_cell_length_c   8.29843616
_cell_angle_alpha   81.34091949
_cell_angle_beta   81.34091949
_cell_angle_gamma   60.00000381
_symmetry_Int_Tables_number   1
_chemical_formula_structural   VP
_chemical_formula_sum   'V2 P2'
_cell_volume   44.18814600
_cell_formula_units_Z   2
loop_
 _symmetry_equiv_pos_site_id
 _symmetry_equiv_pos_as_xyz
  1  'x, y, z'
loop_
 _atom_site_type_symbol
 _atom_site_label
 _atom_site_symmetry_multiplicity
 _atom_site_fract_x
 _atom_site_fract_y
 _atom_site_fract_z
 _atom_site_occupancy
  V  V0  1  0.00000000  0.00000000  0.00000000  1
  P  P1  1  0.25031000  0.25031000  0.24907001  1
  V  V2  1  0.50000000  0.50000000  0.50000003  1
  P  P3  1  0.74969000  0.74969000  0.75093004  1
