# generated using pymatgen
data_Zr3Ti(FeCo)4
_symmetry_space_group_name_H-M   'P 1'
_cell_length_a   4.96610594
_cell_length_b   5.05604982
_cell_length_c   7.88644123
_cell_angle_alpha   90.00000000
_cell_angle_beta   90.00000000
_cell_angle_gamma   119.41325378
_symmetry_Int_Tables_number   1
_chemical_formula_structural   Zr3Ti(FeCo)4
_chemical_formula_sum   'Zr3 Ti1 Fe4 Co4'
_cell_volume   172.49500553
_cell_formula_units_Z   1
loop_
 _symmetry_equiv_pos_site_id
 _symmetry_equiv_pos_as_xyz
  1  'x, y, z'
loop_
 _atom_site_type_symbol
 _atom_site_label
 _atom_site_symmetry_multiplicity
 _atom_site_fract_x
 _atom_site_fract_y
 _atom_site_fract_z
 _atom_site_occupancy
  Zr  Zr0  1  0.66578198  0.33156399  0.31570199  1
  Zr  Zr1  1  0.33419895  0.66839797  0.19277799  1
  Zr  Zr2  1  0.33419895  0.66839797  0.80722198  1
  Ti  Ti3  1  0.66578198  0.33156399  0.68429798  1
  Fe  Fe4  1  0.33409199  0.16589499  -0.00000000  1
  Fe  Fe5  1  0.83180300  0.16589499  -0.00000000  1
  Fe  Fe6  1  0.00254000  0.00508000  0.74943298  1
  Fe  Fe7  1  0.00254000  0.00508000  0.25056699  1
  Co  Co8  1  0.16805798  0.33611599  0.49999999  1
  Co  Co9  1  0.66759695  0.83379097  0.49999999  1
  Co  Co10  1  0.16619394  0.83379097  0.49999999  1
  Co  Co11  1  0.82752596  0.65505197  -0.00000000  1
