# generated using pymatgen
data_SmSi2
_symmetry_space_group_name_H-M   'P 1'
_cell_length_a   4.07582378
_cell_length_b   4.07582378
_cell_length_c   7.56719351
_cell_angle_alpha   105.62314606
_cell_angle_beta   105.62314606
_cell_angle_gamma   90.00000000
_symmetry_Int_Tables_number   1
_chemical_formula_structural   SmSi2
_chemical_formula_sum   'Sm2 Si4'
_cell_volume   116.23444300
_cell_formula_units_Z   2
loop_
 _symmetry_equiv_pos_site_id
 _symmetry_equiv_pos_as_xyz
  1  'x, y, z'
loop_
 _atom_site_type_symbol
 _atom_site_label
 _atom_site_symmetry_multiplicity
 _atom_site_fract_x
 _atom_site_fract_y
 _atom_site_fract_z
 _atom_site_occupancy
  Sm  Sm0  1  0.74920506  0.24920502  0.49841003  1
  Sm  Sm1  1  0.99920511  0.99920507  0.99841007  1
  Si  Si2  1  0.16831304  0.66831305  0.33662603  1
  Si  Si3  1  0.41831305  0.41831303  0.83662602  1
  Si  Si4  1  0.33648206  0.83648206  0.67296404  1
  Si  Si5  1  0.58648207  0.58648204  0.17296405  1
