# generated using pymatgen
data_RbPd2F5
_symmetry_space_group_name_H-M   'P 1'
_cell_length_a   6.65371990
_cell_length_b   7.36433029
_cell_length_c   7.36433029
_cell_angle_alpha   62.02486038
_cell_angle_beta   63.14377594
_cell_angle_gamma   63.14377594
_symmetry_Int_Tables_number   1
_chemical_formula_structural   RbPd2F5
_chemical_formula_sum   'Rb2 Pd4 F10'
_cell_volume   270.82252237
_cell_formula_units_Z   2
loop_
 _symmetry_equiv_pos_site_id
 _symmetry_equiv_pos_as_xyz
  1  'x, y, z'
loop_
 _atom_site_type_symbol
 _atom_site_label
 _atom_site_symmetry_multiplicity
 _atom_site_fract_x
 _atom_site_fract_y
 _atom_site_fract_z
 _atom_site_occupancy
  Rb  Rb0  1  0.61906901  0.63093102  0.13093100  1
  Rb  Rb1  1  0.38093101  0.36906901  0.86906903  1
  Pd  Pd2  1  0.00000000  0.00000000  0.00000000  1
  Pd  Pd3  1  0.00000000  0.50000001  0.50000001  1
  Pd  Pd4  1  0.50000001  0.00000000  0.50000002  1
  Pd  Pd5  1  0.00000000  0.00000000  0.50000001  1
  F  F6  1  0.10643800  0.68213002  0.55789501  1
  F  F7  1  0.34646301  0.31786901  0.44210501  1
  F  F8  1  0.89356202  0.94210503  0.81787002  1
  F  F9  1  0.65353701  0.05789600  0.18213001  1
  F  F10  1  0.89356201  0.31787001  0.44210502  1
  F  F11  1  0.65353701  0.68213102  0.55789502  1
  F  F12  1  0.07005900  0.67994102  0.17994100  1
  F  F13  1  0.92994101  0.32005901  0.82005903  1
  F  F14  1  0.34646301  0.94210403  0.81787002  1
  F  F15  1  0.10643800  0.05789500  0.18213001  1
