# generated using pymatgen
data_TmNi
_symmetry_space_group_name_H-M   'P 1'
_cell_length_a   4.08211517
_cell_length_b   5.38741016
_cell_length_c   7.01255798
_cell_angle_alpha   90.00000000
_cell_angle_beta   90.00000000
_cell_angle_gamma   90.00000000
_symmetry_Int_Tables_number   1
_chemical_formula_structural   TmNi
_chemical_formula_sum   'Tm4 Ni4'
_cell_volume   154.22037696
_cell_formula_units_Z   4
loop_
 _symmetry_equiv_pos_site_id
 _symmetry_equiv_pos_as_xyz
  1  'x, y, z'
loop_
 _atom_site_type_symbol
 _atom_site_label
 _atom_site_symmetry_multiplicity
 _atom_site_fract_x
 _atom_site_fract_y
 _atom_site_fract_z
 _atom_site_occupancy
  Tm  Tm0  1  0.74999997  0.86972997  0.82077600  1
  Tm  Tm1  1  0.24999999  0.13027000  0.17922400  1
  Tm  Tm2  1  0.24999999  0.36972999  0.67922400  1
  Tm  Tm3  1  0.74999997  0.63026998  0.32077600  1
  Ni  Ni4  1  0.24999999  0.87514197  0.53756700  1
  Ni  Ni5  1  0.74999997  0.12485800  0.46243300  1
  Ni  Ni6  1  0.74999997  0.37514199  0.96243300  1
  Ni  Ni7  1  0.24999999  0.62485798  0.03756700  1
