# generated using pymatgen
data_Li5Mn(CoO4)2
_symmetry_space_group_name_H-M   'P 1'
_cell_length_a   2.91814995
_cell_length_b   5.95579195
_cell_length_c   8.25217628
_cell_angle_alpha   89.97890472
_cell_angle_beta   89.30680084
_cell_angle_gamma   88.05714417
_symmetry_Int_Tables_number   1
_chemical_formula_structural   Li5Mn(CoO4)2
_chemical_formula_sum   'Li5 Mn1 Co2 O8'
_cell_volume   143.32901015
_cell_formula_units_Z   1
loop_
 _symmetry_equiv_pos_site_id
 _symmetry_equiv_pos_as_xyz
  1  'x, y, z'
loop_
 _atom_site_type_symbol
 _atom_site_label
 _atom_site_symmetry_multiplicity
 _atom_site_fract_x
 _atom_site_fract_y
 _atom_site_fract_z
 _atom_site_occupancy
  Li  Li0  1  0.99961605  0.25685599  0.73251095  1
  Li  Li1  1  0.50000001  0.00000000  0.49999997  1
  Li  Li2  1  0.50000007  0.49999998  -0.00000002  1
  Li  Li3  1  0.00038410  0.74314398  0.26748897  1
  Li  Li4  1  0.50000007  0.49999998  0.49999996  1
  Mn  Mn5  1  0.99570012  0.74324698  0.73698493  1
  Co  Co6  1  0.00430003  0.25675299  0.26301498  1
  Co  Co7  1  0.50000001  0.00000000  -0.00000001  1
  O  O8  1  0.48136314  0.97175397  0.75315493  1
  O  O9  1  0.00304810  0.75097898  0.51862296  1
  O  O10  1  0.03717403  0.23675399  0.00977299  1
  O  O11  1  0.49084907  0.47178099  0.24901097  1
  O  O12  1  0.50915108  0.52821898  0.75098895  1
  O  O13  1  0.99695205  0.24902099  0.48137696  1
  O  O14  1  0.96282612  0.76324598  0.99022692  1
  O  O15  1  0.51863701  0.02824600  0.24684498  1
