# generated using pymatgen
data_Na3Sr2Cu3H5(BrO)2
_symmetry_space_group_name_H-M   'P 1'
_cell_length_a   4.40426779
_cell_length_b   4.45307827
_cell_length_c   17.84169960
_cell_angle_alpha   91.40573120
_cell_angle_beta   95.01309204
_cell_angle_gamma   119.10638428
_symmetry_Int_Tables_number   1
_chemical_formula_structural   Na3Sr2Cu3H5(BrO)2
_chemical_formula_sum   'Na3 Sr2 Cu3 H5 Br2 O2'
_cell_volume   303.65822628
_cell_formula_units_Z   1
loop_
 _symmetry_equiv_pos_site_id
 _symmetry_equiv_pos_as_xyz
  1  'x, y, z'
loop_
 _atom_site_type_symbol
 _atom_site_label
 _atom_site_symmetry_multiplicity
 _atom_site_fract_x
 _atom_site_fract_y
 _atom_site_fract_z
 _atom_site_occupancy
  Sr  Sr0  1  0.08813105  0.98538906  0.00578200  1
  Sr  Sr1  1  0.89732906  0.40409603  0.21171399  1
  Na  Na2  1  0.66332507  0.81601805  0.41667999  1
  Na  Na3  1  0.44558603  0.31024902  0.62080598  1
  Na  Na4  1  0.38333605  0.72405505  0.82121398  1
  Cu  Cu5  1  0.78909905  0.33956402  0.06266300  1
  Cu  Cu6  1  0.19672701  0.04733600  0.16153900  1
  Cu  Cu7  1  0.59491906  0.76213805  0.26468899  1
  O  O8  1  0.01810902  0.47346603  0.62636398  1
  Br  Br9  1  0.97111407  0.46234003  0.36791999  1
  Br  Br10  1  0.35056802  0.16740101  0.47804499  1
  O  O11  1  0.66440107  0.79234605  0.56286299  1
  H  H12  1  0.94022608  0.85168205  0.85244498  1
  H  H13  1  0.65611206  0.74320005  0.70654098  1
  H  H14  1  0.39825602  0.13362901  0.74718598  1
  H  H15  1  0.63727504  0.19654001  0.89165997  1
  H  H16  1  0.37548705  0.61055104  0.95188998  1
