# generated using pymatgen
data_CaGa2
_symmetry_space_group_name_H-M   'P 1'
_cell_length_a   4.50815201
_cell_length_b   5.73544168
_cell_length_c   5.79217768
_cell_angle_alpha   77.67498016
_cell_angle_beta   67.09783936
_cell_angle_gamma   66.85818481
_symmetry_Int_Tables_number   1
_chemical_formula_structural   CaGa2
_chemical_formula_sum   'Ca2 Ga4'
_cell_volume   126.53320806
_cell_formula_units_Z   2
loop_
 _symmetry_equiv_pos_site_id
 _symmetry_equiv_pos_as_xyz
  1  'x, y, z'
loop_
 _atom_site_type_symbol
 _atom_site_label
 _atom_site_symmetry_multiplicity
 _atom_site_fract_x
 _atom_site_fract_y
 _atom_site_fract_z
 _atom_site_occupancy
  Ca  Ca0  1  0.53726300  0.22469800  0.70077596  1
  Ca  Ca1  1  0.46273698  0.77530201  0.29922394  1
  Ga  Ga2  1  0.84450200  0.20666100  0.10433496  1
  Ga  Ga3  1  0.15549797  0.79333901  0.89566494  1
  Ga  Ga4  1  0.17878199  0.36325101  0.27918497  1
  Ga  Ga5  1  0.82121799  0.63674901  0.72081493  1
