# generated using pymatgen
data_Ca4Ag2Pd5Au
_symmetry_space_group_name_H-M   'P 1'
_cell_length_a   5.90848875
_cell_length_b   5.90848875
_cell_length_c   9.34380627
_cell_angle_alpha   90.00000000
_cell_angle_beta   90.00000000
_cell_angle_gamma   119.59779358
_symmetry_Int_Tables_number   1
_chemical_formula_structural   Ca4Ag2Pd5Au
_chemical_formula_sum   'Ca4 Ag2 Pd5 Au1'
_cell_volume   283.63067943
_cell_formula_units_Z   1
loop_
 _symmetry_equiv_pos_site_id
 _symmetry_equiv_pos_as_xyz
  1  'x, y, z'
loop_
 _atom_site_type_symbol
 _atom_site_label
 _atom_site_symmetry_multiplicity
 _atom_site_fract_x
 _atom_site_fract_y
 _atom_site_fract_z
 _atom_site_occupancy
  Ca  Ca0  1  0.66464000  0.33536000  0.69961898  1
  Ca  Ca1  1  0.33222297  0.66777701  0.81622698  1
  Ca  Ca2  1  0.33222297  0.66777701  0.18377299  1
  Ca  Ca3  1  0.66464000  0.33536000  0.30038099  1
  Ag  Ag4  1  0.16858395  0.83141601  0.49999999  1
  Ag  Ag5  1  0.16842499  0.33678500  0.49999999  1
  Au  Au6  1  0.66321497  0.83157501  0.49999999  1
  Pd  Pd7  1  0.83276302  0.16723700  -0.00000000  1
  Pd  Pd8  1  0.83046799  0.65781801  -0.00000000  1
  Pd  Pd9  1  0.34218200  0.16953200  0.99999997  1
  Pd  Pd10  1  0.00032294  0.99967701  0.75328198  1
  Pd  Pd11  1  0.00032294  0.99967701  0.24671799  1
