# generated using pymatgen
data_SrCoO3
_symmetry_space_group_name_H-M   'P 1'
_cell_length_a   4.83048439
_cell_length_b   5.67418766
_cell_length_c   9.82093430
_cell_angle_alpha   90.01853943
_cell_angle_beta   89.94997406
_cell_angle_gamma   89.53079987
_symmetry_Int_Tables_number   1
_chemical_formula_structural   SrCoO3
_chemical_formula_sum   'Sr4 Co4 O12'
_cell_volume   269.17358077
_cell_formula_units_Z   4
loop_
 _symmetry_equiv_pos_site_id
 _symmetry_equiv_pos_as_xyz
  1  'x, y, z'
loop_
 _atom_site_type_symbol
 _atom_site_label
 _atom_site_symmetry_multiplicity
 _atom_site_fract_x
 _atom_site_fract_y
 _atom_site_fract_z
 _atom_site_occupancy
  Sr  Sr0  1  0.25039893  0.99949297  0.66688400  1
  Sr  Sr1  1  0.74890302  0.00060800  0.33149799  1
  Sr  Sr2  1  0.75040198  0.49986499  0.83509900  1
  Sr  Sr3  1  0.24638697  0.50033499  0.16814099  1
  Co  Co4  1  0.00040393  0.99993797  0.00372599  1
  Co  Co5  1  0.99981999  0.50011799  0.49603299  1
  Co  Co6  1  0.50059801  0.00010300  0.00385399  1
  Co  Co7  1  0.50016398  0.49996399  0.49596000  1
  O  O8  1  0.75041898  0.50033799  0.34551999  1
  O  O9  1  0.74559594  0.99996697  0.85409400  1
  O  O10  1  0.25462993  0.99935297  0.15242199  1
  O  O11  1  0.24984797  0.49975599  0.64661501  1
  O  O12  1  0.76532196  0.77818498  0.07635898  1
  O  O13  1  0.74024300  0.22511599  0.07644398  1
  O  O14  1  0.74803500  0.27994799  0.57075000  1
  O  O15  1  0.75167897  0.72003598  0.57087399  1
  O  O16  1  0.25177595  0.71853898  0.42034800  1
  O  O17  1  0.24833899  0.28163999  0.42011500  1
  O  O18  1  0.23791099  0.22336999  0.93256302  1
  O  O19  1  0.25912395  0.77332298  0.93270101  1
