# generated using pymatgen
data_UNi
_symmetry_space_group_name_H-M   'P 1'
_cell_length_a   3.70712709
_cell_length_b   4.29140806
_cell_length_c   10.64547729
_cell_angle_alpha   90.00000000
_cell_angle_beta   90.00000000
_cell_angle_gamma   90.00000000
_symmetry_Int_Tables_number   1
_chemical_formula_structural   UNi
_chemical_formula_sum   'U4 Ni4'
_cell_volume   169.35671702
_cell_formula_units_Z   4
loop_
 _symmetry_equiv_pos_site_id
 _symmetry_equiv_pos_as_xyz
  1  'x, y, z'
loop_
 _atom_site_type_symbol
 _atom_site_label
 _atom_site_symmetry_multiplicity
 _atom_site_fract_x
 _atom_site_fract_y
 _atom_site_fract_z
 _atom_site_occupancy
  U  U0  1  0.49999999  0.49999999  0.37409099  1
  U  U1  1  -0.00000000  0.49999999  0.85535698  1
  U  U2  1  0.00000000  0.00000000  0.13754900  1
  U  U3  1  0.49999999  0.00000000  0.63771198  1
  Ni  Ni4  1  -0.00000000  0.49999999  0.57941798  1
  Ni  Ni5  1  0.00000000  0.00000000  0.42065599  1
  Ni  Ni6  1  0.49999999  0.00000000  0.90817497  1
  Ni  Ni7  1  0.49999999  0.49999999  0.08704200  1
