# generated using pymatgen
data_SrGa2
_symmetry_space_group_name_H-M   'P 1'
_cell_length_a   4.53113985
_cell_length_b   4.53113985
_cell_length_c   8.75460815
_cell_angle_alpha   90.00000000
_cell_angle_beta   90.00000000
_cell_angle_gamma   120.00000000
_symmetry_Int_Tables_number   1
_chemical_formula_structural   SrGa2
_chemical_formula_sum   'Sr2 Ga4'
_cell_volume   155.66188212
_cell_formula_units_Z   2
loop_
 _symmetry_equiv_pos_site_id
 _symmetry_equiv_pos_as_xyz
  1  'x, y, z'
loop_
 _atom_site_type_symbol
 _atom_site_label
 _atom_site_symmetry_multiplicity
 _atom_site_fract_x
 _atom_site_fract_y
 _atom_site_fract_z
 _atom_site_occupancy
  Sr  Sr0  1  0.00000000  0.00000000  0.00000000  1
  Sr  Sr1  1  0.00000000  0.00000000  0.49999999  1
  Ga  Ga2  1  0.66666667  0.33333331  0.74999999  1
  Ga  Ga3  1  0.33333331  0.66666663  0.25000000  1
  Ga  Ga4  1  0.66666667  0.33333331  0.25000000  1
  Ga  Ga5  1  0.33333331  0.66666663  0.74999999  1
