# generated using pymatgen
data_SmCoGe2
_symmetry_space_group_name_H-M   'P 1'
_cell_length_a   4.18253422
_cell_length_b   4.22848511
_cell_length_c   8.61918068
_cell_angle_alpha   90.00000000
_cell_angle_beta   104.04178619
_cell_angle_gamma   90.00000000
_symmetry_Int_Tables_number   1
_chemical_formula_structural   SmCoGe2
_chemical_formula_sum   'Sm2 Co2 Ge4'
_cell_volume   147.88200083
_cell_formula_units_Z   2
loop_
 _symmetry_equiv_pos_site_id
 _symmetry_equiv_pos_as_xyz
  1  'x, y, z'
loop_
 _atom_site_type_symbol
 _atom_site_label
 _atom_site_symmetry_multiplicity
 _atom_site_fract_x
 _atom_site_fract_y
 _atom_site_fract_z
 _atom_site_occupancy
  Sm  Sm0  1  0.89243896  0.74999998  0.78487798  1
  Sm  Sm1  1  0.10756100  0.24999999  0.21512199  1
  Co  Co2  1  0.31929499  0.24999999  0.63858998  1
  Co  Co3  1  0.68070497  0.74999998  0.36141000  1
  Ge  Ge4  1  0.45805598  0.24999999  0.91611197  1
  Ge  Ge5  1  0.25094999  0.74999998  0.50189999  1
  Ge  Ge6  1  0.74904997  0.24999999  0.49809999  1
  Ge  Ge7  1  0.54194398  0.74999998  0.08388800  1
