# generated using pymatgen
data_Ca(CuAs)2
_symmetry_space_group_name_H-M   'P 1'
_cell_length_a   5.82712984
_cell_length_b   6.05500412
_cell_length_c   7.39248133
_cell_angle_alpha   79.06784821
_cell_angle_beta   66.78855896
_cell_angle_gamma   61.23730850
_symmetry_Int_Tables_number   1
_chemical_formula_structural   Ca(CuAs)2
_chemical_formula_sum   'Ca2 Cu4 As4'
_cell_volume   210.14212957
_cell_formula_units_Z   2
loop_
 _symmetry_equiv_pos_site_id
 _symmetry_equiv_pos_as_xyz
  1  'x, y, z'
loop_
 _atom_site_type_symbol
 _atom_site_label
 _atom_site_symmetry_multiplicity
 _atom_site_fract_x
 _atom_site_fract_y
 _atom_site_fract_z
 _atom_site_occupancy
  Ca  Ca0  1  0.50000001  0.00000000  0.00000001  1
  Ca  Ca1  1  0.25000001  0.50000001  0.50000000  1
  Cu  Cu2  1  0.81877602  0.36244801  0.00000001  1
  Cu  Cu3  1  0.18122402  0.63755202  0.00000001  1
  Cu  Cu4  1  0.93122402  0.13755200  0.50000000  1
  Cu  Cu5  1  0.56877603  0.86244802  0.50000001  1
  As  As6  1  0.11609702  1.00000002  0.76780599  1
  As  As7  1  0.88390302  0.00000000  0.23219401  1
  As  As8  1  0.63390302  0.50000001  0.73219400  1
  As  As9  1  0.86609703  0.50000001  0.26780601  1
