# generated using pymatgen
data_Zr5Ge3
_symmetry_space_group_name_H-M   'P 1'
_cell_length_a   5.95333719
_cell_length_b   8.11371994
_cell_length_c   8.11371899
_cell_angle_alpha   120.00000000
_cell_angle_beta   90.00000000
_cell_angle_gamma   90.00000000
_symmetry_Int_Tables_number   1
_chemical_formula_structural   Zr5Ge3
_chemical_formula_sum   'Zr10 Ge6'
_cell_volume   339.41504443
_cell_formula_units_Z   2
loop_
 _symmetry_equiv_pos_site_id
 _symmetry_equiv_pos_as_xyz
  1  'x, y, z'
loop_
 _atom_site_type_symbol
 _atom_site_label
 _atom_site_symmetry_multiplicity
 _atom_site_fract_x
 _atom_site_fract_y
 _atom_site_fract_z
 _atom_site_occupancy
  Zr  Zr0  1  -0.00000000  0.66666666  0.33333332  1
  Zr  Zr1  1  0.49999998  0.33333333  0.66666669  1
  Zr  Zr2  1  0.99999997  0.33333333  0.66666669  1
  Zr  Zr3  1  0.49999998  0.66666666  0.33333332  1
  Zr  Zr4  1  0.74999998  0.75859299  0.75859301  1
  Zr  Zr5  1  0.24999999  0.75859299  1.00000002  1
  Zr  Zr6  1  0.24999999  0.00000000  0.75859304  1
  Zr  Zr7  1  0.74999998  0.00000000  0.24140701  1
  Zr  Zr8  1  0.74999998  0.24140700  -0.00000001  1
  Zr  Zr9  1  0.24999999  0.24140700  0.24140700  1
  Ge  Ge10  1  0.74999998  0.39948299  0.39948300  1
  Ge  Ge11  1  0.24999999  0.39948299  1.00000004  1
  Ge  Ge12  1  0.24999999  0.00000000  0.39948302  1
  Ge  Ge13  1  0.74999998  0.00000000  0.60051703  1
  Ge  Ge14  1  0.74999998  0.60051699  1.00000003  1
  Ge  Ge15  1  0.24999999  0.60051699  0.60051701  1
