# generated using pymatgen
data_LaZnH2Pt
_symmetry_space_group_name_H-M   'P 1'
_cell_length_a   3.63865209
_cell_length_b   3.63865209
_cell_length_c   11.27551460
_cell_angle_alpha   90.00000000
_cell_angle_beta   90.00000000
_cell_angle_gamma   90.00000000
_symmetry_Int_Tables_number   1
_chemical_formula_structural   LaZnH2Pt
_chemical_formula_sum   'La2 Zn2 H4 Pt2'
_cell_volume   149.28543426
_cell_formula_units_Z   2
loop_
 _symmetry_equiv_pos_site_id
 _symmetry_equiv_pos_as_xyz
  1  'x, y, z'
loop_
 _atom_site_type_symbol
 _atom_site_label
 _atom_site_symmetry_multiplicity
 _atom_site_fract_x
 _atom_site_fract_y
 _atom_site_fract_z
 _atom_site_occupancy
  La  La0  1  0.49999999  0.49999999  0.13878900  1
  La  La1  1  0.00000000  0.00000000  0.63449902  1
  Zn  Zn2  1  0.00000000  0.00000000  0.36550101  1
  Zn  Zn3  1  0.49999999  0.49999999  0.86121103  1
  H  H4  1  0.49999999  0.49999999  0.35162601  1
  H  H5  1  0.00000000  0.00000000  0.84927903  1
  H  H6  1  0.00000000  0.00000000  0.15072101  1
  H  H7  1  0.49999999  0.49999999  0.64837402  1
  Pt  Pt8  1  0.00000000  0.00000000  0.00000000  1
  Pt  Pt9  1  0.49999999  0.49999999  0.50000002  1
