# generated using pymatgen
data_LiV(GeO3)2
_symmetry_space_group_name_H-M   'P 1'
_cell_length_a   5.25630808
_cell_length_b   6.70956421
_cell_length_c   6.71039057
_cell_angle_alpha   85.67716980
_cell_angle_beta   80.25340271
_cell_angle_gamma   80.26548004
_symmetry_Int_Tables_number   1
_chemical_formula_structural   LiV(GeO3)2
_chemical_formula_sum   'Li2 V2 Ge4 O12'
_cell_volume   229.61833931
_cell_formula_units_Z   2
loop_
 _symmetry_equiv_pos_site_id
 _symmetry_equiv_pos_as_xyz
  1  'x, y, z'
loop_
 _atom_site_type_symbol
 _atom_site_label
 _atom_site_symmetry_multiplicity
 _atom_site_fract_x
 _atom_site_fract_y
 _atom_site_fract_z
 _atom_site_occupancy
  Li  Li0  1  0.25013000  0.26303101  0.73727696  1
  Li  Li1  1  0.74988699  0.73723702  0.26284694  1
  V  V2  1  0.75034500  0.09254300  0.90710894  1
  V  V3  1  0.24987699  0.90697302  0.09263896  1
  Ge  Ge4  1  0.22089799  0.79333402  0.60746495  1
  Ge  Ge5  1  0.27918000  0.39249801  0.20675797  1
  Ge  Ge6  1  0.77925400  0.20679700  0.39252295  1
  Ge  Ge7  1  0.72089399  0.60748301  0.79331893  1
  O  O8  1  0.42253399  0.57453301  0.70711994  1
  O  O9  1  0.07753200  0.29293401  0.42547898  1
  O  O10  1  0.57743999  0.42552101  0.29289995  1
  O  O11  1  0.92253099  0.70709402  0.57457392  1
  O  O12  1  0.88411899  0.37110501  0.86323993  1
  O  O13  1  0.61581300  0.13687300  0.62861695  1
  O  O14  1  0.11560199  0.62867301  0.13680297  1
  O  O15  1  0.38395799  0.86323002  0.37121495  1
  O  O16  1  0.13251799  0.97219902  0.79827794  1
  O  O17  1  0.36762300  0.20169100  0.02801998  1
  O  O18  1  0.86751500  0.02804100  0.20166895  1
  O  O19  1  0.63234899  0.79820902  0.97214892  1
