# generated using pymatgen
data_Sr3TiCoO7
_symmetry_space_group_name_H-M   'P 1'
_cell_length_a   3.89573789
_cell_length_b   3.89573789
_cell_length_c   10.95442390
_cell_angle_alpha   100.24256134
_cell_angle_beta   100.24256134
_cell_angle_gamma   90.00000000
_symmetry_Int_Tables_number   1
_chemical_formula_structural   Sr3TiCoO7
_chemical_formula_sum   'Sr3 Ti1 Co1 O7'
_cell_volume   160.91031551
_cell_formula_units_Z   1
loop_
 _symmetry_equiv_pos_site_id
 _symmetry_equiv_pos_as_xyz
  1  'x, y, z'
loop_
 _atom_site_type_symbol
 _atom_site_label
 _atom_site_symmetry_multiplicity
 _atom_site_fract_x
 _atom_site_fract_y
 _atom_site_fract_z
 _atom_site_occupancy
  Sr  Sr0  1  0.68896704  0.68896703  0.37793402  1
  Sr  Sr1  1  0.31703302  0.31703301  0.63406600  1
  Sr  Sr2  1  0.48897603  0.48897602  0.97795201  1
  Ti  Ti3  1  0.89768205  0.89768203  0.79536402  1
  Co  Co4  1  0.09695901  0.09695900  0.19391800  1
  O  O5  1  0.90529904  0.40529902  0.81059801  1
  O  O6  1  0.40529903  0.90529903  0.81059801  1
  O  O7  1  0.09875601  0.59875602  0.19751201  1
  O  O8  1  0.59875602  0.09875600  0.19751201  1
  O  O9  1  0.80298704  0.80298703  0.60597402  1
  O  O10  1  0.19520601  0.19520601  0.39041200  1
  O  O11  1  0.00408000  0.00408000  0.00816000  1
