# generated using pymatgen
data_TmCoGe
_symmetry_space_group_name_H-M   'P 1'
_cell_length_a   4.21855783
_cell_length_b   6.85301924
_cell_length_c   7.21893406
_cell_angle_alpha   90.00000000
_cell_angle_beta   90.00000000
_cell_angle_gamma   90.00000000
_symmetry_Int_Tables_number   1
_chemical_formula_structural   TmCoGe
_chemical_formula_sum   'Tm4 Co4 Ge4'
_cell_volume   208.69835853
_cell_formula_units_Z   4
loop_
 _symmetry_equiv_pos_site_id
 _symmetry_equiv_pos_as_xyz
  1  'x, y, z'
loop_
 _atom_site_type_symbol
 _atom_site_label
 _atom_site_symmetry_multiplicity
 _atom_site_fract_x
 _atom_site_fract_y
 _atom_site_fract_z
 _atom_site_occupancy
  Tm  Tm0  1  0.25000001  0.99152097  0.80040899  1
  Tm  Tm1  1  0.25000001  0.49152098  0.69959099  1
  Tm  Tm2  1  0.75000003  0.00847900  0.19959100  1
  Tm  Tm3  1  0.75000003  0.50847898  0.30040900  1
  Co  Co4  1  0.25000001  0.15671499  0.43216200  1
  Co  Co5  1  0.25000001  0.65671498  0.06783800  1
  Co  Co6  1  0.75000003  0.84328497  0.56783800  1
  Co  Co7  1  0.75000003  0.34328499  0.93216199  1
  Ge  Ge8  1  0.25000001  0.79623997  0.40080900  1
  Ge  Ge9  1  0.25000001  0.29623999  0.09919100  1
  Ge  Ge10  1  0.75000003  0.20375999  0.59919100  1
  Ge  Ge11  1  0.75000003  0.70375998  0.90080899  1
