# generated using pymatgen
data_ErRu2
_symmetry_space_group_name_H-M   'P 1'
_cell_length_a   5.31163406
_cell_length_b   5.31163406
_cell_length_c   8.69180202
_cell_angle_alpha   90.00000000
_cell_angle_beta   90.00000000
_cell_angle_gamma   120.00000000
_symmetry_Int_Tables_number   1
_chemical_formula_structural   ErRu2
_chemical_formula_sum   'Er4 Ru8'
_cell_volume   212.37175315
_cell_formula_units_Z   4
loop_
 _symmetry_equiv_pos_site_id
 _symmetry_equiv_pos_as_xyz
  1  'x, y, z'
loop_
 _atom_site_type_symbol
 _atom_site_label
 _atom_site_symmetry_multiplicity
 _atom_site_fract_x
 _atom_site_fract_y
 _atom_site_fract_z
 _atom_site_occupancy
  Er  Er0  1  0.66666666  0.33333333  0.56165700  1
  Er  Er1  1  0.33333333  0.66666666  0.06165700  1
  Er  Er2  1  0.33333333  0.66666666  0.43834300  1
  Er  Er3  1  0.66666666  0.33333333  0.93834300  1
  Ru  Ru4  1  0.34270800  0.17135400  0.25000000  1
  Ru  Ru5  1  0.65729199  0.82864599  0.75000000  1
  Ru  Ru6  1  0.17135400  0.34270800  0.75000000  1
  Ru  Ru7  1  0.82864599  0.17135400  0.25000000  1
  Ru  Ru8  1  0.82864599  0.65729200  0.25000000  1
  Ru  Ru9  1  0.17135400  0.82864599  0.75000000  1
  Ru  Ru10  1  0.00000000  0.00000000  0.50000000  1
  Ru  Ru11  1  0.00000000  0.00000000  0.00000000  1
