# generated using pymatgen
data_LuMgAl6
_symmetry_space_group_name_H-M   'P 1'
_cell_length_a   4.51351118
_cell_length_b   5.91036415
_cell_length_c   5.91036367
_cell_angle_alpha   120.00000000
_cell_angle_beta   90.00000000
_cell_angle_gamma   90.00000000
_symmetry_Int_Tables_number   1
_chemical_formula_structural   LuMgAl6
_chemical_formula_sum   'Lu1 Mg1 Al6'
_cell_volume   136.54430726
_cell_formula_units_Z   1
loop_
 _symmetry_equiv_pos_site_id
 _symmetry_equiv_pos_as_xyz
  1  'x, y, z'
loop_
 _atom_site_type_symbol
 _atom_site_label
 _atom_site_symmetry_multiplicity
 _atom_site_fract_x
 _atom_site_fract_y
 _atom_site_fract_z
 _atom_site_occupancy
  Lu  Lu0  1  0.74999997  0.33333332  0.66666666  1
  Mg  Mg1  1  0.24999999  0.66666664  0.33333331  1
  Al  Al2  1  0.24999999  0.14386499  0.28773000  1
  Al  Al3  1  0.24999999  0.71226997  0.85613498  1
  Al  Al4  1  0.24999999  0.14386499  0.85613500  1
  Al  Al5  1  0.74999997  0.85613496  0.71226997  1
  Al  Al6  1  0.74999997  0.28772999  0.14386499  1
  Al  Al7  1  0.74999997  0.85613496  0.14386497  1
