# generated using pymatgen
data_NbC
_symmetry_space_group_name_H-M   'P 1'
_cell_length_a   3.20218587
_cell_length_b   3.20218587
_cell_length_c   5.57621288
_cell_angle_alpha   73.31384277
_cell_angle_beta   73.31384277
_cell_angle_gamma   60.00000381
_symmetry_Int_Tables_number   1
_chemical_formula_structural   NbC
_chemical_formula_sum   'Nb2 C2'
_cell_volume   46.71717497
_cell_formula_units_Z   2
loop_
 _symmetry_equiv_pos_site_id
 _symmetry_equiv_pos_as_xyz
  1  'x, y, z'
loop_
 _atom_site_type_symbol
 _atom_site_label
 _atom_site_symmetry_multiplicity
 _atom_site_fract_x
 _atom_site_fract_y
 _atom_site_fract_z
 _atom_site_occupancy
  Nb  Nb0  1  0.00174600  0.00174600  0.99476202  1
  Nb  Nb1  1  0.49697298  0.49697299  0.50908104  1
  C  C2  1  0.75053398  0.75053399  0.74839806  1
  C  C3  1  0.25074699  0.25074700  0.24775902  1
