# generated using pymatgen
data_SrGa4GePd2
_symmetry_space_group_name_H-M   'P 1'
_cell_length_a   4.43658686
_cell_length_b   4.43658686
_cell_length_c   8.75841618
_cell_angle_alpha   90.00000000
_cell_angle_beta   90.00000000
_cell_angle_gamma   90.00000000
_symmetry_Int_Tables_number   1
_chemical_formula_structural   SrGa4GePd2
_chemical_formula_sum   'Sr1 Ga4 Ge1 Pd2'
_cell_volume   172.39455885
_cell_formula_units_Z   1
loop_
 _symmetry_equiv_pos_site_id
 _symmetry_equiv_pos_as_xyz
  1  'x, y, z'
loop_
 _atom_site_type_symbol
 _atom_site_label
 _atom_site_symmetry_multiplicity
 _atom_site_fract_x
 _atom_site_fract_y
 _atom_site_fract_z
 _atom_site_occupancy
  Sr  Sr0  1  0.00000000  0.00000000  0.49999999  1
  Ga  Ga1  1  0.00000000  0.50000002  0.17358500  1
  Ga  Ga2  1  0.00000000  0.50000002  0.82641498  1
  Ga  Ga3  1  0.50000002  0.00000000  0.17358500  1
  Ga  Ga4  1  0.50000002  0.00000000  0.82641498  1
  Ge  Ge5  1  0.50000002  0.50000002  0.34068399  1
  Pd  Pd6  1  0.50000002  0.50000002  0.65931599  1
  Pd  Pd7  1  0.00000000  0.00000000  0.00000000  1
