# generated using pymatgen
data_Ba4In2MoO12
_symmetry_space_group_name_H-M   'P 1'
_cell_length_a   5.87232161
_cell_length_b   5.87232161
_cell_length_c   10.12285042
_cell_angle_alpha   73.13889313
_cell_angle_beta   73.13889313
_cell_angle_gamma   60.00000381
_symmetry_Int_Tables_number   1
_chemical_formula_structural   Ba4In2MoO12
_chemical_formula_sum   'Ba4 In2 Mo1 O12'
_cell_volume   284.85054320
_cell_formula_units_Z   1
loop_
 _symmetry_equiv_pos_site_id
 _symmetry_equiv_pos_as_xyz
  1  'x, y, z'
loop_
 _atom_site_type_symbol
 _atom_site_label
 _atom_site_symmetry_multiplicity
 _atom_site_fract_x
 _atom_site_fract_y
 _atom_site_fract_z
 _atom_site_occupancy
  Ba  Ba0  1  0.28914298  0.28914300  0.13257102  1
  Ba  Ba1  1  0.71189194  0.71189200  0.86432405  1
  Ba  Ba2  1  0.13533399  0.13533400  0.59399801  1
  Ba  Ba3  1  0.86538493  0.86538500  0.40384507  1
  In  In4  1  0.00147100  0.00147100  0.99558699  1
  In  In5  1  0.42377297  0.42377300  0.72868103  1
  Mo  Mo6  1  0.58003995  0.58004000  0.25988005  1
  O  O7  1  0.78893296  0.29673500  0.12539904  1
  O  O8  1  0.78893294  0.78893300  0.12539907  1
  O  O9  1  0.29673495  0.78893300  0.12539905  1
  O  O10  1  0.20150796  0.71252700  0.88445703  1
  O  O11  1  0.20150798  0.20150800  0.88445701  1
  O  O12  1  0.71252697  0.20150800  0.88445703  1
  O  O13  1  0.61752498  0.12576400  0.63918602  1
  O  O14  1  0.61752495  0.61752500  0.63918605  1
  O  O15  1  0.12576396  0.61752500  0.63918603  1
  O  O16  1  0.38858794  0.86483000  0.35799405  1
  O  O17  1  0.38858797  0.38858800  0.35799403  1
  O  O18  1  0.86482996  0.38858800  0.35799405  1
