# generated using pymatgen
data_NaHg2
_symmetry_space_group_name_H-M   'P 1'
_cell_length_a   4.06013584
_cell_length_b   4.14415646
_cell_length_c   4.14415646
_cell_angle_alpha   108.13508606
_cell_angle_beta   90.00000000
_cell_angle_gamma   90.00000000
_symmetry_Int_Tables_number   1
_chemical_formula_structural   NaHg2
_chemical_formula_sum   'Na1 Hg2'
_cell_volume   66.26514373
_cell_formula_units_Z   1
loop_
 _symmetry_equiv_pos_site_id
 _symmetry_equiv_pos_as_xyz
  1  'x, y, z'
loop_
 _atom_site_type_symbol
 _atom_site_label
 _atom_site_symmetry_multiplicity
 _atom_site_fract_x
 _atom_site_fract_y
 _atom_site_fract_z
 _atom_site_occupancy
  Na  Na0  1  1.00000004  0.49999998  0.50000000  1
  Hg  Hg1  1  0.50000002  0.89862997  0.10137003  1
  Hg  Hg2  1  0.50000002  0.10137000  0.89862996  1
