# generated using pymatgen
data_Sr2InRuO5
_symmetry_space_group_name_H-M   'P 1'
_cell_length_a   6.83904457
_cell_length_b   6.83904457
_cell_length_c   7.50638723
_cell_angle_alpha   116.99150848
_cell_angle_beta   116.99150848
_cell_angle_gamma   90.21256256
_symmetry_Int_Tables_number   1
_chemical_formula_structural   Sr2InRuO5
_chemical_formula_sum   'Sr4 In2 Ru2 O10'
_cell_volume   268.87442856
_cell_formula_units_Z   2
loop_
 _symmetry_equiv_pos_site_id
 _symmetry_equiv_pos_as_xyz
  1  'x, y, z'
loop_
 _atom_site_type_symbol
 _atom_site_label
 _atom_site_symmetry_multiplicity
 _atom_site_fract_x
 _atom_site_fract_y
 _atom_site_fract_z
 _atom_site_occupancy
  Sr  Sr0  1  0.75000011  0.75000006  0.50000008  1
  Sr  Sr1  1  0.25000004  0.25000002  0.50000002  1
  Sr  Sr2  1  0.32688510  0.82688506  0.00000009  1
  Sr  Sr3  1  0.67311505  0.17311501  0.00000004  1
  In  In4  1  0.18009604  0.31990402  0.00000003  1
  In  In5  1  0.81990411  0.68009605  0.00000009  1
  Ru  Ru6  1  0.74817306  0.24817302  0.49634704  1
  Ru  Ru7  1  0.25182709  0.75182706  0.50365306  1
  O  O8  1  0.28679909  0.78679906  0.28600807  1
  O  O9  1  0.99920910  0.49920904  0.28600807  1
  O  O10  1  0.49209705  0.29353502  0.28563304  1
  O  O11  1  0.79353514  0.99209707  0.28563311  1
  O  O12  1  0.71320106  0.21320102  0.71399203  1
  O  O13  1  0.00079105  0.50079104  0.71399203  1
  O  O14  1  0.50790310  0.70646505  0.71436706  1
  O  O15  1  0.20646501  0.00790300  0.71436699  1
  O  O16  1  0.50000007  0.50000004  0.00000006  1
  O  O17  1  0.00000000  0.00000000  0.00000000  1
