# generated using pymatgen
data_YCd4S5
_symmetry_space_group_name_H-M   'P 1'
_cell_length_a   4.30246592
_cell_length_b   4.30246592
_cell_length_c   15.38741493
_cell_angle_alpha   98.03654480
_cell_angle_beta   98.03654480
_cell_angle_gamma   90.00000000
_symmetry_Int_Tables_number   1
_chemical_formula_structural   YCd4S5
_chemical_formula_sum   'Y1 Cd4 S5'
_cell_volume   279.21692469
_cell_formula_units_Z   1
loop_
 _symmetry_equiv_pos_site_id
 _symmetry_equiv_pos_as_xyz
  1  'x, y, z'
loop_
 _atom_site_type_symbol
 _atom_site_label
 _atom_site_symmetry_multiplicity
 _atom_site_fract_x
 _atom_site_fract_y
 _atom_site_fract_z
 _atom_site_occupancy
  Cd  Cd0  1  0.80942901  0.80942901  0.61885798  1
  Y  Y1  1  0.19057100  0.19057100  0.38114199  1
  Cd  Cd2  1  0.59592201  0.59592201  0.19184399  1
  Cd  Cd3  1  0.00000000  0.00000000  0.00000000  1
  Cd  Cd4  1  0.40407801  0.40407801  0.80815598  1
  S  S5  1  0.75000001  0.25000000  0.49999998  1
  S  S6  1  0.14320800  0.64320801  0.28641599  1
  S  S7  1  0.54823901  0.04823900  0.09647799  1
  S  S8  1  0.95176101  0.45176101  0.90352197  1
  S  S9  1  0.35679200  0.85679201  0.71358398  1
