# generated using pymatgen
data_Zr3Ni3P2Os
_symmetry_space_group_name_H-M   'P 1'
_cell_length_a   3.52117491
_cell_length_b   6.39977407
_cell_length_c   6.39977312
_cell_angle_alpha   120.00000763
_cell_angle_beta   90.00000000
_cell_angle_gamma   90.00000000
_symmetry_Int_Tables_number   1
_chemical_formula_structural   Zr3Ni3P2Os
_chemical_formula_sum   'Zr3 Ni3 P2 Os1'
_cell_volume   124.89568016
_cell_formula_units_Z   1
loop_
 _symmetry_equiv_pos_site_id
 _symmetry_equiv_pos_as_xyz
  1  'x, y, z'
loop_
 _atom_site_type_symbol
 _atom_site_label
 _atom_site_symmetry_multiplicity
 _atom_site_fract_x
 _atom_site_fract_y
 _atom_site_fract_z
 _atom_site_occupancy
  Zr  Zr0  1  1.00000003  0.41131801  0.41131804  1
  Zr  Zr1  1  -0.00000000  1.00000003  0.58868209  1
  Zr  Zr2  1  1.00000003  0.58868202  0.00000004  1
  Ni  Ni3  1  0.50000001  0.75189002  0.75189007  1
  Ni  Ni4  1  0.50000001  1.00000003  0.24811008  1
  Ni  Ni5  1  0.50000001  0.24811001  0.00000002  1
  P  P6  1  0.50000001  0.66666668  0.33333339  1
  P  P7  1  0.50000001  0.33333334  0.66666671  1
  Os  Os8  1  0.00000000  0.00000000  0.00000000  1
