# generated using pymatgen
data_La3BiS3
_symmetry_space_group_name_H-M   'P 1'
_cell_length_a   7.71157694
_cell_length_b   7.71157694
_cell_length_c   7.71157694
_cell_angle_alpha   109.47122192
_cell_angle_beta   109.47122192
_cell_angle_gamma   109.47122192
_symmetry_Int_Tables_number   1
_chemical_formula_structural   La3BiS3
_chemical_formula_sum   'La6 Bi2 S6'
_cell_volume   353.02680015
_cell_formula_units_Z   2
loop_
 _symmetry_equiv_pos_site_id
 _symmetry_equiv_pos_as_xyz
  1  'x, y, z'
loop_
 _atom_site_type_symbol
 _atom_site_label
 _atom_site_symmetry_multiplicity
 _atom_site_fract_x
 _atom_site_fract_y
 _atom_site_fract_z
 _atom_site_occupancy
  La  La0  1  0.63509600  0.00000000  0.00000002  1
  La  La1  1  0.00000003  0.50000002  0.13509603  1
  La  La2  1  0.50000004  0.63509602  0.50000004  1
  La  La3  1  0.13509600  0.00000000  0.00000000  1
  La  La4  1  0.86490406  0.86490403  0.36490407  1
  La  La5  1  1.00000003  0.50000002  0.63509605  1
  Bi  Bi6  1  0.36490402  0.36490401  0.86490402  1
  Bi  Bi7  1  0.50000001  0.13509600  0.50000002  1
  S  S8  1  0.75000004  0.62500002  0.87500005  1
  S  S9  1  0.25000006  0.87500003  0.62500005  1
  S  S10  1  0.87500001  0.12500000  0.75000002  1
  S  S11  1  0.62500003  0.37500001  0.25000003  1
  S  S12  1  0.12500002  0.25000001  0.37500002  1
  S  S13  1  0.37500005  0.75000003  0.12500005  1
