# generated using pymatgen
data_U3Ni3Sb4
_symmetry_space_group_name_H-M   'P 1'
_cell_length_a   8.29895878
_cell_length_b   8.29895878
_cell_length_c   8.29895878
_cell_angle_alpha   109.47122192
_cell_angle_beta   109.47122192
_cell_angle_gamma   109.47122192
_symmetry_Int_Tables_number   1
_chemical_formula_structural   U3Ni3Sb4
_chemical_formula_sum   'U6 Ni6 Sb8'
_cell_volume   439.99618482
_cell_formula_units_Z   2
loop_
 _symmetry_equiv_pos_site_id
 _symmetry_equiv_pos_as_xyz
  1  'x, y, z'
loop_
 _atom_site_type_symbol
 _atom_site_label
 _atom_site_symmetry_multiplicity
 _atom_site_fract_x
 _atom_site_fract_y
 _atom_site_fract_z
 _atom_site_occupancy
  U  U0  1  0.87500000  0.12500000  0.75000001  1
  U  U1  1  0.62500002  0.37500001  0.25000003  1
  U  U2  1  0.12500001  0.25000001  0.37500001  1
  U  U3  1  0.37500004  0.75000002  0.12500005  1
  U  U4  1  0.75000003  0.62500001  0.87500004  1
  U  U5  1  0.25000005  0.87500002  0.62500004  1
  Ni  Ni6  1  0.37500004  0.62500001  0.75000003  1
  Ni  Ni7  1  0.12500005  0.87500002  0.25000005  1
  Ni  Ni8  1  0.62500001  0.25000001  0.87500001  1
  Ni  Ni9  1  0.87500004  0.75000002  0.62500005  1
  Ni  Ni10  1  0.75000000  0.12500000  0.37500002  1
  Ni  Ni11  1  0.25000002  0.37500001  0.12500002  1
  Sb  Sb12  1  0.00000003  0.50000001  0.65983502  1
  Sb  Sb13  1  0.34016502  0.34016501  0.84016501  1
  Sb  Sb14  1  0.50000001  0.15983500  0.50000001  1
  Sb  Sb15  1  0.15983506  1.00000002  0.00000006  1
  Sb  Sb16  1  0.84016505  0.84016502  0.34016506  1
  Sb  Sb17  1  1.00000002  0.50000001  0.15983505  1
  Sb  Sb18  1  0.50000004  0.65983501  0.50000004  1
  Sb  Sb19  1  0.65983506  1.00000002  1.00000005  1
