# generated using pymatgen
data_ZrGe3
_symmetry_space_group_name_H-M   'P 1'
_cell_length_a   3.83500791
_cell_length_b   3.83500791
_cell_length_c   8.69062996
_cell_angle_alpha   90.00000000
_cell_angle_beta   90.00000000
_cell_angle_gamma   90.00000000
_symmetry_Int_Tables_number   1
_chemical_formula_structural   ZrGe3
_chemical_formula_sum   'Zr2 Ge6'
_cell_volume   127.81557719
_cell_formula_units_Z   2
loop_
 _symmetry_equiv_pos_site_id
 _symmetry_equiv_pos_as_xyz
  1  'x, y, z'
loop_
 _atom_site_type_symbol
 _atom_site_label
 _atom_site_symmetry_multiplicity
 _atom_site_fract_x
 _atom_site_fract_y
 _atom_site_fract_z
 _atom_site_occupancy
  Zr  Zr0  1  0.50000001  0.00000000  0.74991100  1
  Zr  Zr1  1  0.00000000  0.50000001  0.25008900  1
  Ge  Ge2  1  0.00000000  0.50000001  0.75136900  1
  Ge  Ge3  1  0.50000001  0.00000000  0.24863100  1
  Ge  Ge4  1  0.50000001  0.50000001  0.00000000  1
  Ge  Ge5  1  0.00000000  0.00000000  0.50000000  1
  Ge  Ge6  1  0.00000000  0.00000000  0.00000000  1
  Ge  Ge7  1  0.50000001  0.50000001  0.50000000  1
