# generated using pymatgen
data_TbPt
_symmetry_space_group_name_H-M   'P 1'
_cell_length_a   3.64743209
_cell_length_b   4.63862705
_cell_length_c   5.77018642
_cell_angle_alpha   90.00000000
_cell_angle_beta   108.42472076
_cell_angle_gamma   90.00000000
_symmetry_Int_Tables_number   1
_chemical_formula_structural   TbPt
_chemical_formula_sum   'Tb2 Pt2'
_cell_volume   92.62188283
_cell_formula_units_Z   2
loop_
 _symmetry_equiv_pos_site_id
 _symmetry_equiv_pos_as_xyz
  1  'x, y, z'
loop_
 _atom_site_type_symbol
 _atom_site_label
 _atom_site_symmetry_multiplicity
 _atom_site_fract_x
 _atom_site_fract_y
 _atom_site_fract_z
 _atom_site_occupancy
  Tb  Tb0  1  0.86003297  0.74999999  0.72006598  1
  Tb  Tb1  1  0.13996700  0.25000000  0.27993399  1
  Pt  Pt2  1  0.58902498  0.74999999  0.17804999  1
  Pt  Pt3  1  0.41097499  0.25000000  0.82194998  1
