# generated using pymatgen
data_ZrTi2NiGe4
_symmetry_space_group_name_H-M   'P 1'
_cell_length_a   2.82291508
_cell_length_b   4.61930609
_cell_length_c   9.96067810
_cell_angle_alpha   90.00000000
_cell_angle_beta   90.00000000
_cell_angle_gamma   90.00000000
_symmetry_Int_Tables_number   1
_chemical_formula_structural   ZrTi2NiGe4
_chemical_formula_sum   'Zr1 Ti2 Ni1 Ge4'
_cell_volume   129.88633402
_cell_formula_units_Z   1
loop_
 _symmetry_equiv_pos_site_id
 _symmetry_equiv_pos_as_xyz
  1  'x, y, z'
loop_
 _atom_site_type_symbol
 _atom_site_label
 _atom_site_symmetry_multiplicity
 _atom_site_fract_x
 _atom_site_fract_y
 _atom_site_fract_z
 _atom_site_occupancy
  Zr  Zr0  1  0.00000000  0.49999999  0.40014500  1
  Ti  Ti1  1  0.00000000  0.49999999  0.91856299  1
  Ti  Ti2  1  0.00000000  0.00000000  0.09747300  1
  Ge  Ge3  1  0.00000000  0.00000000  0.58851399  1
  Ge  Ge4  1  0.49999999  0.49999999  0.15920900  1
  Ge  Ge5  1  0.49999999  0.49999999  0.66247399  1
  Ni  Ni6  1  0.49999999  0.00000000  0.33491800  1
  Ge  Ge7  1  0.49999999  0.00000000  0.83870499  1
