# generated using pymatgen
data_Ce(GaPt)2
_symmetry_space_group_name_H-M   'P 1'
_cell_length_a   4.35002422
_cell_length_b   6.24157619
_cell_length_c   7.88678312
_cell_angle_alpha   113.30953979
_cell_angle_beta   106.00846100
_cell_angle_gamma   90.00000000
_symmetry_Int_Tables_number   1
_chemical_formula_structural   Ce(GaPt)2
_chemical_formula_sum   'Ce2 Ga4 Pt4'
_cell_volume   187.58056709
_cell_formula_units_Z   2
loop_
 _symmetry_equiv_pos_site_id
 _symmetry_equiv_pos_as_xyz
  1  'x, y, z'
loop_
 _atom_site_type_symbol
 _atom_site_label
 _atom_site_symmetry_multiplicity
 _atom_site_fract_x
 _atom_site_fract_y
 _atom_site_fract_z
 _atom_site_occupancy
  Ce  Ce0  1  0.88632790  0.63632796  0.77265592  1
  Ce  Ce1  1  0.11367197  0.36367198  0.22734397  1
  Ga  Ga2  1  0.69786490  0.72556595  0.39572993  1
  Ga  Ga3  1  0.30213492  0.82983595  0.60426993  1
  Ga  Ga4  1  0.69786494  0.17016399  0.39572996  1
  Ga  Ga5  1  0.49999993  0.49999997  -0.00000005  1
  Pt  Pt6  1  0.30213496  0.27443398  0.60426997  1
  Pt  Pt7  1  0.89080093  0.14080099  0.78160195  1
  Pt  Pt8  1  0.10919894  0.85919895  0.21839794  1
  Pt  Pt9  1  0.49999990  0.99999994  -0.00000008  1
