# generated using pymatgen
data_Li2Sn
_symmetry_space_group_name_H-M   'P 1'
_cell_length_a   4.50485611
_cell_length_b   7.96310234
_cell_length_c   8.88929844
_cell_angle_alpha   115.95856476
_cell_angle_beta   104.67800140
_cell_angle_gamma   90.00000000
_symmetry_Int_Tables_number   1
_chemical_formula_structural   Li2Sn
_chemical_formula_sum   'Li6 Sn3'
_cell_volume   275.08964439
_cell_formula_units_Z   3
loop_
 _symmetry_equiv_pos_site_id
 _symmetry_equiv_pos_as_xyz
  1  'x, y, z'
loop_
 _atom_site_type_symbol
 _atom_site_label
 _atom_site_symmetry_multiplicity
 _atom_site_fract_x
 _atom_site_fract_y
 _atom_site_fract_z
 _atom_site_occupancy
  Li  Li0  1  0.76307102  0.76416500  0.52614198  1
  Li  Li1  1  0.25911501  0.25442200  0.51822998  1
  Li  Li2  1  0.42698102  0.77228400  0.85396196  1
  Li  Li3  1  0.06201503  0.71138700  0.12402998  1
  Li  Li4  1  0.55078000  0.23432400  0.10156001  1
  Li  Li5  1  0.12632502  0.45442200  0.25264998  1
  Sn  Sn6  1  0.61507203  0.95022701  0.23014398  1
  Sn  Sn7  1  0.88384901  0.54376300  0.76769799  1
  Sn  Sn8  1  0.37758200  0.04400500  0.75516398  1
