# generated using pymatgen
data_Sr2NdSbO6
_symmetry_space_group_name_H-M   'P 1'
_cell_length_a   5.83972692
_cell_length_b   6.01004601
_cell_length_c   8.31982517
_cell_angle_alpha   90.00000000
_cell_angle_beta   89.78655243
_cell_angle_gamma   90.00000000
_symmetry_Int_Tables_number   1
_chemical_formula_structural   Sr2NdSbO6
_chemical_formula_sum   'Sr4 Nd2 Sb2 O12'
_cell_volume   291.99910644
_cell_formula_units_Z   2
loop_
 _symmetry_equiv_pos_site_id
 _symmetry_equiv_pos_as_xyz
  1  'x, y, z'
loop_
 _atom_site_type_symbol
 _atom_site_label
 _atom_site_symmetry_multiplicity
 _atom_site_fract_x
 _atom_site_fract_y
 _atom_site_fract_z
 _atom_site_occupancy
  Sr  Sr0  1  0.48632601  0.45174700  0.24664197  1
  Sr  Sr1  1  0.01367400  0.95174700  0.25335799  1
  Sr  Sr2  1  0.98632601  0.04825300  0.74664194  1
  Sr  Sr3  1  0.51367401  0.54825300  0.75335795  1
  Nd  Nd4  1  0.50000001  0.00000000  -0.00000001  1
  Nd  Nd5  1  -0.00000000  0.50000000  0.49999997  1
  Sb  Sb6  1  0.50000001  0.00000000  0.49999996  1
  Sb  Sb7  1  1.00000001  0.50000000  -0.00000003  1
  O  O8  1  0.59208401  0.03422200  0.26699897  1
  O  O9  1  0.90791601  0.53422200  0.23300096  1
  O  O10  1  0.40791601  0.96577800  0.73300095  1
  O  O11  1  0.09208400  0.46577800  0.76699896  1
  O  O12  1  0.72382601  0.30752400  0.95679393  1
  O  O13  1  0.77617401  0.80752400  0.54320595  1
  O  O14  1  0.27617400  0.69247600  0.04320599  1
  O  O15  1  0.22382600  0.19247600  0.45679397  1
  O  O16  1  0.31036100  0.72747300  0.44608497  1
  O  O17  1  0.18963900  0.22747300  0.05391499  1
  O  O18  1  0.68963901  0.27252700  0.55391495  1
  O  O19  1  0.81036101  0.77252700  0.94608493  1
