# generated using pymatgen
data_Sr3Li2U(WO6)2
_symmetry_space_group_name_H-M   'P 1'
_cell_length_a   5.72539043
_cell_length_b   5.77952576
_cell_length_c   8.03104877
_cell_angle_alpha   90.17838287
_cell_angle_beta   89.99966431
_cell_angle_gamma   90.00331116
_symmetry_Int_Tables_number   1
_chemical_formula_structural   Sr3Li2U(WO6)2
_chemical_formula_sum   'Sr3 Li2 U1 W2 O12'
_cell_volume   265.74644870
_cell_formula_units_Z   1
loop_
 _symmetry_equiv_pos_site_id
 _symmetry_equiv_pos_as_xyz
  1  'x, y, z'
loop_
 _atom_site_type_symbol
 _atom_site_label
 _atom_site_symmetry_multiplicity
 _atom_site_fract_x
 _atom_site_fract_y
 _atom_site_fract_z
 _atom_site_occupancy
  Li  Li0  1  0.50000299  0.50000601  0.99999700  1
  Li  Li1  1  0.99999699  0.00000400  0.49999600  1
  Sr  Sr2  1  0.49999298  0.99030903  0.74991598  1
  Sr  Sr3  1  0.99998698  0.49018701  0.24914898  1
  Sr  Sr4  1  0.99999798  0.50984701  0.75085099  1
  U  U5  1  0.50002400  0.00967800  0.25009100  1
  W  W6  1  0.99999597  0.99997503  0.00000397  1
  W  W7  1  0.50000299  0.49999501  0.49998399  1
  O  O8  1  0.49999198  0.55841402  0.26046099  1
  O  O9  1  0.00001500  0.05846200  0.76055901  1
  O  O10  1  0.99996997  0.94151503  0.23944397  1
  O  O11  1  0.50001999  0.44159001  0.73954300  1
  O  O12  1  0.75908498  0.76243902  0.96674199  1
  O  O13  1  0.25900699  0.26247301  0.46666300  1
  O  O14  1  0.25901398  0.73750102  0.53335799  1
  O  O15  1  0.75909799  0.23756601  0.03326299  1
  O  O16  1  0.74100698  0.73753002  0.53333598  1
  O  O17  1  0.24091099  0.23756901  0.03325199  1
  O  O18  1  0.24089398  0.76243302  0.96675499  1
  O  O19  1  0.74098599  0.26250801  0.46663599  1
