# generated using pymatgen
data_Cu5AgS9
_symmetry_space_group_name_H-M   'P 1'
_cell_length_a   3.88842106
_cell_length_b   6.88524199
_cell_length_c   9.57357502
_cell_angle_alpha   84.09288025
_cell_angle_beta   78.44042969
_cell_angle_gamma   88.62346649
_symmetry_Int_Tables_number   1
_chemical_formula_structural   Cu5AgS9
_chemical_formula_sum   'Cu5 Ag1 S9'
_cell_volume   249.77695152
_cell_formula_units_Z   1
loop_
 _symmetry_equiv_pos_site_id
 _symmetry_equiv_pos_as_xyz
  1  'x, y, z'
loop_
 _atom_site_type_symbol
 _atom_site_label
 _atom_site_symmetry_multiplicity
 _atom_site_fract_x
 _atom_site_fract_y
 _atom_site_fract_z
 _atom_site_occupancy
  Ag  Ag0  1  0.02070691  0.98847700  0.02176201  1
  Cu  Cu1  1  0.15168896  0.40822400  0.65968999  1
  Cu  Cu2  1  0.52853494  0.45731500  0.99729199  1
  Cu  Cu3  1  0.33222898  0.11286900  0.35089400  1
  Cu  Cu4  1  0.85889392  0.60970700  0.32193101  1
  Cu  Cu5  1  0.66016290  0.87114000  0.66114701  1
  S  S6  1  0.84991496  0.21085000  0.52340100  1
  S  S7  1  0.18810393  0.74536200  0.56734300  1
  S  S8  1  0.36593895  0.44547800  0.29038500  1
  S  S9  1  0.47461697  0.14657900  0.10785501  1
  S  S10  1  0.05922497  0.30359900  0.89621998  1
  S  S11  1  0.59104090  0.90934300  0.88722500  1
  S  S12  1  0.63865193  0.54389200  0.73977500  1
  S  S13  1  0.92922389  0.93619600  0.27596602  1
  S  S14  1  0.95530992  0.64518400  0.09142402  1
