# generated using pymatgen
data_CeIn3GeRh3
_symmetry_space_group_name_H-M   'P 1'
_cell_length_a   4.10862589
_cell_length_b   4.10862589
_cell_length_c   9.13010311
_cell_angle_alpha   90.00000000
_cell_angle_beta   90.00000000
_cell_angle_gamma   90.00000000
_symmetry_Int_Tables_number   1
_chemical_formula_structural   CeIn3GeRh3
_chemical_formula_sum   'Ce1 In3 Ge1 Rh3'
_cell_volume   154.12350572
_cell_formula_units_Z   1
loop_
 _symmetry_equiv_pos_site_id
 _symmetry_equiv_pos_as_xyz
  1  'x, y, z'
loop_
 _atom_site_type_symbol
 _atom_site_label
 _atom_site_symmetry_multiplicity
 _atom_site_fract_x
 _atom_site_fract_y
 _atom_site_fract_z
 _atom_site_occupancy
  Ce  Ce0  1  -0.00000000  0.50000001  0.84394499  1
  In  In1  1  0.50000001  0.00000000  0.15605500  1
  In  In2  1  0.50000001  0.50000001  0.49999999  1
  In  In3  1  0.00000000  0.00000000  0.49999999  1
  Rh  Rh4  1  -0.00000000  0.50000001  0.30829300  1
  Rh  Rh5  1  0.50000001  0.00000000  0.69170699  1
  Ge  Ge6  1  0.50000001  0.50000001  -0.00000000  1
  Rh  Rh7  1  0.00000000  0.00000000  0.00000000  1
