# generated using pymatgen
data_SmNiGe
_symmetry_space_group_name_H-M   'P 1'
_cell_length_a   4.28573608
_cell_length_b   4.28573561
_cell_length_c   16.16006279
_cell_angle_alpha   90.00000000
_cell_angle_beta   90.00000000
_cell_angle_gamma   120.00000000
_symmetry_Int_Tables_number   1
_chemical_formula_structural   SmNiGe
_chemical_formula_sum   'Sm4 Ni4 Ge4'
_cell_volume   257.05406408
_cell_formula_units_Z   4
loop_
 _symmetry_equiv_pos_site_id
 _symmetry_equiv_pos_as_xyz
  1  'x, y, z'
loop_
 _atom_site_type_symbol
 _atom_site_label
 _atom_site_symmetry_multiplicity
 _atom_site_fract_x
 _atom_site_fract_y
 _atom_site_fract_z
 _atom_site_occupancy
  Sm  Sm0  1  0.00000000  0.00000000  0.75000001  1
  Sm  Sm1  1  0.00000000  0.00000000  0.25000000  1
  Sm  Sm2  1  0.00000000  0.00000000  0.00000000  1
  Sm  Sm3  1  0.00000000  0.00000000  0.50000001  1
  Ni  Ni4  1  0.66666664  0.33333334  0.85749701  1
  Ni  Ni5  1  0.33333330  0.66666668  0.14250300  1
  Ni  Ni6  1  0.33333330  0.66666668  0.35749700  1
  Ni  Ni7  1  0.66666664  0.33333334  0.64250301  1
  Ge  Ge8  1  0.66666664  0.33333334  0.38461100  1
  Ge  Ge9  1  0.33333330  0.66666668  0.61538901  1
  Ge  Ge10  1  0.33333330  0.66666668  0.88461101  1
  Ge  Ge11  1  0.66666664  0.33333334  0.11538900  1
