# generated using pymatgen
data_NdCuSb2
_symmetry_space_group_name_H-M   'P 1'
_cell_length_a   4.39400196
_cell_length_b   4.39400196
_cell_length_c   10.57328224
_cell_angle_alpha   90.00000000
_cell_angle_beta   90.00000000
_cell_angle_gamma   90.00000000
_symmetry_Int_Tables_number   1
_chemical_formula_structural   NdCuSb2
_chemical_formula_sum   'Nd2 Cu2 Sb4'
_cell_volume   204.14103773
_cell_formula_units_Z   2
loop_
 _symmetry_equiv_pos_site_id
 _symmetry_equiv_pos_as_xyz
  1  'x, y, z'
loop_
 _atom_site_type_symbol
 _atom_site_label
 _atom_site_symmetry_multiplicity
 _atom_site_fract_x
 _atom_site_fract_y
 _atom_site_fract_z
 _atom_site_occupancy
  Nd  Nd0  1  0.00000000  0.50000000  0.23586299  1
  Nd  Nd1  1  0.50000000  0.00000000  0.76413698  1
  Cu  Cu2  1  0.00000000  0.00000000  0.49999999  1
  Cu  Cu3  1  0.50000000  0.50000000  0.49999999  1
  Sb  Sb4  1  0.00000000  0.00000000  0.00000000  1
  Sb  Sb5  1  0.50000000  0.50000000  0.00000000  1
  Sb  Sb6  1  0.00000000  0.50000000  0.64955699  1
  Sb  Sb7  1  0.50000000  0.00000000  0.35044299  1
