# generated using pymatgen
data_LiTi2MoO6
_symmetry_space_group_name_H-M   'P 1'
_cell_length_a   5.24606133
_cell_length_b   5.24606133
_cell_length_c   5.57873201
_cell_angle_alpha   61.95376587
_cell_angle_beta   61.95376587
_cell_angle_gamma   60.00000763
_symmetry_Int_Tables_number   1
_chemical_formula_structural   LiTi2MoO6
_chemical_formula_sum   'Li1 Ti2 Mo1 O6'
_cell_volume   111.66065324
_cell_formula_units_Z   1
loop_
 _symmetry_equiv_pos_site_id
 _symmetry_equiv_pos_as_xyz
  1  'x, y, z'
loop_
 _atom_site_type_symbol
 _atom_site_label
 _atom_site_symmetry_multiplicity
 _atom_site_fract_x
 _atom_site_fract_y
 _atom_site_fract_z
 _atom_site_occupancy
  Ti  Ti0  1  0.49999997  0.50000000  0.50000003  1
  Li  Li1  1  0.24857699  0.24857700  0.25426902  1
  Ti  Ti2  1  0.75142296  0.75142300  0.74573105  1
  Mo  Mo3  1  0.00000000  0.00000000  0.00000000  1
  O  O4  1  0.61287797  0.38712200  0.00000004  1
  O  O5  1  -0.00000003  0.61287800  0.00000003  1
  O  O6  1  0.38712199  0.00000000  0.00000001  1
  O  O7  1  0.11948698  0.50000000  0.50000002  1
  O  O8  1  0.49999996  0.88051300  0.50000005  1
  O  O9  1  0.88051298  0.11948700  0.50000003  1
