# generated using pymatgen
data_Nd4Sn3Pt5
_symmetry_space_group_name_H-M   'P 1'
_cell_length_a   4.63434792
_cell_length_b   7.22946596
_cell_length_c   8.01071167
_cell_angle_alpha   90.00000000
_cell_angle_beta   90.00000000
_cell_angle_gamma   90.00000000
_symmetry_Int_Tables_number   1
_chemical_formula_structural   Nd4Sn3Pt5
_chemical_formula_sum   'Nd4 Sn3 Pt5'
_cell_volume   268.38976637
_cell_formula_units_Z   1
loop_
 _symmetry_equiv_pos_site_id
 _symmetry_equiv_pos_as_xyz
  1  'x, y, z'
loop_
 _atom_site_type_symbol
 _atom_site_label
 _atom_site_symmetry_multiplicity
 _atom_site_fract_x
 _atom_site_fract_y
 _atom_site_fract_z
 _atom_site_occupancy
  Nd  Nd0  1  0.25000000  0.49118300  0.20625701  1
  Nd  Nd1  1  0.75000001  0.50881700  0.79374303  1
  Nd  Nd2  1  0.25000000  0.99118301  0.29374301  1
  Nd  Nd3  1  0.75000001  0.00881700  0.70625703  1
  Sn  Sn4  1  0.25000000  0.30518500  0.58694502  1
  Sn  Sn5  1  0.75000001  0.19481500  0.08694500  1
  Pt  Pt6  1  0.25000000  0.80518500  0.91305504  1
  Sn  Sn7  1  0.75000001  0.69481500  0.41305502  1
  Pt  Pt8  1  0.75000001  0.29527700  0.41447702  1
  Pt  Pt9  1  0.25000000  0.20472300  0.91447704  1
  Pt  Pt10  1  0.75000001  0.79527700  0.08552300  1
  Pt  Pt11  1  0.25000000  0.70472300  0.58552302  1
