# generated using pymatgen
data_CaHoNiRuO6
_symmetry_space_group_name_H-M   'P 1'
_cell_length_a   5.31876802
_cell_length_b   5.71345377
_cell_length_c   7.65841389
_cell_angle_alpha   90.00000000
_cell_angle_beta   89.71215057
_cell_angle_gamma   90.00000000
_symmetry_Int_Tables_number   1
_chemical_formula_structural   CaHoNiRuO6
_chemical_formula_sum   'Ca2 Ho2 Ni2 Ru2 O12'
_cell_volume   232.72504314
_cell_formula_units_Z   2
loop_
 _symmetry_equiv_pos_site_id
 _symmetry_equiv_pos_as_xyz
  1  'x, y, z'
loop_
 _atom_site_type_symbol
 _atom_site_label
 _atom_site_symmetry_multiplicity
 _atom_site_fract_x
 _atom_site_fract_y
 _atom_site_fract_z
 _atom_site_occupancy
  Ca  Ca0  1  0.47571400  0.07799900  0.24814299  1
  Ca  Ca1  1  0.52428600  0.92200104  0.75185697  1
  Ho  Ho2  1  0.02428600  0.57799902  0.25185699  1
  Ho  Ho3  1  0.97571400  0.42200102  0.74814297  1
  Ni  Ni4  1  0.50000000  0.50000002  -0.00000000  1
  Ni  Ni5  1  0.00000000  0.00000000  0.49999998  1
  Ru  Ru6  1  0.50000000  0.50000002  0.49999998  1
  Ru  Ru7  1  0.00000000  0.00000000  0.00000000  1
  O  O8  1  0.62290300  0.45683502  0.25245099  1
  O  O9  1  0.37709700  0.54316502  0.74754897  1
  O  O10  1  0.87709700  0.95683504  0.24754898  1
  O  O11  1  0.12290300  0.04316500  0.75245098  1
  O  O12  1  0.31810900  0.80064803  0.43518398  1
  O  O13  1  0.68189100  0.19935201  0.56481598  1
  O  O14  1  0.18189100  0.30064801  0.06481600  1
  O  O15  1  0.81810900  0.69935203  0.93518396  1
  O  O16  1  0.18893700  0.31000801  0.44177998  1
  O  O17  1  0.81106300  0.68999203  0.55821998  1
  O  O18  1  0.31106300  0.81000803  0.05822000  1
  O  O19  1  0.68893700  0.18999201  0.94177996  1
