# generated using pymatgen
data_Te3W2Se
_symmetry_space_group_name_H-M   'P 1'
_cell_length_a   3.49676800
_cell_length_b   3.49676728
_cell_length_c   39.64073181
_cell_angle_alpha   90.00000000
_cell_angle_beta   90.00000000
_cell_angle_gamma   120.00000763
_symmetry_Int_Tables_number   1
_chemical_formula_structural   Te3W2Se
_chemical_formula_sum   'Te6 W4 Se2'
_cell_volume   419.76460018
_cell_formula_units_Z   2
loop_
 _symmetry_equiv_pos_site_id
 _symmetry_equiv_pos_as_xyz
  1  'x, y, z'
loop_
 _atom_site_type_symbol
 _atom_site_label
 _atom_site_symmetry_multiplicity
 _atom_site_fract_x
 _atom_site_fract_y
 _atom_site_fract_z
 _atom_site_occupancy
  Te  Te0  1  0.66666667  0.33333333  0.67192200  1
  Te  Te1  1  0.33333333  0.66666665  0.95235800  1
  Te  Te2  1  0.33333333  0.66666665  0.57660900  1
  Te  Te3  1  0.33333333  0.66666665  0.85979400  1
  Te  Te4  1  0.33333333  0.66666665  0.48405800  1
  Te  Te5  1  0.66666667  0.33333333  0.76447900  1
  W  W6  1  0.66666667  0.33333333  0.90609700  1
  W  W7  1  0.66666667  0.33333333  0.53031400  1
  W  W8  1  0.33333333  0.66666665  0.71819900  1
  W  W9  1  0.33333333  0.66666665  0.34246100  1
  Se  Se10  1  0.66666667  0.33333333  0.30152800  1
  Se  Se11  1  0.66666667  0.33333333  0.38343200  1
