# generated using pymatgen
data_Sm4(ZnGe3)3
_symmetry_space_group_name_H-M   'P 1'
_cell_length_a   4.31030989
_cell_length_b   8.23080063
_cell_length_c   9.61855888
_cell_angle_alpha   80.83075714
_cell_angle_beta   77.05226135
_cell_angle_gamma   74.82071686
_symmetry_Int_Tables_number   1
_chemical_formula_structural   Sm4(ZnGe3)3
_chemical_formula_sum   'Sm4 Zn3 Ge9'
_cell_volume   319.11750023
_cell_formula_units_Z   1
loop_
 _symmetry_equiv_pos_site_id
 _symmetry_equiv_pos_as_xyz
  1  'x, y, z'
loop_
 _atom_site_type_symbol
 _atom_site_label
 _atom_site_symmetry_multiplicity
 _atom_site_fract_x
 _atom_site_fract_y
 _atom_site_fract_z
 _atom_site_occupancy
  Sm  Sm0  1  0.56758607  0.77477298  0.09005501  1
  Sm  Sm1  1  0.43241403  0.22522699  0.90994498  1
  Sm  Sm2  1  0.26114202  0.14424300  0.33347299  1
  Sm  Sm3  1  0.73885808  0.85575698  0.66652700  1
  Zn  Zn4  1  0.76793605  0.36252499  0.10160299  1
  Zn  Zn5  1  0.06194101  0.20081700  0.67530099  1
  Ge  Ge6  1  0.23206405  0.63747498  0.89839700  1
  Zn  Zn7  1  0.41977705  0.51824599  0.64220000  1
  Ge  Ge8  1  0.93805908  0.79918298  0.32469900  1
  Ge  Ge9  1  0.58022305  0.48175399  0.35780000  1
  Ge  Ge10  1  0.91632104  0.04469800  0.12265998  1
  Ge  Ge11  1  0.84568806  0.48535799  0.82326598  1
  Ge  Ge12  1  0.08367906  0.95530198  0.87734001  1
  Ge  Ge13  1  0.61728504  0.22437299  0.54105698  1
  Ge  Ge14  1  0.15431204  0.51464199  0.17673401  1
  Ge  Ge15  1  0.38271506  0.77562698  0.45894301  1
