# generated using pymatgen
data_Mn2FeRuO6
_symmetry_space_group_name_H-M   'P 1'
_cell_length_a   5.30654240
_cell_length_b   5.45684481
_cell_length_c   7.68554592
_cell_angle_alpha   89.90213776
_cell_angle_beta   90.27289581
_cell_angle_gamma   89.98542023
_symmetry_Int_Tables_number   1
_chemical_formula_structural   Mn2FeRuO6
_chemical_formula_sum   'Mn4 Fe2 Ru2 O12'
_cell_volume   222.54732998
_cell_formula_units_Z   2
loop_
 _symmetry_equiv_pos_site_id
 _symmetry_equiv_pos_as_xyz
  1  'x, y, z'
loop_
 _atom_site_type_symbol
 _atom_site_label
 _atom_site_symmetry_multiplicity
 _atom_site_fract_x
 _atom_site_fract_y
 _atom_site_fract_z
 _atom_site_occupancy
  Mn  Mn0  1  0.98794297  0.94756504  0.25229404  1
  Mn  Mn1  1  0.01202900  0.05239700  0.74772502  1
  Mn  Mn2  1  0.48815898  0.55203202  0.75201804  1
  Mn  Mn3  1  0.51186399  0.44797702  0.24799202  1
  Fe  Fe4  1  0.00004198  0.49995602  0.49997002  1
  Fe  Fe5  1  0.49995001  0.00000800  0.99997104  1
  Ru  Ru6  1  0.49999896  0.99998804  0.49999004  1
  Ru  Ru7  1  0.99997399  0.49999402  0.00000003  1
  O  O8  1  0.18994697  0.80852703  0.56144403  1
  O  O9  1  0.68953598  0.69065903  0.06131803  1
  O  O10  1  0.81007400  0.19145701  0.43857103  1
  O  O11  1  0.31045499  0.30939801  0.93869004  1
  O  O12  1  0.18711297  0.80546003  0.93353504  1
  O  O13  1  0.68675198  0.69440303  0.43349104  1
  O  O14  1  0.81284200  0.19454301  0.06646902  1
  O  O15  1  0.31329999  0.30558601  0.56653503  1
  O  O16  1  0.62011597  0.94307504  0.74835005  1
  O  O17  1  0.12052398  0.55687202  0.24825802  1
  O  O18  1  0.37987400  0.05695800  0.25163902  1
  O  O19  1  0.87950799  0.44314302  0.75173804  1
