# generated using pymatgen
data_Ba2Y4BP4O3
_symmetry_space_group_name_H-M   'P 1'
_cell_length_a   3.67577410
_cell_length_b   8.62788296
_cell_length_c   10.16685390
_cell_angle_alpha   114.42547607
_cell_angle_beta   90.00000000
_cell_angle_gamma   90.00000000
_symmetry_Int_Tables_number   1
_chemical_formula_structural   Ba2Y4BP4O3
_chemical_formula_sum   'Ba2 Y4 B1 P4 O3'
_cell_volume   293.57531625
_cell_formula_units_Z   1
loop_
 _symmetry_equiv_pos_site_id
 _symmetry_equiv_pos_as_xyz
  1  'x, y, z'
loop_
 _atom_site_type_symbol
 _atom_site_label
 _atom_site_symmetry_multiplicity
 _atom_site_fract_x
 _atom_site_fract_y
 _atom_site_fract_z
 _atom_site_occupancy
  Y  Y0  1  0.99999997  0.28962600  0.48380298  1
  Ba  Ba1  1  0.49999999  0.94227399  0.15812197  1
  Ba  Ba2  1  0.49999999  0.36886500  0.21996998  1
  Y  Y3  1  -0.00000000  0.71037399  0.51619697  1
  Y  Y4  1  0.49999999  0.05772600  0.84187798  1
  Y  Y5  1  0.49999999  0.63113499  0.78002996  1
  P  P6  1  -0.00000000  0.10148000  0.06438300  1
  P  P7  1  0.99999997  0.89851999  0.93561695  1
  O  O8  1  0.99999997  0.16624700  0.22944399  1
  B  B9  1  0.99999997  0.83375299  0.77055596  1
  O  O10  1  0.49999999  0.50000000  0.49999997  1
  P  P11  1  0.99999997  0.35162200  0.81397897  1
  P  P12  1  0.49999999  0.00000000  0.49999999  1
  O  O13  1  0.99999997  0.64837799  0.18602098  1
