# generated using pymatgen
data_BaAg2S3
_symmetry_space_group_name_H-M   'P 1'
_cell_length_a   3.97502804
_cell_length_b   7.25251341
_cell_length_c   10.19044209
_cell_angle_alpha   90.00000000
_cell_angle_beta   90.00000000
_cell_angle_gamma   105.90509796
_symmetry_Int_Tables_number   1
_chemical_formula_structural   BaAg2S3
_chemical_formula_sum   'Ba2 Ag4 S6'
_cell_volume   282.53289739
_cell_formula_units_Z   2
loop_
 _symmetry_equiv_pos_site_id
 _symmetry_equiv_pos_as_xyz
  1  'x, y, z'
loop_
 _atom_site_type_symbol
 _atom_site_label
 _atom_site_symmetry_multiplicity
 _atom_site_fract_x
 _atom_site_fract_y
 _atom_site_fract_z
 _atom_site_occupancy
  Ba  Ba0  1  0.25701294  0.51402601  0.74999999  1
  Ba  Ba1  1  0.74298694  0.48597400  0.25000000  1
  Ag  Ag2  1  0.00000000  0.00000000  0.50000000  1
  Ag  Ag3  1  0.00000000  0.00000000  0.00000000  1
  Ag  Ag4  1  0.53420599  0.06841200  0.74999999  1
  Ag  Ag5  1  0.46579389  0.93158801  0.25000000  1
  S  S6  1  0.62355096  0.24710200  0.56068700  1
  S  S7  1  0.93902089  0.87804201  0.74999999  1
  S  S8  1  0.62355096  0.24710200  0.93931299  1
  S  S9  1  0.37644891  0.75289801  0.06068700  1
  S  S10  1  0.06097899  0.12195800  0.25000000  1
  S  S11  1  0.37644891  0.75289801  0.43931300  1
