# generated using pymatgen
data_Ho2Ga4Pd
_symmetry_space_group_name_H-M   'P 1'
_cell_length_a   4.32647991
_cell_length_b   8.45600605
_cell_length_c   8.45600605
_cell_angle_alpha   72.55860901
_cell_angle_beta   75.17765045
_cell_angle_gamma   75.17765045
_symmetry_Int_Tables_number   1
_chemical_formula_structural   Ho2Ga4Pd
_chemical_formula_sum   'Ho4 Ga8 Pd2'
_cell_volume   279.88229098
_cell_formula_units_Z   2
loop_
 _symmetry_equiv_pos_site_id
 _symmetry_equiv_pos_as_xyz
  1  'x, y, z'
loop_
 _atom_site_type_symbol
 _atom_site_label
 _atom_site_symmetry_multiplicity
 _atom_site_fract_x
 _atom_site_fract_y
 _atom_site_fract_z
 _atom_site_occupancy
  Ho  Ho0  1  0.00000000  0.00000000  0.00000000  1
  Ho  Ho1  1  0.31742805  0.68257198  0.68257198  1
  Ho  Ho2  1  0.68257203  0.31742799  0.31742800  1
  Ho  Ho3  1  0.00000003  0.49999998  0.49999998  1
  Ga  Ga4  1  0.50000002  0.28479899  0.71520099  1
  Ga  Ga5  1  0.50000005  0.71520098  0.28479899  1
  Ga  Ga6  1  0.33410402  0.29560299  0.03619000  1
  Ga  Ga7  1  0.66589605  0.70439698  0.96380997  1
  Ga  Ga8  1  0.33410301  0.03619100  0.29560300  1
  Ga  Ga9  1  0.66589707  0.96380897  0.70439698  1
  Ga  Ga10  1  0.13714504  0.58856598  0.13714399  1
  Ga  Ga11  1  0.86285504  0.41143399  0.86285599  1
  Pd  Pd12  1  0.13714401  0.13714400  0.58856698  1
  Pd  Pd13  1  0.86285607  0.86285597  0.41143299  1
