# generated using pymatgen
data_Li2CuF5
_symmetry_space_group_name_H-M   'P 1'
_cell_length_a   3.79600906
_cell_length_b   5.27795124
_cell_length_c   10.57562828
_cell_angle_alpha   89.99993134
_cell_angle_beta   90.00000000
_cell_angle_gamma   111.07779694
_symmetry_Int_Tables_number   1
_chemical_formula_structural   Li2CuF5
_chemical_formula_sum   'Li4 Cu2 F10'
_cell_volume   197.70775707
_cell_formula_units_Z   2
loop_
 _symmetry_equiv_pos_site_id
 _symmetry_equiv_pos_as_xyz
  1  'x, y, z'
loop_
 _atom_site_type_symbol
 _atom_site_label
 _atom_site_symmetry_multiplicity
 _atom_site_fract_x
 _atom_site_fract_y
 _atom_site_fract_z
 _atom_site_occupancy
  Li  Li0  1  0.16903002  0.33796902  0.24999799  1
  Li  Li1  1  0.83097003  0.66203204  0.74999898  1
  Li  Li2  1  0.15593102  0.31196902  0.94192397  1
  Li  Li3  1  0.84406403  0.68801804  0.44192698  1
  Cu  Cu4  1  0.15593102  0.31197202  0.55807798  1
  Cu  Cu5  1  0.84407203  0.68803504  0.05807899  1
  F  F6  1  0.30851403  0.61694104  0.44304998  1
  F  F7  1  0.30852103  0.61695704  0.05695799  1
  F  F8  1  0.69148001  0.38304302  0.55695698  1
  F  F9  1  0.69148801  0.38306102  0.94304997  1
  F  F10  1  0.24930603  0.49868003  0.74999598  1
  F  F11  1  0.75069302  0.50132103  0.24999599  1
  F  F12  1  0.02809900  0.05617200  0.12026500  1
  F  F13  1  0.02809100  0.05614700  0.37972799  1
  F  F14  1  0.97190104  0.94382806  0.62026498  1
  F  F15  1  0.97191004  0.94385606  0.87972897  1
