# generated using pymatgen
data_LaMg3N6
_symmetry_space_group_name_H-M   'P 1'
_cell_length_a   5.87865639
_cell_length_b   5.87865639
_cell_length_c   6.38144732
_cell_angle_alpha   62.57382584
_cell_angle_beta   62.57382584
_cell_angle_gamma   59.99999237
_symmetry_Int_Tables_number   1
_chemical_formula_structural   LaMg3N6
_chemical_formula_sum   'La1 Mg3 N6'
_cell_volume   161.73461195
_cell_formula_units_Z   1
loop_
 _symmetry_equiv_pos_site_id
 _symmetry_equiv_pos_as_xyz
  1  'x, y, z'
loop_
 _atom_site_type_symbol
 _atom_site_label
 _atom_site_symmetry_multiplicity
 _atom_site_fract_x
 _atom_site_fract_y
 _atom_site_fract_z
 _atom_site_occupancy
  Mg  Mg0  1  0.84767701  0.84767704  0.45696895  1
  Mg  Mg1  1  0.65232301  0.65232303  0.04303097  1
  La  La2  1  0.34767700  0.34767701  0.95696897  1
  Mg  Mg3  1  0.15232300  0.15232301  0.54303098  1
  N  N4  1  0.55852301  0.25000001  0.24999998  1
  N  N5  1  0.24999999  0.94147704  0.24999997  1
  N  N6  1  0.94147702  0.55852302  0.24999996  1
  N  N7  1  0.05852299  0.44147702  0.74999998  1
  N  N8  1  0.75000002  0.05852300  0.74999997  1
  N  N9  1  0.44147700  0.75000003  0.74999996  1
