# generated using pymatgen
data_YLu3Cd4
_symmetry_space_group_name_H-M   'P 1'
_cell_length_a   5.17210102
_cell_length_b   6.91087389
_cell_length_c   6.91087341
_cell_angle_alpha   120.00000000
_cell_angle_beta   90.00000000
_cell_angle_gamma   90.00000000
_symmetry_Int_Tables_number   1
_chemical_formula_structural   YLu3Cd4
_chemical_formula_sum   'Y1 Lu3 Cd4'
_cell_volume   213.92598317
_cell_formula_units_Z   1
loop_
 _symmetry_equiv_pos_site_id
 _symmetry_equiv_pos_as_xyz
  1  'x, y, z'
loop_
 _atom_site_type_symbol
 _atom_site_label
 _atom_site_symmetry_multiplicity
 _atom_site_fract_x
 _atom_site_fract_y
 _atom_site_fract_z
 _atom_site_occupancy
  Lu  Lu0  1  0.75000000  0.66666666  0.33333332  1
  Lu  Lu1  1  0.25000000  0.33333333  0.66666667  1
  Lu  Lu2  1  0.75000000  0.16220700  0.32441400  1
  Y  Y3  1  0.75000000  0.16220700  0.83779202  1
  Cd  Cd4  1  0.75000000  0.67558500  0.83779200  1
  Cd  Cd5  1  0.25000000  0.83779300  0.67558599  1
  Cd  Cd6  1  0.25000000  0.83779300  0.16220797  1
  Cd  Cd7  1  0.25000000  0.32441500  0.16220799  1
