# generated using pymatgen
data_Li2CuF6
_symmetry_space_group_name_H-M   'P 1'
_cell_length_a   5.13638210
_cell_length_b   5.49879503
_cell_length_c   7.66964674
_cell_angle_alpha   84.58341217
_cell_angle_beta   90.00260925
_cell_angle_gamma   90.00022125
_symmetry_Int_Tables_number   1
_chemical_formula_structural   Li2CuF6
_chemical_formula_sum   'Li4 Cu2 F12'
_cell_volume   215.65354849
_cell_formula_units_Z   2
loop_
 _symmetry_equiv_pos_site_id
 _symmetry_equiv_pos_as_xyz
  1  'x, y, z'
loop_
 _atom_site_type_symbol
 _atom_site_label
 _atom_site_symmetry_multiplicity
 _atom_site_fract_x
 _atom_site_fract_y
 _atom_site_fract_z
 _atom_site_occupancy
  Li  Li0  1  0.48608705  0.91775702  0.21450394  1
  Li  Li1  1  0.51402005  0.91771102  0.71443793  1
  Li  Li2  1  0.98453305  0.98911402  0.99328790  1
  Li  Li3  1  0.51756502  0.50748001  0.99800094  1
  Cu  Cu4  1  0.01542507  0.98907902  0.49326695  1
  Cu  Cu5  1  0.48240702  0.50745801  0.49798095  1
  F  F6  1  0.31115705  0.80890702  0.44250694  1
  F  F7  1  0.68893804  0.80879002  0.94259592  1
  F  F8  1  0.14827506  0.99508402  0.74732294  1
  F  F9  1  0.85179405  0.99510002  0.24733192  1
  F  F10  1  0.17787202  0.30710601  0.43438997  1
  F  F11  1  0.82199500  0.30711801  0.93441393  1
  F  F12  1  0.20963204  0.70769601  0.07328096  1
  F  F13  1  0.79030103  0.70773801  0.57332493  1
  F  F14  1  0.31695601  0.18445600  0.06438798  1
  F  F15  1  0.68302300  0.18449000  0.56438695  1
  F  F16  1  0.38193003  0.50237201  0.75282795  1
  F  F17  1  0.61808602  0.50240901  0.25288095  1
