# generated using pymatgen
data_ZrGe
_symmetry_space_group_name_H-M   'P 1'
_cell_length_a   6.03313303
_cell_length_b   8.22227192
_cell_length_c   8.22227192
_cell_angle_alpha   120.00000000
_cell_angle_beta   90.00000000
_cell_angle_gamma   90.00000000
_symmetry_Int_Tables_number   1
_chemical_formula_structural   ZrGe
_chemical_formula_sum   'Zr9 Ge9'
_cell_volume   353.22969294
_cell_formula_units_Z   9
loop_
 _symmetry_equiv_pos_site_id
 _symmetry_equiv_pos_as_xyz
  1  'x, y, z'
loop_
 _atom_site_type_symbol
 _atom_site_label
 _atom_site_symmetry_multiplicity
 _atom_site_fract_x
 _atom_site_fract_y
 _atom_site_fract_z
 _atom_site_occupancy
  Zr  Zr0  1  0.78864300  0.00000000  0.64621398  1
  Zr  Zr1  1  0.78864300  0.35378600  0.35378598  1
  Zr  Zr2  1  0.78864300  0.64621400  -0.00000002  1
  Zr  Zr3  1  0.08260900  0.68860000  0.68859996  1
  Zr  Zr4  1  0.08260900  0.31140000  -0.00000001  1
  Zr  Zr5  1  0.08260900  0.00000000  0.31139999  1
  Zr  Zr6  1  0.50211700  0.66666666  0.33333330  1
  Zr  Zr7  1  0.35185200  0.00000000  -0.00000000  1
  Zr  Zr8  1  0.50211700  0.33333333  0.66666663  1
  Ge  Ge9  1  0.28875200  0.00000000  0.64199698  1
  Ge  Ge10  1  0.28875200  0.35800300  0.35800298  1
  Ge  Ge11  1  0.28875200  0.64199700  0.99999995  1
  Ge  Ge12  1  0.58029200  0.68822800  0.68822796  1
  Ge  Ge13  1  0.58029200  0.31177200  -0.00000001  1
  Ge  Ge14  1  0.58029200  0.00000000  0.31177199  1
  Ge  Ge15  1  0.01323200  0.66666666  0.33333330  1
  Ge  Ge16  1  0.83819900  0.00000000  -0.00000000  1
  Ge  Ge17  1  0.01323200  0.33333333  0.66666663  1
