# generated using pymatgen
data_CoSi
_symmetry_space_group_name_H-M   'P 1'
_cell_length_a   4.53406620
_cell_length_b   4.53578901
_cell_length_c   4.53970385
_cell_angle_alpha   90.00000000
_cell_angle_beta   89.28156281
_cell_angle_gamma   90.00000000
_symmetry_Int_Tables_number   1
_chemical_formula_structural   CoSi
_chemical_formula_sum   'Co4 Si4'
_cell_volume   93.35424710
_cell_formula_units_Z   4
loop_
 _symmetry_equiv_pos_site_id
 _symmetry_equiv_pos_as_xyz
  1  'x, y, z'
loop_
 _atom_site_type_symbol
 _atom_site_label
 _atom_site_symmetry_multiplicity
 _atom_site_fract_x
 _atom_site_fract_y
 _atom_site_fract_z
 _atom_site_occupancy
  Co  Co0  1  0.64358797  0.36178900  0.39604996  1
  Co  Co1  1  0.35641198  0.86178900  0.60394998  1
  Co  Co2  1  0.86439896  0.64066300  0.88232895  1
  Co  Co3  1  0.13560099  0.14066300  0.11767099  1
  Si  Si4  1  0.15633399  0.33998500  0.58762199  1
  Si  Si5  1  0.84366596  0.83998500  0.41237795  1
  Si  Si6  1  0.33862599  0.65756400  0.09419898  1
  Si  Si7  1  0.66137397  0.15756400  0.90580097  1
