# generated using pymatgen
data_Nd(AlCu)2
_symmetry_space_group_name_H-M   'P 1'
_cell_length_a   4.31443024
_cell_length_b   4.31443024
_cell_length_c   6.13080549
_cell_angle_alpha   110.60141754
_cell_angle_beta   110.60141754
_cell_angle_gamma   90.00000000
_symmetry_Int_Tables_number   1
_chemical_formula_structural   Nd(AlCu)2
_chemical_formula_sum   'Nd1 Al2 Cu2'
_cell_volume   98.98826883
_cell_formula_units_Z   1
loop_
 _symmetry_equiv_pos_site_id
 _symmetry_equiv_pos_as_xyz
  1  'x, y, z'
loop_
 _atom_site_type_symbol
 _atom_site_label
 _atom_site_symmetry_multiplicity
 _atom_site_fract_x
 _atom_site_fract_y
 _atom_site_fract_z
 _atom_site_occupancy
  Nd  Nd0  1  0.00000000  0.00000000  0.00000000  1
  Al  Al1  1  0.60882793  0.60882795  0.21765595  1
  Al  Al2  1  0.39117196  0.39117197  0.78234398  1
  Cu  Cu3  1  0.74999994  0.24999998  0.49999997  1
  Cu  Cu4  1  0.24999995  0.74999994  0.49999997  1
