# generated using pymatgen
data_CoSeS
_symmetry_space_group_name_H-M   'P 1'
_cell_length_a   5.58405209
_cell_length_b   5.58405209
_cell_length_c   5.58405209
_cell_angle_alpha   90.00000000
_cell_angle_beta   90.00000000
_cell_angle_gamma   90.00000000
_symmetry_Int_Tables_number   1
_chemical_formula_structural   CoSeS
_chemical_formula_sum   'Co4 Se4 S4'
_cell_volume   174.11988903
_cell_formula_units_Z   4
loop_
 _symmetry_equiv_pos_site_id
 _symmetry_equiv_pos_as_xyz
  1  'x, y, z'
loop_
 _atom_site_type_symbol
 _atom_site_label
 _atom_site_symmetry_multiplicity
 _atom_site_fract_x
 _atom_site_fract_y
 _atom_site_fract_z
 _atom_site_occupancy
  Co  Co0  1  0.50798299  0.49201699  0.99201698  1
  Co  Co1  1  0.49201699  0.99201698  0.50798299  1
  Co  Co2  1  0.00798300  0.00798300  0.00798300  1
  Co  Co3  1  0.99201698  0.50798299  0.49201699  1
  Se  Se4  1  0.62141099  0.87858899  0.12141100  1
  Se  Se5  1  0.12141100  0.62141099  0.87858899  1
  Se  Se6  1  0.37858899  0.37858899  0.37858899  1
  Se  Se7  1  0.87858899  0.12141100  0.62141099  1
  S  S8  1  0.38094299  0.11905700  0.88094299  1
  S  S9  1  0.88094299  0.38094299  0.11905700  1
  S  S10  1  0.11905700  0.88094299  0.38094299  1
  S  S11  1  0.61905699  0.61905699  0.61905699  1
