# generated using pymatgen
data_Y(Al2Cu)4
_symmetry_space_group_name_H-M   'P 1'
_cell_length_a   5.14721918
_cell_length_b   6.70517492
_cell_length_c   6.70517492
_cell_angle_alpha   81.52828217
_cell_angle_beta   67.42922974
_cell_angle_gamma   67.42922211
_symmetry_Int_Tables_number   1
_chemical_formula_structural   Y(Al2Cu)4
_chemical_formula_sum   'Y1 Al8 Cu4'
_cell_volume   197.32330679
_cell_formula_units_Z   1
loop_
 _symmetry_equiv_pos_site_id
 _symmetry_equiv_pos_as_xyz
  1  'x, y, z'
loop_
 _atom_site_type_symbol
 _atom_site_label
 _atom_site_symmetry_multiplicity
 _atom_site_fract_x
 _atom_site_fract_y
 _atom_site_fract_z
 _atom_site_occupancy
  Y  Y0  1  0.00000000  0.00000000  0.00000000  1
  Al  Al1  1  0.50000001  0.50000001  -0.00000003  1
  Al  Al2  1  0.00000003  0.50000001  -0.00000004  1
  Al  Al3  1  0.49999998  0.00000000  0.49999999  1
  Al  Al4  1  0.00000000  0.00000000  0.49999998  1
  Al  Al5  1  0.66266199  0.33733801  0.33733797  1
  Al  Al6  1  0.33733802  0.66266201  0.66266193  1
  Al  Al7  1  0.00000004  0.66266201  0.33733794  1
  Al  Al8  1  0.00000002  0.33733801  0.66266195  1
  Cu  Cu9  1  0.72467202  0.77532801  0.77532793  1
  Cu  Cu10  1  0.27532800  0.22467200  0.22467198  1
  Cu  Cu11  1  0.49999999  0.22467200  0.77532796  1
  Cu  Cu12  1  0.50000002  0.77532801  0.22467194  1
