# generated using pymatgen
data_VAs
_symmetry_space_group_name_H-M   'P 1'
_cell_length_a   3.85065818
_cell_length_b   3.85065818
_cell_length_c   6.31616020
_cell_angle_alpha   90.00000000
_cell_angle_beta   90.00000000
_cell_angle_gamma   90.61790466
_symmetry_Int_Tables_number   1
_chemical_formula_structural   VAs
_chemical_formula_sum   'V2 As2'
_cell_volume   93.64785135
_cell_formula_units_Z   2
loop_
 _symmetry_equiv_pos_site_id
 _symmetry_equiv_pos_as_xyz
  1  'x, y, z'
loop_
 _atom_site_type_symbol
 _atom_site_label
 _atom_site_symmetry_multiplicity
 _atom_site_fract_x
 _atom_site_fract_y
 _atom_site_fract_z
 _atom_site_occupancy
  V  V0  1  0.02982102  0.47017901  0.25352499  1
  V  V1  1  0.52982105  0.97017903  0.74647498  1
  As  As2  1  0.05217902  0.44782101  0.64744398  1
  As  As3  1  0.55217905  0.94782103  0.35255599  1
