# generated using pymatgen
data_TlH6PbN7Cl2
_symmetry_space_group_name_H-M   'P 1'
_cell_length_a   7.07964516
_cell_length_b   7.07964516
_cell_length_c   7.07964516
_cell_angle_alpha   60.00000000
_cell_angle_beta   60.00000000
_cell_angle_gamma   60.00000000
_symmetry_Int_Tables_number   1
_chemical_formula_structural   TlH6PbN7Cl2
_chemical_formula_sum   'Tl1 H6 Pb1 N7 Cl2'
_cell_volume   250.91086883
_cell_formula_units_Z   1
loop_
 _symmetry_equiv_pos_site_id
 _symmetry_equiv_pos_as_xyz
  1  'x, y, z'
loop_
 _atom_site_type_symbol
 _atom_site_label
 _atom_site_symmetry_multiplicity
 _atom_site_fract_x
 _atom_site_fract_y
 _atom_site_fract_z
 _atom_site_occupancy
  H  H0  1  0.30954999  0.30955099  0.30955099  1
  Tl  Tl1  1  0.92865298  0.69044899  0.69044899  1
  Pb  Pb2  1  0.69044999  0.69044899  0.92865198  1
  H  H3  1  0.69044999  0.92865198  0.69044899  1
  H  H4  1  0.30954999  0.30955099  0.07134800  1
  H  H5  1  0.30954999  0.07134800  0.30955099  1
  N  N6  1  0.07134700  0.30955099  0.30955099  1
  H  H7  1  0.69044999  0.69044899  0.69044899  1
  N  N8  1  0.00000000  0.00000000  0.00000000  1
  H  H9  1  0.25000000  0.25000000  0.25000000  1
  N  N10  1  0.74999999  0.74999999  0.74999999  1
  N  N11  1  0.76490899  0.76490899  0.23509100  1
  N  N12  1  0.76490899  0.23509100  0.23509100  1
  Cl  Cl13  1  0.23509100  0.76490899  0.76490899  1
  Cl  Cl14  1  0.76490899  0.23509100  0.76490899  1
  N  N15  1  0.23509100  0.76490899  0.23509100  1
  N  N16  1  0.23509100  0.23509100  0.76490899  1
