# generated using pymatgen
data_Ce(CoGe)2
_symmetry_space_group_name_H-M   'P 1'
_cell_length_a   4.02397203
_cell_length_b   4.02397203
_cell_length_c   10.82745075
_cell_angle_alpha   90.00000000
_cell_angle_beta   90.00000000
_cell_angle_gamma   90.00000000
_symmetry_Int_Tables_number   1
_chemical_formula_structural   Ce(CoGe)2
_chemical_formula_sum   'Ce2 Co4 Ge4'
_cell_volume   175.32188230
_cell_formula_units_Z   2
loop_
 _symmetry_equiv_pos_site_id
 _symmetry_equiv_pos_as_xyz
  1  'x, y, z'
loop_
 _atom_site_type_symbol
 _atom_site_label
 _atom_site_symmetry_multiplicity
 _atom_site_fract_x
 _atom_site_fract_y
 _atom_site_fract_z
 _atom_site_occupancy
  Ce  Ce0  1  0.50000000  0.00000000  0.75258002  1
  Ce  Ce1  1  0.00000000  0.50000000  0.24742001  1
  Co  Co2  1  0.00000000  0.00000000  0.50000001  1
  Co  Co3  1  0.00000000  0.00000000  0.00000000  1
  Co  Co4  1  0.50000000  0.50000000  0.50000001  1
  Co  Co5  1  0.50000000  0.50000000  0.00000000  1
  Ge  Ge6  1  0.00000000  0.50000000  0.87792702  1
  Ge  Ge7  1  0.50000000  0.00000000  0.37344501  1
  Ge  Ge8  1  0.50000000  0.00000000  0.12207300  1
  Ge  Ge9  1  0.00000000  0.50000000  0.62655501  1
