# generated using pymatgen
data_SrLaCuWO6
_symmetry_space_group_name_H-M   'P 1'
_cell_length_a   5.69471407
_cell_length_b   5.71738100
_cell_length_c   5.72082376
_cell_angle_alpha   90.43124390
_cell_angle_beta   119.35121155
_cell_angle_gamma   119.74964142
_symmetry_Int_Tables_number   1
_chemical_formula_structural   SrLaCuWO6
_chemical_formula_sum   'Sr1 La1 Cu1 W1 O6'
_cell_volume   132.99237742
_cell_formula_units_Z   1
loop_
 _symmetry_equiv_pos_site_id
 _symmetry_equiv_pos_as_xyz
  1  'x, y, z'
loop_
 _atom_site_type_symbol
 _atom_site_label
 _atom_site_symmetry_multiplicity
 _atom_site_fract_x
 _atom_site_fract_y
 _atom_site_fract_z
 _atom_site_occupancy
  Sr  Sr0  1  0.49946292  0.75043097  0.24967396  1
  La  La1  1  0.48271496  0.24988799  0.73524995  1
  Cu  Cu2  1  0.99289896  0.00115900  0.99862391  1
  W  W3  1  0.99989292  0.50047198  0.50142792  1
  O  O4  1  0.05066593  0.80555596  0.32233698  1
  O  O5  1  0.48588692  0.67947297  0.72128095  1
  O  O6  1  0.91006494  0.26104099  0.16757194  1
  O  O7  1  0.04755094  0.74097097  0.78845197  1
  O  O8  1  0.51790795  0.28685599  0.30554596  1
  O  O9  1  0.01295298  0.22415299  0.70983698  1
