# generated using pymatgen
data_U2Ni2Sb7
_symmetry_space_group_name_H-M   'P 1'
_cell_length_a   4.64003706
_cell_length_b   4.64003706
_cell_length_c   12.02607155
_cell_angle_alpha   90.00000000
_cell_angle_beta   90.00000000
_cell_angle_gamma   90.00000000
_symmetry_Int_Tables_number   1
_chemical_formula_structural   U2Ni2Sb7
_chemical_formula_sum   'U2 Ni2 Sb7'
_cell_volume   258.92064597
_cell_formula_units_Z   1
loop_
 _symmetry_equiv_pos_site_id
 _symmetry_equiv_pos_as_xyz
  1  'x, y, z'
loop_
 _atom_site_type_symbol
 _atom_site_label
 _atom_site_symmetry_multiplicity
 _atom_site_fract_x
 _atom_site_fract_y
 _atom_site_fract_z
 _atom_site_occupancy
  U  U0  1  0.00000000  0.00000000  0.30596001  1
  U  U1  1  0.00000000  0.00000000  0.69404003  1
  Sb  Sb2  1  0.00000000  0.49999999  0.11928100  1
  Sb  Sb3  1  0.00000000  0.49999999  0.88071903  1
  Ni  Ni4  1  0.49999999  0.00000000  0.11928100  1
  Sb  Sb5  1  0.49999999  0.00000000  0.88071903  1
  Ni  Ni6  1  0.49999999  0.49999999  0.30476001  1
  Sb  Sb7  1  0.49999999  0.49999999  0.69524003  1
  Sb  Sb8  1  0.00000000  0.49999999  0.50000002  1
  Sb  Sb9  1  0.49999999  0.00000000  0.50000002  1
  Sb  Sb10  1  0.00000000  0.00000000  0.00000000  1
