# generated using pymatgen
data_Zr2CoRuO4
_symmetry_space_group_name_H-M   'P 1'
_cell_length_a   3.08992410
_cell_length_b   5.47250509
_cell_length_c   6.90569878
_cell_angle_alpha   112.05509949
_cell_angle_beta   102.93224335
_cell_angle_gamma   89.99564362
_symmetry_Int_Tables_number   1
_chemical_formula_structural   Zr2CoRuO4
_chemical_formula_sum   'Zr2 Co1 Ru1 O4'
_cell_volume   105.02594335
_cell_formula_units_Z   1
loop_
 _symmetry_equiv_pos_site_id
 _symmetry_equiv_pos_as_xyz
  1  'x, y, z'
loop_
 _atom_site_type_symbol
 _atom_site_label
 _atom_site_symmetry_multiplicity
 _atom_site_fract_x
 _atom_site_fract_y
 _atom_site_fract_z
 _atom_site_occupancy
  Zr  Zr0  1  0.25000801  0.25000800  0.50000100  1
  Zr  Zr1  1  0.75000502  0.74999199  0.49999902  1
  Co  Co2  1  0.49999501  0.49999999  0.00000002  1
  Ru  Ru3  1  0.99999697  0.00000000  -0.00000000  1
  O  O4  1  0.41323899  0.07974600  0.82647899  1
  O  O5  1  0.91321501  0.57974099  0.82645401  1
  O  O6  1  0.58674804  0.92025399  0.17352103  1
  O  O7  1  0.08677202  0.42025899  0.17354601  1
