# generated using pymatgen
data_Sr2Ca2Cu2PbO12
_symmetry_space_group_name_H-M   'P 1'
_cell_length_a   3.90689898
_cell_length_b   3.90689898
_cell_length_c   15.95595074
_cell_angle_alpha   90.00000000
_cell_angle_beta   90.00000000
_cell_angle_gamma   90.00000000
_symmetry_Int_Tables_number   1
_chemical_formula_structural   Sr2Ca2Cu2PbO12
_chemical_formula_sum   'Sr2 Ca2 Cu2 Pb1 O12'
_cell_volume   243.54939189
_cell_formula_units_Z   1
loop_
 _symmetry_equiv_pos_site_id
 _symmetry_equiv_pos_as_xyz
  1  'x, y, z'
loop_
 _atom_site_type_symbol
 _atom_site_label
 _atom_site_symmetry_multiplicity
 _atom_site_fract_x
 _atom_site_fract_y
 _atom_site_fract_z
 _atom_site_occupancy
  Sr  Sr0  1  0.50000000  0.50000000  0.23264600  1
  Sr  Sr1  1  0.50000000  0.50000000  0.76735401  1
  Ca  Ca2  1  0.50000000  0.50000000  0.00000000  1
  Ca  Ca3  1  0.50000000  0.50000000  0.50000001  1
  Cu  Cu4  1  0.00000000  0.00000000  0.37655601  1
  Cu  Cu5  1  0.00000000  0.00000000  0.62344401  1
  Pb  Pb6  1  0.00000000  0.00000000  0.10218700  1
  O  O7  1  0.00000000  0.00000000  0.89781301  1
  O  O8  1  0.00000000  0.00000000  0.50000001  1
  O  O9  1  0.00000000  0.50000000  0.39109201  1
  O  O10  1  0.50000000  0.00000000  0.39109201  1
  O  O11  1  0.00000000  0.50000000  0.60890801  1
  O  O12  1  0.50000000  0.00000000  0.60890801  1
  O  O13  1  0.00000000  0.00000000  0.25896800  1
  O  O14  1  0.00000000  0.00000000  0.74103201  1
  O  O15  1  0.00000000  0.50000000  0.09123800  1
  O  O16  1  0.50000000  0.00000000  0.09123800  1
  O  O17  1  0.00000000  0.50000000  0.90876201  1
  O  O18  1  0.50000000  0.00000000  0.90876201  1
