# generated using pymatgen
data_NdSnPt
_symmetry_space_group_name_H-M   'P 1'
_cell_length_a   4.44243383
_cell_length_b   7.27158785
_cell_length_c   8.21231747
_cell_angle_alpha   90.00000000
_cell_angle_beta   90.00000000
_cell_angle_gamma   90.00000000
_symmetry_Int_Tables_number   1
_chemical_formula_structural   NdSnPt
_chemical_formula_sum   'Nd4 Sn4 Pt4'
_cell_volume   265.28699054
_cell_formula_units_Z   4
loop_
 _symmetry_equiv_pos_site_id
 _symmetry_equiv_pos_as_xyz
  1  'x, y, z'
loop_
 _atom_site_type_symbol
 _atom_site_label
 _atom_site_symmetry_multiplicity
 _atom_site_fract_x
 _atom_site_fract_y
 _atom_site_fract_z
 _atom_site_occupancy
  Nd  Nd0  1  0.75000003  0.96770502  0.69560196  1
  Nd  Nd1  1  0.75000003  0.46770501  0.80439795  1
  Nd  Nd2  1  0.25000001  0.03229500  0.30439798  1
  Nd  Nd3  1  0.25000001  0.53229501  0.19560199  1
  Sn  Sn4  1  0.75000003  0.34616801  0.42943498  1
  Sn  Sn5  1  0.75000003  0.84616802  0.07056500  1
  Sn  Sn6  1  0.25000001  0.65383201  0.57056497  1
  Sn  Sn7  1  0.25000001  0.15383200  0.92943495  1
  Pt  Pt8  1  0.75000003  0.72859902  0.39324198  1
  Pt  Pt9  1  0.75000003  0.22859900  0.10675799  1
  Pt  Pt10  1  0.25000001  0.27140101  0.60675797  1
  Pt  Pt11  1  0.25000001  0.77140102  0.89324195  1
