# generated using pymatgen
data_Hf4Al3FeNi4
_symmetry_space_group_name_H-M   'P 1'
_cell_length_a   4.99115753
_cell_length_b   4.99115753
_cell_length_c   8.39839935
_cell_angle_alpha   90.00000000
_cell_angle_beta   90.00000000
_cell_angle_gamma   117.91188812
_symmetry_Int_Tables_number   1
_chemical_formula_structural   Hf4Al3FeNi4
_chemical_formula_sum   'Hf4 Al3 Fe1 Ni4'
_cell_volume   184.87937377
_cell_formula_units_Z   1
loop_
 _symmetry_equiv_pos_site_id
 _symmetry_equiv_pos_as_xyz
  1  'x, y, z'
loop_
 _atom_site_type_symbol
 _atom_site_label
 _atom_site_symmetry_multiplicity
 _atom_site_fract_x
 _atom_site_fract_y
 _atom_site_fract_z
 _atom_site_occupancy
  Hf  Hf0  1  0.32627200  0.67372798  0.68148997  1
  Hf  Hf1  1  0.66291799  0.33708199  0.80201697  1
  Hf  Hf2  1  0.66291799  0.33708199  0.19798299  1
  Hf  Hf3  1  0.32627200  0.67372798  0.31850999  1
  Al  Al4  1  0.85211498  0.14788500  0.49999998  1
  Al  Al5  1  0.16373100  0.34075099  -0.00000000  1
  Al  Al6  1  0.65924899  0.83626898  0.99999996  1
  Fe  Fe7  1  0.16947901  0.83052098  -0.00000000  1
  Ni  Ni8  1  0.99517497  0.00482500  0.74798197  1
  Ni  Ni9  1  0.99517497  0.00482500  0.25201799  1
  Ni  Ni10  1  0.83732798  0.65178298  0.49999998  1
  Ni  Ni11  1  0.34821699  0.16267200  0.49999998  1
