# generated using pymatgen
data_Tb11Ag5
_symmetry_space_group_name_H-M   'P 1'
_cell_length_a   6.22921610
_cell_length_b   9.18106747
_cell_length_c   9.18106747
_cell_angle_alpha   83.39144897
_cell_angle_beta   70.16927338
_cell_angle_gamma   70.16927338
_symmetry_Int_Tables_number   1
_chemical_formula_structural   Tb11Ag5
_chemical_formula_sum   'Tb11 Ag5'
_cell_volume   464.64481648
_cell_formula_units_Z   1
loop_
 _symmetry_equiv_pos_site_id
 _symmetry_equiv_pos_as_xyz
  1  'x, y, z'
loop_
 _atom_site_type_symbol
 _atom_site_label
 _atom_site_symmetry_multiplicity
 _atom_site_fract_x
 _atom_site_fract_y
 _atom_site_fract_z
 _atom_site_occupancy
  Tb  Tb0  1  0.58282399  0.13428900  0.70006201  1
  Tb  Tb1  1  0.41717600  0.86571099  0.29993805  1
  Tb  Tb2  1  0.08282501  0.70006199  0.13428903  1
  Tb  Tb3  1  0.91717498  0.29993800  0.86571103  1
  Tb  Tb4  1  0.28288600  0.29993800  0.13428902  1
  Tb  Tb5  1  0.71711399  0.70006199  0.86571104  1
  Tb  Tb6  1  0.21711301  0.86571099  0.70006204  1
  Tb  Tb7  1  0.78288698  0.13428900  0.29993802  1
  Tb  Tb8  1  0.74999999  0.49999999  0.50000003  1
  Tb  Tb9  1  0.25000000  0.49999999  0.50000003  1
  Tb  Tb10  1  0.66137499  0.49999999  0.17725004  1
  Ag  Ag11  1  0.33862500  0.49999999  0.82275002  1
  Ag  Ag12  1  0.16137500  0.17725000  0.50000001  1
  Ag  Ag13  1  0.83862499  0.82274999  0.50000005  1
  Ag  Ag14  1  0.74999998  0.00000000  0.00000001  1
  Ag  Ag15  1  0.24999999  0.00000000  0.00000000  1
