# generated using pymatgen
data_LaTl
_symmetry_space_group_name_H-M   'P 1'
_cell_length_a   5.38916683
_cell_length_b   7.45810986
_cell_length_c   7.45811033
_cell_angle_alpha   120.00000000
_cell_angle_beta   90.00000000
_cell_angle_gamma   90.00000000
_symmetry_Int_Tables_number   1
_chemical_formula_structural   LaTl
_chemical_formula_sum   'La4 Tl4'
_cell_volume   259.60307948
_cell_formula_units_Z   4
loop_
 _symmetry_equiv_pos_site_id
 _symmetry_equiv_pos_as_xyz
  1  'x, y, z'
loop_
 _atom_site_type_symbol
 _atom_site_label
 _atom_site_symmetry_multiplicity
 _atom_site_fract_x
 _atom_site_fract_y
 _atom_site_fract_z
 _atom_site_occupancy
  La  La0  1  0.75000002  0.83021903  0.16978102  1
  La  La1  1  0.75000002  0.33956201  0.16978101  1
  La  La2  1  0.75000002  0.83021903  0.66043801  1
  La  La3  1  0.25000001  0.16978101  0.83021899  1
  Tl  Tl4  1  0.25000001  0.66043802  0.83021900  1
  Tl  Tl5  1  0.25000001  0.16978101  0.33956200  1
  Tl  Tl6  1  0.25000001  0.66666669  0.33333334  1
  Tl  Tl7  1  0.75000002  0.33333334  0.66666667  1
