# generated using pymatgen
data_Cu2PSe5
_symmetry_space_group_name_H-M   'P 1'
_cell_length_a   6.27232504
_cell_length_b   6.54621696
_cell_length_c   7.66311216
_cell_angle_alpha   90.00000000
_cell_angle_beta   90.00000000
_cell_angle_gamma   90.00000000
_symmetry_Int_Tables_number   1
_chemical_formula_structural   Cu2PSe5
_chemical_formula_sum   'Cu4 P2 Se10'
_cell_volume   314.64738986
_cell_formula_units_Z   2
loop_
 _symmetry_equiv_pos_site_id
 _symmetry_equiv_pos_as_xyz
  1  'x, y, z'
loop_
 _atom_site_type_symbol
 _atom_site_label
 _atom_site_symmetry_multiplicity
 _atom_site_fract_x
 _atom_site_fract_y
 _atom_site_fract_z
 _atom_site_occupancy
  Cu  Cu0  1  0.99741599  0.66019500  0.49999999  1
  Cu  Cu1  1  0.49741600  0.33980500  -0.00000000  1
  Cu  Cu2  1  0.00487400  0.17555400  0.75138898  1
  Cu  Cu3  1  0.00487400  0.17555400  0.24861099  1
  P  P4  1  0.50487400  0.82444600  0.74861098  1
  P  P5  1  0.50487400  0.82444600  0.25138899  1
  Se  Se6  1  0.49879200  0.32446100  0.49999999  1
  Se  Se7  1  0.99879199  0.67553900  -0.00000000  1
  Se  Se8  1  0.37102100  0.15641000  0.73656098  1
  Se  Se9  1  0.37102100  0.15641000  0.26343899  1
  Se  Se10  1  0.87102099  0.84359000  0.76343898  1
  Se  Se11  1  0.87102099  0.84359000  0.23656099  1
  Se  Se12  1  0.86042899  0.30973100  0.49999999  1
  Se  Se13  1  0.36042900  0.69026900  -0.00000000  1
  Se  Se14  1  0.39149300  0.65498600  0.49999999  1
  Se  Se15  1  0.89149299  0.34501400  0.00000000  1
