# generated using pymatgen
data_Li6La5(In2Cu)2
_symmetry_space_group_name_H-M   'P 1'
_cell_length_a   4.83339787
_cell_length_b   9.12383461
_cell_length_c   10.78968620
_cell_angle_alpha   79.83786774
_cell_angle_beta   77.05695343
_cell_angle_gamma   74.64031982
_symmetry_Int_Tables_number   1
_chemical_formula_structural   Li6La5(In2Cu)2
_chemical_formula_sum   'Li6 La5 In4 Cu2'
_cell_volume   443.67808436
_cell_formula_units_Z   1
loop_
 _symmetry_equiv_pos_site_id
 _symmetry_equiv_pos_as_xyz
  1  'x, y, z'
loop_
 _atom_site_type_symbol
 _atom_site_label
 _atom_site_symmetry_multiplicity
 _atom_site_fract_x
 _atom_site_fract_y
 _atom_site_fract_z
 _atom_site_occupancy
  Li  Li0  1  0.05055198  0.21855000  0.68034598  1
  Li  Li1  1  0.94944795  0.78145000  0.31965401  1
  Li  Li2  1  0.23751094  0.61290200  0.91207599  1
  Li  Li3  1  0.76248899  0.38709800  0.08792400  1
  Li  Li4  1  0.41749596  0.50871800  0.65628999  1
  Li  Li5  1  0.58250397  0.49128200  0.34371000  1
  La  La6  1  -0.00000006  0.50000000  0.50000001  1
  La  La7  1  0.25930799  0.14145000  0.33993399  1
  La  La8  1  0.74069193  0.85855000  0.66006600  1
  La  La9  1  0.43235999  0.22167800  0.91360196  1
  La  La10  1  0.56763994  0.77832200  0.08639803  1
  In  In11  1  0.09438090  0.94462100  0.86661702  1
  In  In12  1  0.90561903  0.05537900  0.13338297  1
  In  In13  1  0.15435095  0.50613500  0.18516302  1
  Cu  Cu14  1  0.84564898  0.49386500  0.81483697  1
  In  In15  1  0.38463993  0.76768200  0.46303802  1
  Cu  Cu16  1  0.61536000  0.23231800  0.53696197  1
