# generated using pymatgen
data_CeCuGe2
_symmetry_space_group_name_H-M   'P 1'
_cell_length_a   3.98609400
_cell_length_b   4.07435799
_cell_length_c   9.03057289
_cell_angle_alpha   76.96260834
_cell_angle_beta   90.00000000
_cell_angle_gamma   90.00000000
_symmetry_Int_Tables_number   1
_chemical_formula_structural   CeCuGe2
_chemical_formula_sum   'Ce2 Cu2 Ge4'
_cell_volume   142.88295551
_cell_formula_units_Z   2
loop_
 _symmetry_equiv_pos_site_id
 _symmetry_equiv_pos_as_xyz
  1  'x, y, z'
loop_
 _atom_site_type_symbol
 _atom_site_label
 _atom_site_symmetry_multiplicity
 _atom_site_fract_x
 _atom_site_fract_y
 _atom_site_fract_z
 _atom_site_occupancy
  Ce  Ce0  1  0.75000000  0.10127100  0.79745798  1
  Ce  Ce1  1  0.25000000  0.89872900  0.20254201  1
  Cu  Cu2  1  0.25000000  0.24977000  0.50045999  1
  Cu  Cu3  1  0.75000000  0.75023000  0.49954000  1
  Ge  Ge4  1  0.75000000  0.32217200  0.35565599  1
  Ge  Ge5  1  0.25000000  0.67782800  0.64434399  1
  Ge  Ge6  1  0.25000000  0.53653500  0.92692998  1
  Ge  Ge7  1  0.75000000  0.46346500  0.07307100  1
