# generated using pymatgen
data_LiCo(SiO3)2
_symmetry_space_group_name_H-M   'P 1'
_cell_length_a   5.30664825
_cell_length_b   6.70561600
_cell_length_c   6.71033812
_cell_angle_alpha   85.09008026
_cell_angle_beta   77.19528961
_cell_angle_gamma   77.28869629
_symmetry_Int_Tables_number   1
_chemical_formula_structural   LiCo(SiO3)2
_chemical_formula_sum   'Li2 Co2 Si4 O12'
_cell_volume   226.96772580
_cell_formula_units_Z   2
loop_
 _symmetry_equiv_pos_site_id
 _symmetry_equiv_pos_as_xyz
  1  'x, y, z'
loop_
 _atom_site_type_symbol
 _atom_site_label
 _atom_site_symmetry_multiplicity
 _atom_site_fract_x
 _atom_site_fract_y
 _atom_site_fract_z
 _atom_site_occupancy
  Li  Li0  1  0.24835407  0.70053500  0.29806996  1
  Li  Li1  1  0.24992101  0.09087200  0.90918300  1
  Co  Co2  1  0.74894210  0.89824201  0.10119097  1
  Co  Co3  1  0.74987004  0.25227200  0.74801601  1
  Si  Si4  1  0.25131003  0.20394600  0.38472599  1
  Si  Si5  1  0.24897407  0.61527800  0.79613997  1
  Si  Si6  1  0.74110009  0.80113200  0.61992397  1
  Si  Si7  1  0.75965305  0.38029500  0.19867000  1
  O  O8  1  0.35099201  0.02747100  0.21582401  1
  O  O9  1  0.15000508  0.78389700  0.97290195  1
  O  O10  1  0.64727811  0.96936601  0.79938396  1
  O  O11  1  0.85284304  0.20096500  0.03037102  1
  O  O12  1  0.13310602  0.13809200  0.62083499  1
  O  O13  1  0.36677504  0.37910300  0.86200499  1
  O  O14  1  0.83001810  0.88937901  0.39138397  1
  O  O15  1  0.67078907  0.60902700  0.11063798  1
  O  O16  1  0.49090004  0.33470200  0.37001799  1
  O  O17  1  0.00885106  0.62958500  0.66644796  1
  O  O18  1  0.49757908  0.68197900  0.62145697  1
  O  O19  1  0.00274004  0.37856100  0.31811597  1
