# generated using pymatgen
data_Cd3Cu5S8
_symmetry_space_group_name_H-M   'P 1'
_cell_length_a   3.94566202
_cell_length_b   6.24767923
_cell_length_c   13.41769791
_cell_angle_alpha   90.00000000
_cell_angle_beta   90.00000000
_cell_angle_gamma   90.00000000
_symmetry_Int_Tables_number   1
_chemical_formula_structural   Cd3Cu5S8
_chemical_formula_sum   'Cd3 Cu5 S8'
_cell_volume   330.76276622
_cell_formula_units_Z   1
loop_
 _symmetry_equiv_pos_site_id
 _symmetry_equiv_pos_as_xyz
  1  'x, y, z'
loop_
 _atom_site_type_symbol
 _atom_site_label
 _atom_site_symmetry_multiplicity
 _atom_site_fract_x
 _atom_site_fract_y
 _atom_site_fract_z
 _atom_site_occupancy
  Cd  Cd0  1  0.25774500  0.24764999  0.13307000  1
  Cd  Cd1  1  0.75774500  0.25234999  0.86693001  1
  Cu  Cu2  1  0.24225500  0.75234997  0.63307000  1
  Cd  Cd3  1  0.74225500  0.74764997  0.36693000  1
  Cu  Cu4  1  0.73296500  0.37123899  0.54927900  1
  Cu  Cu5  1  0.23296500  0.12876100  0.45072100  1
  Cu  Cu6  1  0.26703500  0.87123897  0.95072101  1
  Cu  Cu7  1  0.76703500  0.62876098  0.04927900  1
  S  S8  1  0.24127300  0.50412398  0.46190900  1
  S  S9  1  0.75707100  0.48407598  0.20634600  1
  S  S10  1  0.25707100  0.01592400  0.79365401  1
  S  S11  1  0.24292900  0.98407596  0.29365400  1
  S  S12  1  0.25872700  0.49587598  0.96190901  1
  S  S13  1  0.74127300  0.99587596  0.53809100  1
  S  S14  1  0.74292900  0.51592398  0.70634600  1
  S  S15  1  0.75872700  0.00412400  0.03809100  1
