# generated using pymatgen
data_YCuF3
_symmetry_space_group_name_H-M   'P 1'
_cell_length_a   4.30803394
_cell_length_b   4.30892658
_cell_length_c   4.30970001
_cell_angle_alpha   89.89852905
_cell_angle_beta   89.72196198
_cell_angle_gamma   89.95820618
_symmetry_Int_Tables_number   1
_chemical_formula_structural   YCuF3
_chemical_formula_sum   'Y1 Cu1 F3'
_cell_volume   79.99988165
_cell_formula_units_Z   1
loop_
 _symmetry_equiv_pos_site_id
 _symmetry_equiv_pos_as_xyz
  1  'x, y, z'
loop_
 _atom_site_type_symbol
 _atom_site_label
 _atom_site_symmetry_multiplicity
 _atom_site_fract_x
 _atom_site_fract_y
 _atom_site_fract_z
 _atom_site_occupancy
  Y  Y0  1  0.48824897  0.49856199  0.49502894  1
  Cu  Cu1  1  0.99492594  0.99634598  0.99050788  1
  F  F2  1  0.48281697  0.99933098  0.49976091  1
  F  F3  1  0.98735195  0.50527899  0.50808391  1
  F  F4  1  0.48665597  0.50047599  0.99662094  1
