# generated using pymatgen
data_Ag2IO3
_symmetry_space_group_name_H-M   'P 1'
_cell_length_a   3.90669537
_cell_length_b   3.90669537
_cell_length_c   8.20762253
_cell_angle_alpha   90.00000000
_cell_angle_beta   90.00000000
_cell_angle_gamma   117.62670135
_symmetry_Int_Tables_number   1
_chemical_formula_structural   Ag2IO3
_chemical_formula_sum   'Ag2 I1 O3'
_cell_volume   110.98495260
_cell_formula_units_Z   1
loop_
 _symmetry_equiv_pos_site_id
 _symmetry_equiv_pos_as_xyz
  1  'x, y, z'
loop_
 _atom_site_type_symbol
 _atom_site_label
 _atom_site_symmetry_multiplicity
 _atom_site_fract_x
 _atom_site_fract_y
 _atom_site_fract_z
 _atom_site_occupancy
  Ag  Ag0  1  0.56072900  0.43927100  0.78313705  1
  Ag  Ag1  1  0.43927100  0.56072899  0.28313702  1
  I  I2  1  0.01044601  0.98955399  0.52710303  1
  O  O3  1  0.98955398  0.01044600  0.02710300  1
  O  O4  1  0.20838901  0.79161099  0.78166004  1
  O  O5  1  0.79161099  0.20838900  0.28166002  1
