# generated using pymatgen
data_LaAl2Ni3
_symmetry_space_group_name_H-M   'P 1'
_cell_length_a   4.19379997
_cell_length_b   5.17040157
_cell_length_c   5.17040157
_cell_angle_alpha   118.43721008
_cell_angle_beta   90.00000000
_cell_angle_gamma   90.00000000
_symmetry_Int_Tables_number   1
_chemical_formula_structural   LaAl2Ni3
_chemical_formula_sum   'La1 Al2 Ni3'
_cell_volume   98.58545477
_cell_formula_units_Z   1
loop_
 _symmetry_equiv_pos_site_id
 _symmetry_equiv_pos_as_xyz
  1  'x, y, z'
loop_
 _atom_site_type_symbol
 _atom_site_label
 _atom_site_symmetry_multiplicity
 _atom_site_fract_x
 _atom_site_fract_y
 _atom_site_fract_z
 _atom_site_occupancy
  La  La0  1  -0.00000000  0.50000000  0.50000001  1
  Al  Al1  1  0.50000000  0.50000000  0.00000001  1
  Al  Al2  1  0.50000000  0.00000000  0.50000000  1
  Ni  Ni3  1  -0.00000000  0.83623601  0.16376402  1
  Ni  Ni4  1  1.00000001  0.16376400  0.83623600  1
  Ni  Ni5  1  0.50000000  0.00000000  -0.00000000  1
