# generated using pymatgen
data_LiAlNiS4
_symmetry_space_group_name_H-M   'P 1'
_cell_length_a   5.82026005
_cell_length_b   6.13202572
_cell_length_c   5.82026005
_cell_angle_alpha   61.66806412
_cell_angle_beta   90.00000000
_cell_angle_gamma   118.33193970
_symmetry_Int_Tables_number   1
_chemical_formula_structural   LiAlNiS4
_chemical_formula_sum   'Li1 Al1 Ni1 S4'
_cell_volume   153.98989566
_cell_formula_units_Z   1
loop_
 _symmetry_equiv_pos_site_id
 _symmetry_equiv_pos_as_xyz
  1  'x, y, z'
loop_
 _atom_site_type_symbol
 _atom_site_label
 _atom_site_symmetry_multiplicity
 _atom_site_fract_x
 _atom_site_fract_y
 _atom_site_fract_z
 _atom_site_occupancy
  Li  Li0  1  0.50000000  0.00000000  0.50000000  1
  Al  Al1  1  0.00000000  0.00000000  0.00000000  1
  Ni  Ni2  1  0.25000004  0.50000001  0.24999999  1
  S  S3  1  0.92609601  0.26967701  0.58785599  1
  S  S4  1  0.58785505  0.73032302  0.34358098  1
  S  S5  1  0.14246706  0.73032202  0.92609698  1
  S  S6  1  0.34358102  0.26967801  0.14246699  1
