# generated using pymatgen
data_Nb11Ge3
_symmetry_space_group_name_H-M   'P 1'
_cell_length_a   5.19789505
_cell_length_b   7.65391350
_cell_length_c   7.65391397
_cell_angle_alpha   83.37908936
_cell_angle_beta   70.15004730
_cell_angle_gamma   70.15005493
_symmetry_Int_Tables_number   1
_chemical_formula_structural   Nb11Ge3
_chemical_formula_sum   'Nb11 Ge3'
_cell_volume   269.39580624
_cell_formula_units_Z   1
loop_
 _symmetry_equiv_pos_site_id
 _symmetry_equiv_pos_as_xyz
  1  'x, y, z'
loop_
 _atom_site_type_symbol
 _atom_site_label
 _atom_site_symmetry_multiplicity
 _atom_site_fract_x
 _atom_site_fract_y
 _atom_site_fract_z
 _atom_site_occupancy
  Nb  Nb0  1  0.40618399  0.50000001  0.68763195  1
  Nb  Nb1  1  0.59381599  0.50000001  0.31236795  1
  Nb  Nb2  1  0.09381599  0.31236801  0.49999997  1
  Nb  Nb3  1  0.90618398  0.68763201  0.49999992  1
  Nb  Nb4  1  0.60016000  0.11503700  0.67873196  1
  Nb  Nb5  1  0.39392897  0.88496302  0.32126793  1
  Nb  Nb6  1  0.89984000  0.32126801  0.88496294  1
  Nb  Nb7  1  0.10607098  0.67873201  0.11503696  1
  Nb  Nb8  1  0.71519698  0.67873201  0.88496293  1
  Nb  Nb9  1  0.27889199  0.32126801  0.11503697  1
  Ge  Ge10  1  0.22110797  0.88496302  0.67873194  1
  Nb  Nb11  1  0.78480300  0.11503700  0.32126796  1
  Ge  Ge12  1  0.25000000  0.00000000  -0.00000001  1
  Ge  Ge13  1  0.75000001  0.00000000  -0.00000003  1
