# generated using pymatgen
data_DyMoC2
_symmetry_space_group_name_H-M   'P 1'
_cell_length_a   3.29175496
_cell_length_b   5.69825411
_cell_length_c   10.93596172
_cell_angle_alpha   90.00000000
_cell_angle_beta   90.00000000
_cell_angle_gamma   90.00000000
_symmetry_Int_Tables_number   1
_chemical_formula_structural   DyMoC2
_chemical_formula_sum   'Dy4 Mo4 C8'
_cell_volume   205.12863617
_cell_formula_units_Z   4
loop_
 _symmetry_equiv_pos_site_id
 _symmetry_equiv_pos_as_xyz
  1  'x, y, z'
loop_
 _atom_site_type_symbol
 _atom_site_label
 _atom_site_symmetry_multiplicity
 _atom_site_fract_x
 _atom_site_fract_y
 _atom_site_fract_z
 _atom_site_occupancy
  Dy  Dy0  1  0.25000000  0.08501400  0.86028002  1
  Dy  Dy1  1  0.25000000  0.58501399  0.63972002  1
  Dy  Dy2  1  0.75000001  0.91498598  0.13972000  1
  Dy  Dy3  1  0.75000001  0.41498599  0.36028001  1
  Mo  Mo4  1  0.25000000  0.41309599  0.10693500  1
  Mo  Mo5  1  0.25000000  0.91309598  0.39306501  1
  Mo  Mo6  1  0.75000001  0.58690399  0.89306502  1
  Mo  Mo7  1  0.75000001  0.08690400  0.60693502  1
  C  C8  1  0.25000000  0.16166300  0.24539401  1
  C  C9  1  0.25000000  0.66166299  0.25460601  1
  C  C10  1  0.75000001  0.83833698  0.75460602  1
  C  C11  1  0.75000001  0.33833699  0.74539402  1
  C  C12  1  0.25000000  0.73605999  0.98931203  1
  C  C13  1  0.25000000  0.23606000  0.51068801  1
  C  C14  1  0.75000001  0.26393999  0.01068800  1
  C  C15  1  0.75000001  0.76393999  0.48931201  1
