# generated using pymatgen
data_Mn2AgS5
_symmetry_space_group_name_H-M   'P 1'
_cell_length_a   5.89328194
_cell_length_b   6.81035662
_cell_length_c   8.33334732
_cell_angle_alpha   72.07447052
_cell_angle_beta   69.36124420
_cell_angle_gamma   89.94005585
_symmetry_Int_Tables_number   1
_chemical_formula_structural   Mn2AgS5
_chemical_formula_sum   'Mn4 Ag2 S10'
_cell_volume   295.62690264
_cell_formula_units_Z   2
loop_
 _symmetry_equiv_pos_site_id
 _symmetry_equiv_pos_as_xyz
  1  'x, y, z'
loop_
 _atom_site_type_symbol
 _atom_site_label
 _atom_site_symmetry_multiplicity
 _atom_site_fract_x
 _atom_site_fract_y
 _atom_site_fract_z
 _atom_site_occupancy
  Mn  Mn0  1  0.69447903  0.39882001  0.10079997  1
  Mn  Mn1  1  0.30552101  0.60118001  0.89920002  1
  Mn  Mn2  1  0.50000002  0.00000000  0.50000000  1
  Ag  Ag3  1  0.90212404  0.80232002  0.70496398  1
  Mn  Mn4  1  0.09787600  0.19768000  0.29503601  1
  Ag  Ag5  1  0.00000000  0.50000001  0.50000002  1
  S  S6  1  0.61695003  0.65393201  0.60101199  1
  S  S7  1  0.81268003  0.05443100  0.20267897  1
  S  S8  1  0.01598600  0.45214001  0.80369503  1
  S  S9  1  0.21629101  0.85285302  0.40112900  1
  S  S10  1  0.41518502  0.25378501  0.00166898  1
  S  S11  1  0.78370903  0.14714700  0.59887099  1
  S  S12  1  0.98401404  0.54786001  0.19630495  1
  S  S13  1  0.18732001  0.94556902  0.79732102  1
  S  S14  1  0.38305002  0.34606801  0.39898799  1
  S  S15  1  0.58481503  0.74621502  0.99833101  1
