# generated using pymatgen
data_CePdAu
_symmetry_space_group_name_H-M   'P 1'
_cell_length_a   3.47274709
_cell_length_b   4.57462168
_cell_length_c   4.57996225
_cell_angle_alpha   119.94962311
_cell_angle_beta   90.00000000
_cell_angle_gamma   90.00000000
_symmetry_Int_Tables_number   1
_chemical_formula_structural   CePdAu
_chemical_formula_sum   'Ce1 Pd1 Au1'
_cell_volume   63.04361488
_cell_formula_units_Z   1
loop_
 _symmetry_equiv_pos_site_id
 _symmetry_equiv_pos_as_xyz
  1  'x, y, z'
loop_
 _atom_site_type_symbol
 _atom_site_label
 _atom_site_symmetry_multiplicity
 _atom_site_fract_x
 _atom_site_fract_y
 _atom_site_fract_z
 _atom_site_occupancy
  Ce  Ce0  1  0.99999997  0.99991399  0.99982893  1
  Pd  Pd1  1  0.49999999  0.66644599  0.33287296  1
  Au  Au2  1  0.49999999  0.33354000  0.66729797  1
