# generated using pymatgen
data_MnCu(RuO3)2
_symmetry_space_group_name_H-M   'P 1'
_cell_length_a   6.46893597
_cell_length_b   6.46893597
_cell_length_c   6.46893597
_cell_angle_alpha   109.47122192
_cell_angle_beta   109.47122192
_cell_angle_gamma   109.47122192
_symmetry_Int_Tables_number   1
_chemical_formula_structural   MnCu(RuO3)2
_chemical_formula_sum   'Mn2 Cu2 Ru4 O12'
_cell_volume   208.38988993
_cell_formula_units_Z   2
loop_
 _symmetry_equiv_pos_site_id
 _symmetry_equiv_pos_as_xyz
  1  'x, y, z'
loop_
 _atom_site_type_symbol
 _atom_site_label
 _atom_site_symmetry_multiplicity
 _atom_site_fract_x
 _atom_site_fract_y
 _atom_site_fract_z
 _atom_site_occupancy
  Mn  Mn0  1  0.00000000  0.00000000  0.00000000  1
  Mn  Mn1  1  0.50000005  0.50000003  0.50000005  1
  Cu  Cu2  1  1.00000006  0.50000003  0.00000005  1
  Cu  Cu3  1  0.00000000  0.00000000  0.50000001  1
  Ru  Ru4  1  0.50000001  0.00000000  0.00000001  1
  Ru  Ru5  1  0.50000001  0.00000000  0.50000002  1
  Ru  Ru6  1  0.50000005  0.50000003  1.00000006  1
  Ru  Ru7  1  1.00000006  0.50000003  0.50000006  1
  O  O8  1  0.17615702  0.29560102  0.47175803  1
  O  O9  1  0.82384307  0.70439904  0.52824207  1
  O  O10  1  0.17615705  0.70439804  0.88055606  1
  O  O11  1  0.70439908  0.88055605  0.17615807  1
  O  O12  1  0.52824107  0.82384205  0.70439807  1
  O  O13  1  0.88055604  0.17615701  0.70439905  1
  O  O14  1  0.29560104  0.47175803  0.17615704  1
  O  O15  1  0.47175902  0.17615801  0.29560203  1
  O  O16  1  0.82384304  0.29560202  0.11944404  1
  O  O17  1  0.29560102  0.11944401  0.82384203  1
  O  O18  1  0.11944406  0.82384305  0.29560105  1
  O  O19  1  0.70439905  0.52824203  0.82384306  1
