# generated using pymatgen
data_KSO3
_symmetry_space_group_name_H-M   'P 1'
_cell_length_a   4.56563902
_cell_length_b   5.40746212
_cell_length_c   6.50796175
_cell_angle_alpha   90.00000000
_cell_angle_beta   106.55314636
_cell_angle_gamma   90.00000000
_symmetry_Int_Tables_number   1
_chemical_formula_structural   KSO3
_chemical_formula_sum   'K2 S2 O6'
_cell_volume   154.01303613
_cell_formula_units_Z   2
loop_
 _symmetry_equiv_pos_site_id
 _symmetry_equiv_pos_as_xyz
  1  'x, y, z'
loop_
 _atom_site_type_symbol
 _atom_site_label
 _atom_site_symmetry_multiplicity
 _atom_site_fract_x
 _atom_site_fract_y
 _atom_site_fract_z
 _atom_site_occupancy
  K  K0  1  0.64311300  0.24999999  0.28127002  1
  K  K1  1  0.35688700  0.74999998  0.71873000  1
  S  S2  1  0.08668200  0.74999998  0.17575400  1
  S  S3  1  0.91331801  0.24999999  0.82424602  1
  O  O4  1  0.80202301  0.02496600  0.67288702  1
  O  O5  1  0.19797700  0.52496599  0.32711300  1
  O  O6  1  0.19797700  0.97503398  0.32711300  1
  O  O7  1  0.80202301  0.47503399  0.67288702  1
  O  O8  1  0.26337200  0.24999999  0.86654400  1
  O  O9  1  0.73662801  0.74999998  0.13345602  1
