# generated using pymatgen
data_AlH6(NF3)2
_symmetry_space_group_name_H-M   'P 1'
_cell_length_a   5.54399920
_cell_length_b   5.62744617
_cell_length_c   5.62744570
_cell_angle_alpha   120.00000000
_cell_angle_beta   90.00000000
_cell_angle_gamma   90.00000000
_symmetry_Int_Tables_number   1
_chemical_formula_structural   AlH6(NF3)2
_chemical_formula_sum   'Al1 H6 N2 F6'
_cell_volume   152.04650893
_cell_formula_units_Z   1
loop_
 _symmetry_equiv_pos_site_id
 _symmetry_equiv_pos_as_xyz
  1  'x, y, z'
loop_
 _atom_site_type_symbol
 _atom_site_label
 _atom_site_symmetry_multiplicity
 _atom_site_fract_x
 _atom_site_fract_y
 _atom_site_fract_z
 _atom_site_occupancy
  Al  Al0  1  0.00000000  0.00000000  0.00000000  1
  H  H1  1  0.72254097  0.83974197  0.33130199  1
  H  H2  1  0.72254097  0.49155998  0.16025799  1
  H  H3  1  0.27745899  0.50843998  0.66869801  1
  H  H4  1  0.72254097  0.66869797  0.50844000  1
  H  H5  1  0.27745899  0.33130199  0.83974201  1
  H  H6  1  0.27745899  0.16025799  0.49156001  1
  N  N7  1  0.67342298  0.66666664  0.33333333  1
  N  N8  1  0.32657699  0.33333332  0.66666668  1
  F  F9  1  0.79128497  0.69953797  0.78593100  1
  F  F10  1  0.79128497  0.08639300  0.30046201  1
  F  F11  1  0.20871499  0.91360696  0.21406899  1
  F  F12  1  0.79128497  0.21406899  0.91360702  1
  F  F13  1  0.20871499  0.78593097  0.69953800  1
  F  F14  1  0.20871499  0.30046199  0.08639300  1
