# generated using pymatgen
data_Zr3MnSi5Ru2
_symmetry_space_group_name_H-M   'P 1'
_cell_length_a   4.14322281
_cell_length_b   4.14322281
_cell_length_c   10.71823311
_cell_angle_alpha   90.00000000
_cell_angle_beta   90.00000000
_cell_angle_gamma   90.00000000
_symmetry_Int_Tables_number   1
_chemical_formula_structural   Zr3MnSi5Ru2
_chemical_formula_sum   'Zr3 Mn1 Si5 Ru2'
_cell_volume   183.99235403
_cell_formula_units_Z   1
loop_
 _symmetry_equiv_pos_site_id
 _symmetry_equiv_pos_as_xyz
  1  'x, y, z'
loop_
 _atom_site_type_symbol
 _atom_site_label
 _atom_site_symmetry_multiplicity
 _atom_site_fract_x
 _atom_site_fract_y
 _atom_site_fract_z
 _atom_site_occupancy
  Zr  Zr0  1  0.00000000  0.00000000  0.30794500  1
  Zr  Zr1  1  0.00000000  0.00000000  0.69205499  1
  Zr  Zr2  1  0.00000000  0.50000002  0.12140600  1
  Mn  Mn3  1  0.00000000  0.50000002  0.87859399  1
  Si  Si4  1  0.50000002  0.00000000  0.12140600  1
  Si  Si5  1  0.50000002  0.00000000  0.87859399  1
  Si  Si6  1  0.50000002  0.50000002  0.30537200  1
  Ru  Ru7  1  0.50000002  0.50000002  0.69462799  1
  Si  Si8  1  0.00000000  0.50000002  0.49999999  1
  Si  Si9  1  0.50000002  0.00000000  0.49999999  1
  Ru  Ru10  1  0.00000000  0.00000000  0.00000000  1
