# generated using pymatgen
data_LiMgGa
_symmetry_space_group_name_H-M   'P 1'
_cell_length_a   4.28762150
_cell_length_b   4.28762150
_cell_length_c   9.44088173
_cell_angle_alpha   89.99925232
_cell_angle_beta   89.99932861
_cell_angle_gamma   60.00738525
_symmetry_Int_Tables_number   1
_chemical_formula_structural   LiMgGa
_chemical_formula_sum   'Li3 Mg3 Ga3'
_cell_volume   150.31709813
_cell_formula_units_Z   3
loop_
 _symmetry_equiv_pos_site_id
 _symmetry_equiv_pos_as_xyz
  1  'x, y, z'
loop_
 _atom_site_type_symbol
 _atom_site_label
 _atom_site_symmetry_multiplicity
 _atom_site_fract_x
 _atom_site_fract_y
 _atom_site_fract_z
 _atom_site_occupancy
  Li  Li0  1  0.66666669  0.66666666  0.16807897  1
  Li  Li1  1  0.66666669  0.66666666  0.83250799  1
  Li  Li2  1  0.66670102  0.66666666  0.50017698  1
  Mg  Mg3  1  0.99998303  0.99998298  0.29406796  1
  Mg  Mg4  1  0.99998303  0.99998198  0.70643297  1
  Mg  Mg5  1  0.33333334  0.33333333  0.01913398  1
  Ga  Ga6  1  0.99997703  0.99997098  0.99895398  1
  Ga  Ga7  1  0.33333334  0.33333333  0.36455099  1
  Ga  Ga8  1  0.33333334  0.33333333  0.63599500  1
