# generated using pymatgen
data_MnV4(OF2)4
_symmetry_space_group_name_H-M   'P 1'
_cell_length_a   5.27440023
_cell_length_b   5.56832647
_cell_length_c   7.49783278
_cell_angle_alpha   93.76755524
_cell_angle_beta   89.98863220
_cell_angle_gamma   89.98854828
_symmetry_Int_Tables_number   1
_chemical_formula_structural   MnV4(OF2)4
_chemical_formula_sum   'Mn1 V4 O4 F8'
_cell_volume   219.73230276
_cell_formula_units_Z   1
loop_
 _symmetry_equiv_pos_site_id
 _symmetry_equiv_pos_as_xyz
  1  'x, y, z'
loop_
 _atom_site_type_symbol
 _atom_site_label
 _atom_site_symmetry_multiplicity
 _atom_site_fract_x
 _atom_site_fract_y
 _atom_site_fract_z
 _atom_site_occupancy
  Mn  Mn0  1  0.01717697  0.49993098  0.75000002  1
  V  V1  1  0.00080993  0.99996196  0.49643802  1
  V  V2  1  0.00076793  0.99999096  0.00356101  1
  V  V3  1  0.49199395  0.49879998  0.98995603  1
  V  V4  1  0.49204495  0.50119798  0.51009002  1
  O  O5  1  0.41084995  0.49997198  0.74994102  1
  O  O6  1  0.88363590  0.99997796  0.25002903  1
  O  O7  1  0.82455293  0.68372598  0.93547803  1
  O  O8  1  0.82468195  0.31627199  0.56449503  1
  F  F9  1  0.70682596  0.19430299  0.94403503  1
  F  F10  1  0.70673892  0.80577697  0.55600103  1
  F  F11  1  0.59211795  0.50003498  0.24990302  1
  F  F12  1  0.29910794  0.80874697  0.05491901  1
  F  F13  1  0.29920498  0.19125399  0.44506101  1
  F  F14  1  0.18249797  0.30905099  0.04751401  1
  F  F15  1  0.18246995  0.69097798  0.45258602  1
  F  F16  1  0.10997000  0.00005900  0.74998501  1
