# generated using pymatgen
data_LiFe(TeO3)4
_symmetry_space_group_name_H-M   'P 1'
_cell_length_a   5.27456379
_cell_length_b   5.64894581
_cell_length_c   9.32840729
_cell_angle_alpha   97.29884338
_cell_angle_beta   90.00000000
_cell_angle_gamma   90.00000000
_symmetry_Int_Tables_number   1
_chemical_formula_structural   LiFe(TeO3)4
_chemical_formula_sum   'Li1 Fe1 Te4 O12'
_cell_volume   275.69445860
_cell_formula_units_Z   1
loop_
 _symmetry_equiv_pos_site_id
 _symmetry_equiv_pos_as_xyz
  1  'x, y, z'
loop_
 _atom_site_type_symbol
 _atom_site_label
 _atom_site_symmetry_multiplicity
 _atom_site_fract_x
 _atom_site_fract_y
 _atom_site_fract_z
 _atom_site_occupancy
  Li  Li0  1  0.40067202  0.78061003  0.25395402  1
  Fe  Fe1  1  0.90067204  0.21939001  0.74604598  1
  Te  Te2  1  0.50087802  0.26652301  0.06553701  1
  Te  Te3  1  0.00087800  0.73347703  0.93446299  1
  Te  Te4  1  0.99189204  0.25844501  0.40219300  1
  Te  Te5  1  0.49189202  0.74155503  0.59780701  1
  O  O6  1  0.65778703  0.45581902  0.58207700  1
  O  O7  1  0.15778701  0.54418102  0.41792301  1
  O  O8  1  0.59768802  0.86579604  0.43296702  1
  O  O9  1  0.09768800  0.13420401  0.56703298  1
  O  O10  1  0.71874003  0.91132004  0.72766001  1
  O  O11  1  0.21874001  0.08868000  0.27233999  1
  O  O12  1  0.20681101  0.64185603  0.08156202  1
  O  O13  1  0.70681103  0.35814402  0.91843798  1
  O  O14  1  0.12420300  0.50172802  0.79166099  1
  O  O15  1  0.62420302  0.49827202  0.20833901  1
  O  O16  1  0.19191001  0.97980804  0.88410601  1
  O  O17  1  0.69191003  0.02019200  0.11589400  1
