# generated using pymatgen
data_Li5CrS7
_symmetry_space_group_name_H-M   'P 1'
_cell_length_a   7.13213634
_cell_length_b   7.13213634
_cell_length_c   7.13213682
_cell_angle_alpha   61.18167877
_cell_angle_beta   61.18167877
_cell_angle_gamma   61.18167496
_symmetry_Int_Tables_number   1
_chemical_formula_structural   Li5CrS7
_chemical_formula_sum   'Li5 Cr1 S7'
_cell_volume   263.35315516
_cell_formula_units_Z   1
loop_
 _symmetry_equiv_pos_site_id
 _symmetry_equiv_pos_as_xyz
  1  'x, y, z'
loop_
 _atom_site_type_symbol
 _atom_site_label
 _atom_site_symmetry_multiplicity
 _atom_site_fract_x
 _atom_site_fract_y
 _atom_site_fract_z
 _atom_site_occupancy
  Li  Li0  1  0.00000000  0.00000000  0.00000000  1
  Li  Li1  1  0.49999998  0.49999999  0.50000003  1
  Li  Li2  1  0.49999998  0.49999999  0.00000004  1
  Li  Li3  1  -0.00000001  0.49999999  0.50000002  1
  Li  Li4  1  0.49999999  0.00000000  0.50000001  1
  Cr  Cr5  1  0.72687098  0.26202700  0.26202704  1
  S  S6  1  0.26202699  0.26202700  0.72687101  1
  S  S7  1  0.26202698  0.72687099  0.26202704  1
  S  S8  1  0.25738199  0.25738200  0.25738202  1
  S  S9  1  0.74261797  0.74261799  0.74261805  1
  S  S10  1  0.73797297  0.73797299  0.27312906  1
  S  S11  1  0.73797298  0.27312900  0.73797303  1
  S  S12  1  0.27312898  0.73797299  0.73797303  1
