# generated using pymatgen
data_Co3N
_symmetry_space_group_name_H-M   'P 1'
_cell_length_a   4.32222414
_cell_length_b   4.65877008
_cell_length_c   4.65877008
_cell_angle_alpha   120.00000000
_cell_angle_beta   90.00000000
_cell_angle_gamma   90.00000000
_symmetry_Int_Tables_number   1
_chemical_formula_structural   Co3N
_chemical_formula_sum   'Co6 N2'
_cell_volume   81.24197496
_cell_formula_units_Z   2
loop_
 _symmetry_equiv_pos_site_id
 _symmetry_equiv_pos_as_xyz
  1  'x, y, z'
loop_
 _atom_site_type_symbol
 _atom_site_label
 _atom_site_symmetry_multiplicity
 _atom_site_fract_x
 _atom_site_fract_y
 _atom_site_fract_z
 _atom_site_occupancy
  Co  Co0  1  -0.00000000  0.32682099  -0.00000001  1
  Co  Co1  1  0.49999998  0.00000000  0.67317897  1
  Co  Co2  1  0.49999998  0.32682099  0.32682098  1
  Co  Co3  1  0.49999998  0.67317898  0.99999994  1
  Co  Co4  1  0.99999997  0.00000000  0.32682098  1
  Co  Co5  1  -0.00000000  0.67317898  0.67317895  1
  N  N6  1  0.74999998  0.33333332  0.66666663  1
  N  N7  1  0.24999999  0.66666665  0.33333330  1
