# generated using pymatgen
data_K3CO4
_symmetry_space_group_name_H-M   'P 1'
_cell_length_a   7.14967632
_cell_length_b   7.14967632
_cell_length_c   7.20879555
_cell_angle_alpha   64.53668976
_cell_angle_beta   64.53668976
_cell_angle_gamma   64.68701172
_symmetry_Int_Tables_number   1
_chemical_formula_structural   K3CO4
_chemical_formula_sum   'K6 C2 O8'
_cell_volume   286.75908326
_cell_formula_units_Z   2
loop_
 _symmetry_equiv_pos_site_id
 _symmetry_equiv_pos_as_xyz
  1  'x, y, z'
loop_
 _atom_site_type_symbol
 _atom_site_label
 _atom_site_symmetry_multiplicity
 _atom_site_fract_x
 _atom_site_fract_y
 _atom_site_fract_z
 _atom_site_occupancy
  K  K0  1  0.68346300  0.31653700  0.00000005  1
  K  K1  1  0.74975400  0.81641499  0.93374908  1
  K  K2  1  0.31654801  0.68345199  0.50000005  1
  K  K3  1  0.18358500  0.25024600  0.06625102  1
  K  K4  1  0.81417800  0.74986799  0.43584008  1
  K  K5  1  0.25013200  0.18582200  0.56416002  1
  C  C6  1  0.25065401  0.74934599  0.00000005  1
  C  C7  1  0.75003100  0.24996900  0.50000005  1
  O  O8  1  0.42245601  0.74793599  0.82933006  1
  O  O9  1  0.25206401  0.57754399  0.17067004  1
  O  O10  1  0.07903201  0.92096799  0.00000005  1
  O  O11  1  0.74866900  0.41975199  0.32734406  1
  O  O12  1  0.92155699  0.07844300  0.50000005  1
  O  O13  1  0.58024800  0.25133100  0.67265604  1
  O  O14  1  0.99907000  0.50144099  0.76000008  1
  O  O15  1  0.49855899  0.00093000  0.24000003  1
