# generated using pymatgen
data_ZnCuSe2
_symmetry_space_group_name_H-M   'P 1'
_cell_length_a   6.50847197
_cell_length_b   6.50847197
_cell_length_c   6.50847197
_cell_angle_alpha   79.68688202
_cell_angle_beta   67.44213104
_cell_angle_gamma   115.93531036
_symmetry_Int_Tables_number   1
_chemical_formula_structural   ZnCuSe2
_chemical_formula_sum   'Zn2 Cu2 Se4'
_cell_volume   208.04572205
_cell_formula_units_Z   2
loop_
 _symmetry_equiv_pos_site_id
 _symmetry_equiv_pos_as_xyz
  1  'x, y, z'
loop_
 _atom_site_type_symbol
 _atom_site_label
 _atom_site_symmetry_multiplicity
 _atom_site_fract_x
 _atom_site_fract_y
 _atom_site_fract_z
 _atom_site_occupancy
  Cu  Cu0  1  0.00000000  0.00000000  0.00000000  1
  Zn  Zn1  1  0.49999994  0.79817797  0.70182209  1
  Zn  Zn2  1  0.49999999  0.20182199  0.29817803  1
  Cu  Cu3  1  0.99999997  0.49999998  0.50000007  1
  Se  Se4  1  0.99072397  0.46683598  0.13732706  1
  Se  Se5  1  0.00927592  0.87194897  0.52388809  1
  Se  Se6  1  0.60416300  0.12805100  0.86267303  1
  Se  Se7  1  0.39583696  0.53316398  0.47611206  1
