# generated using pymatgen
data_Mn4As5C7
_symmetry_space_group_name_H-M   'P 1'
_cell_length_a   4.29610014
_cell_length_b   6.47902441
_cell_length_c   6.58720160
_cell_angle_alpha   82.63360596
_cell_angle_beta   70.96810150
_cell_angle_gamma   70.63777924
_symmetry_Int_Tables_number   1
_chemical_formula_structural   Mn4As5C7
_chemical_formula_sum   'Mn4 As5 C7'
_cell_volume   163.48440720
_cell_formula_units_Z   1
loop_
 _symmetry_equiv_pos_site_id
 _symmetry_equiv_pos_as_xyz
  1  'x, y, z'
loop_
 _atom_site_type_symbol
 _atom_site_label
 _atom_site_symmetry_multiplicity
 _atom_site_fract_x
 _atom_site_fract_y
 _atom_site_fract_z
 _atom_site_occupancy
  Mn  Mn0  1  0.02405698  0.31926901  0.61706200  1
  Mn  Mn1  1  0.96038894  0.68073103  0.38293799  1
  Mn  Mn2  1  0.37329396  0.61080403  0.66437799  1
  Mn  Mn3  1  0.64847497  0.38919602  0.33562199  1
  As  As4  1  0.97367893  0.95929704  0.60254599  1
  As  As5  1  0.53552299  0.04070300  0.39745398  1
  As  As6  1  0.41065196  0.61602403  0.05697900  1
  As  As7  1  0.08365598  0.38397602  0.94302099  1
  As  As8  1  0.33483194  0.98255904  0.81003100  1
  C  C9  1  0.12742200  0.01744100  0.18996899  1
  C  C10  1  0.83932094  0.81595104  0.03875400  1
  C  C11  1  0.69402598  0.18404901  0.96124597  1
  C  C12  1  0.53593698  0.24831001  0.66350598  1
  C  C13  1  0.44775395  0.75169003  0.33649400  1
  C  C14  1  0.79781395  0.66561303  0.74974098  1
  C  C15  1  0.21316798  0.33438701  0.25025900  1
