# generated using pymatgen
data_Li3MnCoO5
_symmetry_space_group_name_H-M   'P 1'
_cell_length_a   5.03398561
_cell_length_b   5.13041973
_cell_length_c   7.66011763
_cell_angle_alpha   106.90279388
_cell_angle_beta   102.89785004
_cell_angle_gamma   101.21836090
_symmetry_Int_Tables_number   1
_chemical_formula_structural   Li3MnCoO5
_chemical_formula_sum   'Li6 Mn2 Co2 O10'
_cell_volume   177.22848778
_cell_formula_units_Z   2
loop_
 _symmetry_equiv_pos_site_id
 _symmetry_equiv_pos_as_xyz
  1  'x, y, z'
loop_
 _atom_site_type_symbol
 _atom_site_label
 _atom_site_symmetry_multiplicity
 _atom_site_fract_x
 _atom_site_fract_y
 _atom_site_fract_z
 _atom_site_occupancy
  Li  Li0  1  0.20456397  0.90055499  0.40433702  1
  Li  Li1  1  0.38476997  0.28758500  0.78431302  1
  Li  Li2  1  0.49999996  0.49999999  0.50000001  1
  Li  Li3  1  0.61522995  0.71241499  0.21568700  1
  Li  Li4  1  0.79543596  0.09944500  0.59566300  1
  Li  Li5  1  0.09795098  0.69798899  0.69615403  1
  Mn  Mn6  1  0.90204895  0.30201100  0.30384599  1
  Mn  Mn7  1  -0.00000001  0.49999999  0.00000001  1
  Co  Co8  1  0.69819895  0.89686099  0.89754702  1
  Co  Co9  1  0.30180098  0.10313900  0.10245300  1
  O  O10  1  0.04493600  0.12031400  0.86310403  1
  O  O11  1  0.33152997  0.70193899  0.93219103  1
  O  O12  1  0.13275599  0.29801500  0.52999902  1
  O  O13  1  0.22104098  0.48095599  0.23955501  1
  O  O14  1  0.42959596  0.89483699  0.66184102  1
  O  O15  1  0.57040397  0.10516300  0.33815900  1
  O  O16  1  0.77895895  0.51904399  0.76044501  1
  O  O17  1  0.86724394  0.70198499  0.47000100  1
  O  O18  1  0.66846996  0.29806100  0.06780899  1
  O  O19  1  0.95506393  0.87968599  0.13689599  1
