# generated using pymatgen
data_CsLaAgSe3
_symmetry_space_group_name_H-M   'P 1'
_cell_length_a   4.40669680
_cell_length_b   8.93587685
_cell_length_c   11.64172173
_cell_angle_alpha   90.00000000
_cell_angle_beta   90.00000000
_cell_angle_gamma   104.27482605
_symmetry_Int_Tables_number   1
_chemical_formula_structural   CsLaAgSe3
_chemical_formula_sum   'Cs2 La2 Ag2 Se6'
_cell_volume   444.26999175
_cell_formula_units_Z   2
loop_
 _symmetry_equiv_pos_site_id
 _symmetry_equiv_pos_as_xyz
  1  'x, y, z'
loop_
 _atom_site_type_symbol
 _atom_site_label
 _atom_site_symmetry_multiplicity
 _atom_site_fract_x
 _atom_site_fract_y
 _atom_site_fract_z
 _atom_site_occupancy
  Cs  Cs0  1  0.74553604  0.49107199  0.25000001  1
  Cs  Cs1  1  0.25446401  0.50892799  0.75000002  1
  La  La2  1  0.00000000  0.00000000  0.50000001  1
  La  La3  1  0.00000000  0.00000000  0.00000000  1
  Ag  Ag4  1  0.46113502  0.92226998  0.25000001  1
  Ag  Ag5  1  0.53886503  0.07773000  0.75000002  1
  Se  Se6  1  0.38203402  0.76406799  0.44500801  1
  Se  Se7  1  0.61796603  0.23593200  0.55499201  1
  Se  Se8  1  0.38203402  0.76406799  0.05499200  1
  Se  Se9  1  0.61796603  0.23593200  0.94500802  1
  Se  Se10  1  0.05720400  0.11440800  0.25000001  1
  Se  Se11  1  0.94279605  0.88559198  0.75000002  1
