# generated using pymatgen
data_SrH2Br3
_symmetry_space_group_name_H-M   'P 1'
_cell_length_a   3.69774294
_cell_length_b   3.69774294
_cell_length_c   6.47835112
_cell_angle_alpha   90.00000000
_cell_angle_beta   90.00000000
_cell_angle_gamma   90.00000000
_symmetry_Int_Tables_number   1
_chemical_formula_structural   SrH2Br3
_chemical_formula_sum   'Sr1 H2 Br3'
_cell_volume   88.58045673
_cell_formula_units_Z   1
loop_
 _symmetry_equiv_pos_site_id
 _symmetry_equiv_pos_as_xyz
  1  'x, y, z'
loop_
 _atom_site_type_symbol
 _atom_site_label
 _atom_site_symmetry_multiplicity
 _atom_site_fract_x
 _atom_site_fract_y
 _atom_site_fract_z
 _atom_site_occupancy
  Sr  Sr0  1  0.00000000  0.00000000  0.00000000  1
  Br  Br1  1  0.50000001  0.50000001  0.49999999  1
  H  H2  1  0.00000000  0.00000000  0.72282899  1
  H  H3  1  0.00000000  0.00000000  0.27717100  1
  Br  Br4  1  0.50000001  0.00000000  0.00000000  1
  Br  Br5  1  0.00000000  0.50000001  0.00000000  1
