# generated using pymatgen
data_CsCa(EuIn)2
_symmetry_space_group_name_H-M   'P 1'
_cell_length_a   6.95961809
_cell_length_b   6.95961809
_cell_length_c   6.95961809
_cell_angle_alpha   60.00000000
_cell_angle_beta   60.00000000
_cell_angle_gamma   60.00000000
_symmetry_Int_Tables_number   1
_chemical_formula_structural   CsCa(EuIn)2
_chemical_formula_sum   'Cs1 Ca1 Eu2 In2'
_cell_volume   238.36430879
_cell_formula_units_Z   1
loop_
 _symmetry_equiv_pos_site_id
 _symmetry_equiv_pos_as_xyz
  1  'x, y, z'
loop_
 _atom_site_type_symbol
 _atom_site_label
 _atom_site_symmetry_multiplicity
 _atom_site_fract_x
 _atom_site_fract_y
 _atom_site_fract_z
 _atom_site_occupancy
  Cs  Cs0  1  0.49999998  0.49999998  0.49999998  1
  Ca  Ca1  1  0.24999999  0.24999999  0.24999999  1
  Eu  Eu2  1  0.87499997  0.87499997  0.37499999  1
  Eu  Eu3  1  0.37499999  0.87499997  0.87499997  1
  In  In4  1  0.87499997  0.37499999  0.87499997  1
  In  In5  1  0.87499997  0.87499997  0.87499997  1
