# generated using pymatgen
data_Ta(Mo3Se4)2
_symmetry_space_group_name_H-M   'P 1'
_cell_length_a   6.77849627
_cell_length_b   6.77849627
_cell_length_c   6.77849531
_cell_angle_alpha   89.37402344
_cell_angle_beta   89.37402344
_cell_angle_gamma   89.37402344
_symmetry_Int_Tables_number   1
_chemical_formula_structural   Ta(Mo3Se4)2
_chemical_formula_sum   'Ta1 Mo6 Se8'
_cell_volume   311.40301974
_cell_formula_units_Z   1
loop_
 _symmetry_equiv_pos_site_id
 _symmetry_equiv_pos_as_xyz
  1  'x, y, z'
loop_
 _atom_site_type_symbol
 _atom_site_label
 _atom_site_symmetry_multiplicity
 _atom_site_fract_x
 _atom_site_fract_y
 _atom_site_fract_z
 _atom_site_occupancy
  Ta  Ta0  1  0.00000000  0.00000000  0.00000000  1
  Mo  Mo1  1  0.42323097  0.23286099  0.55814904  1
  Mo  Mo2  1  0.23286096  0.55814898  0.42323105  1
  Mo  Mo3  1  0.55814896  0.42323099  0.23286105  1
  Mo  Mo4  1  0.57676894  0.76713897  0.44185107  1
  Mo  Mo5  1  0.76713895  0.44185099  0.57676907  1
  Mo  Mo6  1  0.44185095  0.57676898  0.76713906  1
  Se  Se7  1  0.23565798  0.23565799  0.23565803  1
  Se  Se8  1  0.76434193  0.76434197  0.76434209  1
  Se  Se9  1  0.36838094  0.75622897  0.12307706  1
  Se  Se10  1  0.75622897  0.12307700  0.36838105  1
  Se  Se11  1  0.12307697  0.36838099  0.75622903  1
  Se  Se12  1  0.63161896  0.24377099  0.87692305  1
  Se  Se13  1  0.24377094  0.87692297  0.63161906  1
  Se  Se14  1  0.87692293  0.63161898  0.24377108  1
