# generated using pymatgen
data_TiCo
_symmetry_space_group_name_H-M   'P 1'
_cell_length_a   5.33065701
_cell_length_b   5.33065701
_cell_length_c   7.28134632
_cell_angle_alpha   68.52785492
_cell_angle_beta   68.52785492
_cell_angle_gamma   60.00001144
_symmetry_Int_Tables_number   1
_chemical_formula_structural   TiCo
_chemical_formula_sum   'Ti5 Co5'
_cell_volume   162.39268823
_cell_formula_units_Z   5
loop_
 _symmetry_equiv_pos_site_id
 _symmetry_equiv_pos_as_xyz
  1  'x, y, z'
loop_
 _atom_site_type_symbol
 _atom_site_label
 _atom_site_symmetry_multiplicity
 _atom_site_fract_x
 _atom_site_fract_y
 _atom_site_fract_z
 _atom_site_occupancy
  Ti  Ti0  1  0.60674701  0.12785300  0.65865301  1
  Ti  Ti1  1  0.60674700  0.60674701  0.65865301  1
  Ti  Ti2  1  0.12785300  0.60674701  0.65865301  1
  Ti  Ti3  1  0.87214701  0.39325300  0.34134700  1
  Ti  Ti4  1  0.39325300  0.87214701  0.34134700  1
  Co  Co5  1  0.39325300  0.39325300  0.34134700  1
  Co  Co6  1  0.10511200  0.10511200  0.68466401  1
  Co  Co7  1  0.89488801  0.89488801  0.31533601  1
  Co  Co8  1  0.33073200  0.33073200  0.00780400  1
  Co  Co9  1  0.66926800  0.66926801  0.99219601  1
