# generated using pymatgen
data_Mn6O5F7
_symmetry_space_group_name_H-M   'P 1'
_cell_length_a   4.73081112
_cell_length_b   5.72699213
_cell_length_c   7.87890339
_cell_angle_alpha   86.53429413
_cell_angle_beta   88.82132721
_cell_angle_gamma   88.81586456
_symmetry_Int_Tables_number   1
_chemical_formula_structural   Mn6O5F7
_chemical_formula_sum   'Mn6 O5 F7'
_cell_volume   212.98980857
_cell_formula_units_Z   1
loop_
 _symmetry_equiv_pos_site_id
 _symmetry_equiv_pos_as_xyz
  1  'x, y, z'
loop_
 _atom_site_type_symbol
 _atom_site_label
 _atom_site_symmetry_multiplicity
 _atom_site_fract_x
 _atom_site_fract_y
 _atom_site_fract_z
 _atom_site_occupancy
  Mn  Mn0  1  0.51304202  0.51030599  0.01122399  1
  Mn  Mn1  1  0.55075704  0.82700299  0.65926098  1
  Mn  Mn2  1  0.48811900  0.16859600  0.33400699  1
  Mn  Mn3  1  0.97194500  0.33262799  0.68265098  1
  Mn  Mn4  1  0.98685902  0.66346299  0.32157198  1
  Mn  Mn5  1  0.98792405  0.98610398  0.98943597  1
  O  O6  1  0.80967098  0.04161200  0.77454298  1
  O  O7  1  0.81103103  0.70661899  0.09624798  1
  O  O8  1  0.69295802  0.52751899  0.78048398  1
  O  O9  1  0.69091204  0.87885999  0.42656398  1
  O  O10  1  0.31180503  0.46362299  0.23461299  1
  F  F11  1  0.79346201  0.36288199  0.43723698  1
  F  F12  1  0.70763000  0.20010700  0.10881199  1
  F  F13  1  0.28582300  0.13957100  0.57152299  1
  F  F14  1  0.31322705  0.80510999  0.87992098  1
  F  F15  1  0.17437704  0.62450499  0.56361699  1
  F  F16  1  0.20071106  0.97148098  0.21202399  1
  F  F17  1  0.20974902  0.29000800  0.91626199  1
