# generated using pymatgen
data_Cs3RbI4
_symmetry_space_group_name_H-M   'P 1'
_cell_length_a   9.00476074
_cell_length_b   9.00476074
_cell_length_c   9.00476074
_cell_angle_alpha   90.00000000
_cell_angle_beta   90.00000000
_cell_angle_gamma   90.00000000
_symmetry_Int_Tables_number   1
_chemical_formula_structural   Cs3RbI4
_chemical_formula_sum   'Cs3 Rb1 I4'
_cell_volume   730.15747241
_cell_formula_units_Z   1
loop_
 _symmetry_equiv_pos_site_id
 _symmetry_equiv_pos_as_xyz
  1  'x, y, z'
loop_
 _atom_site_type_symbol
 _atom_site_label
 _atom_site_symmetry_multiplicity
 _atom_site_fract_x
 _atom_site_fract_y
 _atom_site_fract_z
 _atom_site_occupancy
  Cs  Cs0  1  0.00000000  0.00000000  0.00000000  1
  Cs  Cs1  1  0.50000001  0.25000001  0.00000000  1
  Rb  Rb2  1  0.50000001  0.75000002  0.00000000  1
  Cs  Cs3  1  -0.00000000  0.50000001  0.25000001  1
  I  I4  1  0.25000001  0.00000000  0.50000001  1
  I  I5  1  0.75000002  0.00000000  0.50000001  1
  I  I6  1  0.50000001  0.50000001  0.50000001  1
  I  I7  1  -0.00000000  0.50000001  0.75000002  1
