# generated using pymatgen
data_LiZr3O4
_symmetry_space_group_name_H-M   'P 1'
_cell_length_a   2.98687410
_cell_length_b   4.19393396
_cell_length_c   8.35318756
_cell_angle_alpha   90.00000000
_cell_angle_beta   100.29908752
_cell_angle_gamma   90.00000000
_symmetry_Int_Tables_number   1
_chemical_formula_structural   LiZr3O4
_chemical_formula_sum   'Li1 Zr3 O4'
_cell_volume   102.95237071
_cell_formula_units_Z   1
loop_
 _symmetry_equiv_pos_site_id
 _symmetry_equiv_pos_as_xyz
  1  'x, y, z'
loop_
 _atom_site_type_symbol
 _atom_site_label
 _atom_site_symmetry_multiplicity
 _atom_site_fract_x
 _atom_site_fract_y
 _atom_site_fract_z
 _atom_site_occupancy
  Zr  Zr0  1  0.78832098  0.25000000  0.57664201  1
  Li  Li1  1  0.21167900  0.75000001  0.42335800  1
  Zr  Zr2  1  0.61290299  0.25000000  0.22580601  1
  Zr  Zr3  1  0.38709699  0.75000001  0.77419400  1
  O  O4  1  0.95868098  0.25000000  0.91736201  1
  O  O5  1  0.04131900  0.75000001  0.08263800  1
  O  O6  1  0.20000800  0.25000000  0.40001600  1
  O  O7  1  0.79999198  0.75000001  0.59998401  1
