# generated using pymatgen
data_Er6FeBi2
_symmetry_space_group_name_H-M   'P 1'
_cell_length_a   4.07334280
_cell_length_b   8.32816601
_cell_length_c   8.32816601
_cell_angle_alpha   120.00000000
_cell_angle_beta   90.00000000
_cell_angle_gamma   90.00000000
_symmetry_Int_Tables_number   1
_chemical_formula_structural   Er6FeBi2
_chemical_formula_sum   'Er6 Fe1 Bi2'
_cell_volume   244.66978439
_cell_formula_units_Z   1
loop_
 _symmetry_equiv_pos_site_id
 _symmetry_equiv_pos_as_xyz
  1  'x, y, z'
loop_
 _atom_site_type_symbol
 _atom_site_label
 _atom_site_symmetry_multiplicity
 _atom_site_fract_x
 _atom_site_fract_y
 _atom_site_fract_z
 _atom_site_occupancy
  Er  Er0  1  0.50000002  0.77028399  0.77028396  1
  Er  Er1  1  0.50000002  0.00000000  0.22971599  1
  Er  Er2  1  0.50000002  0.22971600  -0.00000001  1
  Er  Er3  1  -0.00000000  0.39056300  0.39056298  1
  Er  Er4  1  1.00000005  0.00000000  0.60943698  1
  Er  Er5  1  1.00000005  0.60943699  -0.00000001  1
  Fe  Fe6  1  0.00000000  0.00000000  0.00000000  1
  Bi  Bi7  1  0.50000002  0.66666666  0.33333331  1
  Bi  Bi8  1  0.50000002  0.33333333  0.66666664  1
