# generated using pymatgen
data_Ba2(InSb)3
_symmetry_space_group_name_H-M   'P 1'
_cell_length_a   8.67031384
_cell_length_b   9.89736938
_cell_length_c   8.67031384
_cell_angle_alpha   115.97705078
_cell_angle_beta   90.00000000
_cell_angle_gamma   115.97705078
_symmetry_Int_Tables_number   1
_chemical_formula_structural   Ba2(InSb)3
_chemical_formula_sum   'Ba4 In6 Sb6'
_cell_volume   584.09416624
_cell_formula_units_Z   2
loop_
 _symmetry_equiv_pos_site_id
 _symmetry_equiv_pos_as_xyz
  1  'x, y, z'
loop_
 _atom_site_type_symbol
 _atom_site_label
 _atom_site_symmetry_multiplicity
 _atom_site_fract_x
 _atom_site_fract_y
 _atom_site_fract_z
 _atom_site_occupancy
  Ba  Ba0  1  0.00000000  0.00000000  0.00000000  1
  Ba  Ba1  1  0.50000001  0.00000000  0.50000001  1
  Ba  Ba2  1  0.75000007  0.50000002  0.75000007  1
  Ba  Ba3  1  0.25000006  0.50000002  0.25000006  1
  In  In4  1  0.75000007  0.50000002  0.25000006  1
  In  In5  1  0.25000006  0.50000002  0.75000007  1
  In  In6  1  0.95663805  0.27135201  0.45663804  1
  Sb  Sb7  1  0.45663804  0.27135101  0.31471303  1
  In  In8  1  0.50000001  0.00000000  0.00000000  1
  In  In9  1  0.00000000  0.00000000  0.50000001  1
  Sb  Sb10  1  0.31471403  0.27135201  0.81471404  1
  In  In11  1  0.81471404  0.27135301  0.95663905  1
  Sb  Sb12  1  0.18528608  0.72864703  0.04336108  1
  Sb  Sb13  1  0.68528609  0.72864803  0.18528608  1
  Sb  Sb14  1  0.04336208  0.72864803  0.54336209  1
  Sb  Sb15  1  0.54336209  0.72864903  0.68528709  1
