# generated using pymatgen
data_La5CuBi3
_symmetry_space_group_name_H-M   'P 1'
_cell_length_a   6.71670485
_cell_length_b   9.82389164
_cell_length_c   9.82389164
_cell_angle_alpha   120.00000000
_cell_angle_beta   90.00000000
_cell_angle_gamma   90.00000000
_symmetry_Int_Tables_number   1
_chemical_formula_structural   La5CuBi3
_chemical_formula_sum   'La10 Cu2 Bi6'
_cell_volume   561.37623425
_cell_formula_units_Z   2
loop_
 _symmetry_equiv_pos_site_id
 _symmetry_equiv_pos_as_xyz
  1  'x, y, z'
loop_
 _atom_site_type_symbol
 _atom_site_label
 _atom_site_symmetry_multiplicity
 _atom_site_fract_x
 _atom_site_fract_y
 _atom_site_fract_z
 _atom_site_occupancy
  La  La0  1  1.00000002  0.33333335  0.66666669  1
  La  La1  1  -0.00000000  0.66666669  0.33333334  1
  La  La2  1  0.50000001  0.66666669  0.33333334  1
  La  La3  1  0.50000001  0.33333335  0.66666669  1
  La  La4  1  0.25000001  0.25936401  -0.00000000  1
  La  La5  1  0.25000001  0.74063603  0.74063602  1
  La  La6  1  0.25000001  0.00000000  0.25936401  1
  La  La7  1  0.75000002  0.74063603  -0.00000000  1
  La  La8  1  0.75000002  0.25936401  0.25936401  1
  La  La9  1  0.75000002  1.00000004  0.74063602  1
  Cu  Cu10  1  0.00000000  0.00000000  0.00000000  1
  Cu  Cu11  1  0.50000001  0.00000000  -0.00000000  1
  Bi  Bi12  1  0.25000001  0.61545802  -0.00000000  1
  Bi  Bi13  1  0.25000001  0.38454201  0.38454201  1
  Bi  Bi14  1  0.25000001  0.00000000  0.61545802  1
  Bi  Bi15  1  0.75000002  0.38454201  -0.00000000  1
  Bi  Bi16  1  0.75000002  0.61545802  0.61545802  1
  Bi  Bi17  1  0.75000002  1.00000004  0.38454201  1
