# generated using pymatgen
data_Cu(HO2)3
_symmetry_space_group_name_H-M   'P 1'
_cell_length_a   5.36884594
_cell_length_b   5.36884594
_cell_length_c   7.52432489
_cell_angle_alpha   110.90171814
_cell_angle_beta   110.90171814
_cell_angle_gamma   90.00000000
_symmetry_Int_Tables_number   1
_chemical_formula_structural   Cu(HO2)3
_chemical_formula_sum   'Cu2 H6 O12'
_cell_volume   187.25551265
_cell_formula_units_Z   2
loop_
 _symmetry_equiv_pos_site_id
 _symmetry_equiv_pos_as_xyz
  1  'x, y, z'
loop_
 _atom_site_type_symbol
 _atom_site_label
 _atom_site_symmetry_multiplicity
 _atom_site_fract_x
 _atom_site_fract_y
 _atom_site_fract_z
 _atom_site_occupancy
  Cu  Cu0  1  0.50000005  0.50000002  0.00000005  1
  Cu  Cu1  1  0.00000000  0.00000000  0.00000000  1
  H  H2  1  0.81314505  0.31314501  0.40690406  1
  H  H3  1  0.18685504  0.68685503  0.59309606  1
  H  H4  1  0.40624106  0.90624104  0.59309608  1
  H  H5  1  0.68685505  0.40624202  0.59309707  1
  H  H6  1  0.90624104  0.18685401  0.59309506  1
  H  H7  1  0.09375905  0.81314604  0.40690506  1
  O  O8  1  0.31314504  0.59375803  0.40690306  1
  O  O9  1  0.59375903  0.09375900  0.40690404  1
  O  O10  1  0.75000004  0.25000001  0.50000006  1
  O  O11  1  0.25000005  0.75000003  0.50000007  1
  O  O12  1  0.19039002  0.30960901  0.99999904  1
  O  O13  1  0.85641408  0.85641404  0.71282810  1
  O  O14  1  0.35641403  0.35641402  0.71282805  1
  O  O15  1  0.14358601  0.14358601  0.28717202  1
  O  O16  1  0.30961006  0.80961004  0.00000007  1
  O  O17  1  0.69039003  0.19039001  0.00000004  1
  O  O18  1  0.80961007  0.69039103  0.00000108  1
  O  O19  1  0.64358606  0.64358603  0.28717207  1
