# generated using pymatgen
data_LiAlPt
_symmetry_space_group_name_H-M   'P 1'
_cell_length_a   4.12516403
_cell_length_b   7.07098579
_cell_length_c   7.07098627
_cell_angle_alpha   120.00000000
_cell_angle_beta   90.00000000
_cell_angle_gamma   90.00000000
_symmetry_Int_Tables_number   1
_chemical_formula_structural   LiAlPt
_chemical_formula_sum   'Li3 Al3 Pt3'
_cell_volume   178.62071063
_cell_formula_units_Z   3
loop_
 _symmetry_equiv_pos_site_id
 _symmetry_equiv_pos_as_xyz
  1  'x, y, z'
loop_
 _atom_site_type_symbol
 _atom_site_label
 _atom_site_symmetry_multiplicity
 _atom_site_fract_x
 _atom_site_fract_y
 _atom_site_fract_z
 _atom_site_occupancy
  Li  Li0  1  0.50000000  0.58025103  1.00000005  1
  Li  Li1  1  0.50000000  0.41974902  0.41974903  1
  Li  Li2  1  0.50000000  0.00000000  0.58025101  1
  Al  Al3  1  -0.00000000  0.22991001  0.00000001  1
  Al  Al4  1  -0.00000000  0.77009004  0.77009005  1
  Al  Al5  1  0.00000000  0.00000000  0.22991001  1
  Pt  Pt6  1  -0.00000000  0.33333335  0.66666670  1
  Pt  Pt7  1  -0.00000000  0.66666670  0.33333337  1
  Pt  Pt8  1  0.50000000  0.00000000  -0.00000000  1
