# generated using pymatgen
data_Zr3Nb2Si3
_symmetry_space_group_name_H-M   'P 1'
_cell_length_a   5.33025885
_cell_length_b   7.81528187
_cell_length_c   7.81528139
_cell_angle_alpha   120.00000000
_cell_angle_beta   90.00000000
_cell_angle_gamma   90.00000000
_symmetry_Int_Tables_number   1
_chemical_formula_structural   Zr3Nb2Si3
_chemical_formula_sum   'Zr6 Nb4 Si6'
_cell_volume   281.94746672
_cell_formula_units_Z   2
loop_
 _symmetry_equiv_pos_site_id
 _symmetry_equiv_pos_as_xyz
  1  'x, y, z'
loop_
 _atom_site_type_symbol
 _atom_site_label
 _atom_site_symmetry_multiplicity
 _atom_site_fract_x
 _atom_site_fract_y
 _atom_site_fract_z
 _atom_site_occupancy
  Zr  Zr0  1  0.25000001  0.25096700  0.99999998  1
  Zr  Zr1  1  0.25000001  0.74903299  0.74903295  1
  Zr  Zr2  1  0.25000001  0.00000000  0.25096700  1
  Zr  Zr3  1  0.75000002  0.74903299  -0.00000004  1
  Zr  Zr4  1  0.75000002  0.25096700  0.25096698  1
  Zr  Zr5  1  0.75000002  0.00000000  0.74903300  1
  Nb  Nb6  1  -0.00000000  0.33333333  0.66666664  1
  Nb  Nb7  1  -0.00000000  0.66666666  0.33333329  1
  Nb  Nb8  1  0.50000001  0.66666666  0.33333329  1
  Nb  Nb9  1  0.50000001  0.33333333  0.66666664  1
  Si  Si10  1  0.25000001  0.60139999  -0.00000003  1
  Si  Si11  1  0.25000001  0.39860000  0.39859998  1
  Si  Si12  1  0.25000001  0.00000000  0.60140000  1
  Si  Si13  1  0.75000002  0.39860000  0.99999997  1
  Si  Si14  1  0.75000002  0.60139999  0.60139996  1
  Si  Si15  1  0.75000002  0.00000000  0.39860000  1
