# generated using pymatgen
data_Ce(GaAu)2
_symmetry_space_group_name_H-M   'P 1'
_cell_length_a   4.34482193
_cell_length_b   4.34482193
_cell_length_c   5.99498463
_cell_angle_alpha   111.24590302
_cell_angle_beta   111.24590302
_cell_angle_gamma   90.00000000
_symmetry_Int_Tables_number   1
_chemical_formula_structural   Ce(GaAu)2
_chemical_formula_sum   'Ce1 Ga2 Au2'
_cell_volume   97.17978453
_cell_formula_units_Z   1
loop_
 _symmetry_equiv_pos_site_id
 _symmetry_equiv_pos_as_xyz
  1  'x, y, z'
loop_
 _atom_site_type_symbol
 _atom_site_label
 _atom_site_symmetry_multiplicity
 _atom_site_fract_x
 _atom_site_fract_y
 _atom_site_fract_z
 _atom_site_occupancy
  Ce  Ce0  1  0.00000000  0.00000000  0.00000000  1
  Ga  Ga1  1  0.61297900  0.61297900  0.22595798  1
  Ga  Ga2  1  0.38702100  0.38702100  0.77404198  1
  Au  Au3  1  0.24999999  0.75000001  0.49999998  1
  Au  Au4  1  0.75000000  0.25000000  0.49999998  1
