# generated using pymatgen
data_Mn5ZnSe8
_symmetry_space_group_name_H-M   'P 1'
_cell_length_a   7.82759714
_cell_length_b   7.82759714
_cell_length_c   7.82759714
_cell_angle_alpha   60.00000000
_cell_angle_beta   60.00000000
_cell_angle_gamma   60.00000000
_symmetry_Int_Tables_number   1
_chemical_formula_structural   Mn5ZnSe8
_chemical_formula_sum   'Mn5 Zn1 Se8'
_cell_volume   339.13327201
_cell_formula_units_Z   1
loop_
 _symmetry_equiv_pos_site_id
 _symmetry_equiv_pos_as_xyz
  1  'x, y, z'
loop_
 _atom_site_type_symbol
 _atom_site_label
 _atom_site_symmetry_multiplicity
 _atom_site_fract_x
 _atom_site_fract_y
 _atom_site_fract_z
 _atom_site_occupancy
  Mn  Mn0  1  0.37500000  0.37500000  0.87500000  1
  Mn  Mn1  1  0.37500000  0.37500000  0.37500000  1
  Mn  Mn2  1  0.37500000  0.87500000  0.37500000  1
  Mn  Mn3  1  0.87500000  0.37500000  0.37500000  1
  Mn  Mn4  1  0.75000000  0.75000000  0.75000000  1
  Zn  Zn5  1  0.00000000  0.00000000  0.00000000  1
  Se  Se6  1  0.62028200  0.62028300  0.13915200  1
  Se  Se7  1  0.62028200  0.62028300  0.62028300  1
  Se  Se8  1  0.62028200  0.13915200  0.62028300  1
  Se  Se9  1  0.13915100  0.62028300  0.62028300  1
  Se  Se10  1  0.12971800  0.12971700  0.61084800  1
  Se  Se11  1  0.12971800  0.12971700  0.12971700  1
  Se  Se12  1  0.12971800  0.61084800  0.12971700  1
  Se  Se13  1  0.61084900  0.12971700  0.12971700  1
