# generated using pymatgen
data_Li4Cu2OF7
_symmetry_space_group_name_H-M   'P 1'
_cell_length_a   3.25743008
_cell_length_b   8.61152077
_cell_length_c   8.62917805
_cell_angle_alpha   90.00000000
_cell_angle_beta   90.00000000
_cell_angle_gamma   90.00000000
_symmetry_Int_Tables_number   1
_chemical_formula_structural   Li4Cu2OF7
_chemical_formula_sum   'Li4 Cu2 O1 F7'
_cell_volume   242.06075592
_cell_formula_units_Z   1
loop_
 _symmetry_equiv_pos_site_id
 _symmetry_equiv_pos_as_xyz
  1  'x, y, z'
loop_
 _atom_site_type_symbol
 _atom_site_label
 _atom_site_symmetry_multiplicity
 _atom_site_fract_x
 _atom_site_fract_y
 _atom_site_fract_z
 _atom_site_occupancy
  Li  Li0  1  -0.00000000  0.25376301  0.97945699  1
  Li  Li1  1  -0.00000000  0.22915601  0.49594600  1
  Li  Li2  1  0.00000000  0.75376302  0.02054300  1
  Li  Li3  1  0.00000000  0.72915602  0.50405400  1
  Cu  Cu4  1  0.49999999  0.00022000  0.24953300  1
  Cu  Cu5  1  0.49999999  0.50022001  0.75046700  1
  F  F6  1  -0.00000000  0.11174700  0.13535300  1
  O  O7  1  0.49999999  0.16568200  0.42010700  1
  F  F8  1  0.49999999  0.32929101  0.91608499  1
  F  F9  1  -0.00000000  0.38511501  0.63824800  1
  F  F10  1  -0.00000000  0.61174702  0.86464700  1
  F  F11  1  0.49999999  0.66568202  0.57989300  1
  F  F12  1  0.49999999  0.82929102  0.08391500  1
  F  F13  1  -0.00000000  0.88511502  0.36175200  1
