# generated using pymatgen
data_Tl2AgMoS5
_symmetry_space_group_name_H-M   'P 1'
_cell_length_a   6.74748707
_cell_length_b   6.74748707
_cell_length_c   6.74748707
_cell_angle_alpha   99.42245483
_cell_angle_beta   114.71744537
_cell_angle_gamma   114.71744537
_symmetry_Int_Tables_number   1
_chemical_formula_structural   Tl2AgMoS5
_chemical_formula_sum   'Tl2 Ag1 Mo1 S5'
_cell_volume   231.17172645
_cell_formula_units_Z   1
loop_
 _symmetry_equiv_pos_site_id
 _symmetry_equiv_pos_as_xyz
  1  'x, y, z'
loop_
 _atom_site_type_symbol
 _atom_site_label
 _atom_site_symmetry_multiplicity
 _atom_site_fract_x
 _atom_site_fract_y
 _atom_site_fract_z
 _atom_site_occupancy
  Tl  Tl0  1  0.49999994  0.74866395  0.24866395  1
  Tl  Tl1  1  0.49999997  0.24866398  0.74866395  1
  Mo  Mo2  1  -0.00000005  0.99973294  0.99973292  1
  Ag  Ag3  1  -0.00000002  0.28692198  0.28692198  1
  S  S4  1  -0.00000004  0.73011595  0.73011594  1
  S  S5  1  0.38321497  0.18998299  0.18998298  1
  S  S6  1  0.61678493  0.80676795  0.80676793  1
  S  S7  1  -0.00000004  0.80676795  0.18998296  1
  S  S8  1  0.99999995  0.18998299  0.80676795  1
