# generated using pymatgen
data_SrLaTi2O6
_symmetry_space_group_name_H-M   'P 1'
_cell_length_a   5.53596401
_cell_length_b   5.58221388
_cell_length_c   7.82362795
_cell_angle_alpha   90.00000000
_cell_angle_beta   90.00000000
_cell_angle_gamma   90.00000000
_symmetry_Int_Tables_number   1
_chemical_formula_structural   SrLaTi2O6
_chemical_formula_sum   'Sr2 La2 Ti4 O12'
_cell_volume   241.77306706
_cell_formula_units_Z   2
loop_
 _symmetry_equiv_pos_site_id
 _symmetry_equiv_pos_as_xyz
  1  'x, y, z'
loop_
 _atom_site_type_symbol
 _atom_site_label
 _atom_site_symmetry_multiplicity
 _atom_site_fract_x
 _atom_site_fract_y
 _atom_site_fract_z
 _atom_site_occupancy
  Sr  Sr0  1  0.75000000  0.25943901  0.50000000  1
  Sr  Sr1  1  0.25000000  0.74056102  0.50000000  1
  La  La2  1  0.75000000  0.25891001  0.00000000  1
  La  La3  1  0.25000000  0.74109002  -0.00000000  1
  Ti  Ti4  1  0.75000000  0.75107102  0.75772000  1
  Ti  Ti5  1  0.25000000  0.24892901  0.24228000  1
  Ti  Ti6  1  0.75000000  0.75107102  0.24228000  1
  Ti  Ti7  1  0.25000000  0.24892901  0.75772000  1
  O  O8  1  0.00000000  0.50000001  0.75432100  1
  O  O9  1  0.50000000  0.50000001  0.24567900  1
  O  O10  1  0.00000000  0.50000001  0.24567900  1
  O  O11  1  0.50000000  0.50000001  0.75432100  1
  O  O12  1  0.75000000  0.78208602  0.50000000  1
  O  O13  1  0.25000000  0.21791400  0.50000000  1
  O  O14  1  0.75000000  0.67851501  -0.00000000  1
  O  O15  1  0.25000000  0.32148501  0.00000000  1
  O  O16  1  0.50000000  0.00000000  0.80697901  1
  O  O17  1  0.00000000  0.00000000  0.19302100  1
  O  O18  1  0.50000000  0.00000000  0.19302100  1
  O  O19  1  0.00000000  0.00000000  0.80697901  1
