# generated using pymatgen
data_SrSn2
_symmetry_space_group_name_H-M   'P 1'
_cell_length_a   4.63237810
_cell_length_b   8.33019257
_cell_length_c   9.87218380
_cell_angle_alpha   90.00000000
_cell_angle_beta   90.00000000
_cell_angle_gamma   90.00000000
_symmetry_Int_Tables_number   1
_chemical_formula_structural   SrSn2
_chemical_formula_sum   'Sr4 Sn8'
_cell_volume   380.95376779
_cell_formula_units_Z   4
loop_
 _symmetry_equiv_pos_site_id
 _symmetry_equiv_pos_as_xyz
  1  'x, y, z'
loop_
 _atom_site_type_symbol
 _atom_site_label
 _atom_site_symmetry_multiplicity
 _atom_site_fract_x
 _atom_site_fract_y
 _atom_site_fract_z
 _atom_site_occupancy
  Sr  Sr0  1  0.24999999  0.20364101  0.87739102  1
  Sr  Sr1  1  0.74999998  0.79635904  0.12260900  1
  Sr  Sr2  1  0.24999999  0.70364104  0.62260901  1
  Sr  Sr3  1  0.74999998  0.29635902  0.37739101  1
  Sn  Sn4  1  0.24999999  0.96791405  0.33030101  1
  Sn  Sn5  1  0.74999998  0.53208603  0.83030102  1
  Sn  Sn6  1  0.24999999  0.46791402  0.16969900  1
  Sn  Sn7  1  0.74999998  0.03208600  0.66969901  1
  Sn  Sn8  1  0.74999998  0.13963201  0.05817600  1
  Sn  Sn9  1  0.24999999  0.36036802  0.55817601  1
  Sn  Sn10  1  0.74999998  0.63963203  0.44182401  1
  Sn  Sn11  1  0.24999999  0.86036804  0.94182402  1
