# generated using pymatgen
data_Hf9Sn7
_symmetry_space_group_name_H-M   'P 1'
_cell_length_a   5.48836422
_cell_length_b   8.23446751
_cell_length_c   8.23446751
_cell_angle_alpha   83.62361908
_cell_angle_beta   70.53350830
_cell_angle_gamma   70.53350830
_symmetry_Int_Tables_number   1
_chemical_formula_structural   Hf9Sn7
_chemical_formula_sum   'Hf9 Sn7'
_cell_volume   330.81621234
_cell_formula_units_Z   1
loop_
 _symmetry_equiv_pos_site_id
 _symmetry_equiv_pos_as_xyz
  1  'x, y, z'
loop_
 _atom_site_type_symbol
 _atom_site_label
 _atom_site_symmetry_multiplicity
 _atom_site_fract_x
 _atom_site_fract_y
 _atom_site_fract_z
 _atom_site_occupancy
  Hf  Hf0  1  0.42064004  0.85461297  0.30410700  1
  Hf  Hf1  1  0.57935998  0.14538700  0.69589300  1
  Hf  Hf2  1  0.27525301  0.30410699  0.14538700  1
  Hf  Hf3  1  0.72474701  0.69589298  0.85461300  1
  Hf  Hf4  1  0.07936004  0.69589298  0.14538699  1
  Hf  Hf5  1  0.77525297  0.14538700  0.30410702  1
  Hf  Hf6  1  0.25000002  0.49999998  0.49999999  1
  Hf  Hf7  1  0.74999999  0.49999998  0.50000001  1
  Hf  Hf8  1  0.92063997  0.30410699  0.85461301  1
  Sn  Sn9  1  0.22474705  0.85461297  0.69589299  1
  Sn  Sn10  1  0.16537100  0.16925799  0.49999999  1
  Sn  Sn11  1  0.33462902  0.49999998  0.83074199  1
  Sn  Sn12  1  0.66537100  0.49999998  0.16925801  1
  Sn  Sn13  1  0.83462901  0.83074197  0.50000001  1
  Sn  Sn14  1  0.75000003  0.99999997  0.99999999  1
  Sn  Sn15  1  0.25000006  0.99999997  -0.00000000  1
