# generated using pymatgen
data_LiFe3(RuO4)2
_symmetry_space_group_name_H-M   'P 1'
_cell_length_a   5.01244020
_cell_length_b   5.53172541
_cell_length_c   6.95358849
_cell_angle_alpha   96.60729980
_cell_angle_beta   111.12606049
_cell_angle_gamma   90.00000000
_symmetry_Int_Tables_number   1
_chemical_formula_structural   LiFe3(RuO4)2
_chemical_formula_sum   'Li1 Fe3 Ru2 O8'
_cell_volume   178.47318278
_cell_formula_units_Z   1
loop_
 _symmetry_equiv_pos_site_id
 _symmetry_equiv_pos_as_xyz
  1  'x, y, z'
loop_
 _atom_site_type_symbol
 _atom_site_label
 _atom_site_symmetry_multiplicity
 _atom_site_fract_x
 _atom_site_fract_y
 _atom_site_fract_z
 _atom_site_occupancy
  Li  Li0  1  0.41264998  0.57845601  0.22864299  1
  Fe  Fe1  1  0.18400698  0.92154402  0.77135698  1
  Fe  Fe2  1  0.58734997  0.42154401  0.77135702  1
  Fe  Fe3  1  0.81599297  0.07845600  0.22864302  1
  Ru  Ru4  1  0.99507596  0.58052901  0.80808102  1
  O  O5  1  0.18699498  0.91947102  0.19191896  1
  O  O6  1  0.64156998  0.31486301  0.42440901  1
  Ru  Ru7  1  0.21716099  0.18513700  0.57559102  1
  O  O8  1  0.35842998  0.68513702  0.57559099  1
  O  O9  1  0.78283896  0.81486302  0.42440899  1
  O  O10  1  0.81300498  0.08052900  0.80808104  1
  O  O11  1  0.00492399  0.41947101  0.19191899  1
  O  O12  1  0.56866997  0.75000002  -0.00000002  1
  O  O13  1  0.43132998  0.25000001  -0.00000000  1
