# generated using pymatgen
data_U6Sn11
_symmetry_space_group_name_H-M   'P 1'
_cell_length_a   8.34855938
_cell_length_b   8.34855938
_cell_length_c   8.34855938
_cell_angle_alpha   108.38517761
_cell_angle_beta   110.01696014
_cell_angle_gamma   110.01696014
_symmetry_Int_Tables_number   1
_chemical_formula_structural   U6Sn11
_chemical_formula_sum   'U6 Sn11'
_cell_volume   447.81219127
_cell_formula_units_Z   1
loop_
 _symmetry_equiv_pos_site_id
 _symmetry_equiv_pos_as_xyz
  1  'x, y, z'
loop_
 _atom_site_type_symbol
 _atom_site_label
 _atom_site_symmetry_multiplicity
 _atom_site_fract_x
 _atom_site_fract_y
 _atom_site_fract_z
 _atom_site_occupancy
  U  U0  1  0.38079110  0.69039607  0.69039612  1
  U  U1  1  0.61920907  0.30960403  0.30960407  1
  U  U2  1  0.00000009  0.69039507  0.30960509  1
  U  U3  1  0.00000004  0.30960503  0.69039506  1
  U  U4  1  0.75390916  0.96615710  0.21224815  1
  U  U5  1  0.24609102  0.03384300  0.78775204  1
  Sn  Sn6  1  0.24609107  0.45833905  0.21224807  1
  Sn  Sn7  1  0.24609104  0.21224802  0.45833905  1
  Sn  Sn8  1  0.75390910  0.54166106  0.78775212  1
  Sn  Sn9  1  0.75390913  0.78775209  0.54166114  1
  Sn  Sn10  1  0.75390906  0.21224802  0.96615709  1
  Sn  Sn11  1  0.24609111  0.78775209  0.03384310  1
  Sn  Sn12  1  1.00000009  0.38080904  0.38080910  1
  Sn  Sn13  1  1.00000012  0.61919107  0.61919113  1
  Sn  Sn14  1  0.00000000  0.00000000  0.00000000  1
  Sn  Sn15  1  0.50000009  0.50000005  1.00000011  1
  Sn  Sn16  1  0.50000002  0.00000000  0.50000004  1
