# generated using pymatgen
data_TmFeO3
_symmetry_space_group_name_H-M   'P 1'
_cell_length_a   5.32805490
_cell_length_b   5.69245100
_cell_length_c   7.67449522
_cell_angle_alpha   90.00000000
_cell_angle_beta   90.00000000
_cell_angle_gamma   90.00000000
_symmetry_Int_Tables_number   1
_chemical_formula_structural   TmFeO3
_chemical_formula_sum   'Tm4 Fe4 O12'
_cell_volume   232.76507224
_cell_formula_units_Z   4
loop_
 _symmetry_equiv_pos_site_id
 _symmetry_equiv_pos_as_xyz
  1  'x, y, z'
loop_
 _atom_site_type_symbol
 _atom_site_label
 _atom_site_symmetry_multiplicity
 _atom_site_fract_x
 _atom_site_fract_y
 _atom_site_fract_z
 _atom_site_occupancy
  Tm  Tm0  1  0.48082701  0.42808900  0.74999998  1
  Tm  Tm1  1  0.01917300  0.92808900  0.74999998  1
  Tm  Tm2  1  0.98082702  0.07191100  0.24999999  1
  Tm  Tm3  1  0.51917301  0.57191100  0.24999999  1
  Fe  Fe4  1  0.50000001  0.00000000  0.00000000  1
  Fe  Fe5  1  0.00000000  0.50000000  0.00000000  1
  Fe  Fe6  1  0.00000000  0.50000000  0.49999999  1
  Fe  Fe7  1  0.50000001  0.00000000  0.49999999  1
  O  O8  1  0.37870301  0.95374400  0.24999999  1
  O  O9  1  0.31321701  0.69533300  0.94062897  1
  O  O10  1  0.31321701  0.69533300  0.55937098  1
  O  O11  1  0.18678300  0.19533300  0.94062897  1
  O  O12  1  0.18678300  0.19533300  0.55937098  1
  O  O13  1  0.12129700  0.45374400  0.24999999  1
  O  O14  1  0.87870302  0.54625600  0.74999998  1
  O  O15  1  0.81321701  0.80466700  0.44062899  1
  O  O16  1  0.81321701  0.80466700  0.05937100  1
  O  O17  1  0.68678301  0.30466700  0.44062899  1
  O  O18  1  0.68678301  0.30466700  0.05937100  1
  O  O19  1  0.62129701  0.04625600  0.74999998  1
