# generated using pymatgen
data_NaTaSe2
_symmetry_space_group_name_H-M   'P 1'
_cell_length_a   3.76722074
_cell_length_b   3.76722074
_cell_length_c   7.76380110
_cell_angle_alpha   75.95909119
_cell_angle_beta   75.95909119
_cell_angle_gamma   59.99998856
_symmetry_Int_Tables_number   1
_chemical_formula_structural   NaTaSe2
_chemical_formula_sum   'Na1 Ta1 Se2'
_cell_volume   91.60072700
_cell_formula_units_Z   1
loop_
 _symmetry_equiv_pos_site_id
 _symmetry_equiv_pos_as_xyz
  1  'x, y, z'
loop_
 _atom_site_type_symbol
 _atom_site_label
 _atom_site_symmetry_multiplicity
 _atom_site_fract_x
 _atom_site_fract_y
 _atom_site_fract_z
 _atom_site_occupancy
  Na  Na0  1  0.50000002  0.49999999  0.49999996  1
  Ta  Ta1  1  0.00000000  0.00000000  0.00000000  1
  Se  Se2  1  0.73363303  0.73363299  0.79910095  1
  Se  Se3  1  0.26636701  0.26636700  0.20089898  1
