# generated using pymatgen
data_BiTePt
_symmetry_space_group_name_H-M   'P 1'
_cell_length_a   6.61811590
_cell_length_b   6.61811590
_cell_length_c   6.61811590
_cell_angle_alpha   90.00000000
_cell_angle_beta   90.00000000
_cell_angle_gamma   90.00000000
_symmetry_Int_Tables_number   1
_chemical_formula_structural   BiTePt
_chemical_formula_sum   'Bi4 Te4 Pt4'
_cell_volume   289.86989009
_cell_formula_units_Z   4
loop_
 _symmetry_equiv_pos_site_id
 _symmetry_equiv_pos_as_xyz
  1  'x, y, z'
loop_
 _atom_site_type_symbol
 _atom_site_label
 _atom_site_symmetry_multiplicity
 _atom_site_fract_x
 _atom_site_fract_y
 _atom_site_fract_z
 _atom_site_occupancy
  Bi  Bi0  1  0.13075100  0.86924901  0.36924901  1
  Bi  Bi1  1  0.86924901  0.36924901  0.13075100  1
  Bi  Bi2  1  0.36924901  0.13075100  0.86924901  1
  Bi  Bi3  1  0.63075101  0.63075101  0.63075101  1
  Te  Te4  1  0.87342701  0.12657300  0.62657301  1
  Te  Te5  1  0.12657300  0.62657301  0.87342701  1
  Te  Te6  1  0.62657301  0.87342701  0.12657300  1
  Te  Te7  1  0.37342701  0.37342701  0.37342701  1
  Pt  Pt8  1  0.49362101  0.50637901  0.00637900  1
  Pt  Pt9  1  0.50637901  0.00637900  0.49362101  1
  Pt  Pt10  1  0.00637900  0.49362101  0.50637901  1
  Pt  Pt11  1  0.99362101  0.99362101  0.99362101  1
