# generated using pymatgen
data_K2P2O3
_symmetry_space_group_name_H-M   'P 1'
_cell_length_a   4.97801208
_cell_length_b   6.38425541
_cell_length_c   8.81559467
_cell_angle_alpha   90.00000000
_cell_angle_beta   90.00000000
_cell_angle_gamma   110.38356018
_symmetry_Int_Tables_number   1
_chemical_formula_structural   K2P2O3
_chemical_formula_sum   'K4 P4 O6'
_cell_volume   262.62399755
_cell_formula_units_Z   2
loop_
 _symmetry_equiv_pos_site_id
 _symmetry_equiv_pos_as_xyz
  1  'x, y, z'
loop_
 _atom_site_type_symbol
 _atom_site_label
 _atom_site_symmetry_multiplicity
 _atom_site_fract_x
 _atom_site_fract_y
 _atom_site_fract_z
 _atom_site_occupancy
  K  K0  1  0.70754799  0.92760102  0.34803301  1
  K  K1  1  0.20754800  0.42760101  0.15196701  1
  K  K2  1  0.79245198  0.57239901  0.84803303  1
  K  K3  1  0.29245199  0.07239900  0.65196702  1
  P  P4  1  0.20090300  0.50279701  0.50686802  1
  P  P5  1  0.29909699  0.99720302  0.00686800  1
  P  P6  1  0.70090299  0.00279700  0.99313204  1
  P  P7  1  0.79909698  0.49720301  0.49313202  1
  O  O8  1  0.49999999  0.50000001  0.50000002  1
  O  O9  1  0.00000000  0.00000000  0.00000000  1
  O  O10  1  0.41223899  0.80804901  0.94930304  1
  O  O11  1  0.08776100  0.69195101  0.44930302  1
  O  O12  1  0.91223898  0.30804901  0.55069702  1
  O  O13  1  0.58776099  0.19195100  0.05069700  1
