# generated using pymatgen
data_Zr8Ti2AlSn2Sb3
_symmetry_space_group_name_H-M   'P 1'
_cell_length_a   5.58649921
_cell_length_b   8.19677830
_cell_length_c   8.19677734
_cell_angle_alpha   83.33136749
_cell_angle_beta   70.07595825
_cell_angle_gamma   70.07595062
_symmetry_Int_Tables_number   1
_chemical_formula_structural   Zr8Ti2AlSn2Sb3
_chemical_formula_sum   'Zr8 Ti2 Al1 Sn2 Sb3'
_cell_volume   331.75381896
_cell_formula_units_Z   1
loop_
 _symmetry_equiv_pos_site_id
 _symmetry_equiv_pos_as_xyz
  1  'x, y, z'
loop_
 _atom_site_type_symbol
 _atom_site_label
 _atom_site_symmetry_multiplicity
 _atom_site_fract_x
 _atom_site_fract_y
 _atom_site_fract_z
 _atom_site_occupancy
  Zr  Zr0  1  0.19973791  0.87055299  0.72997003  1
  Zr  Zr1  1  0.80026197  0.12944700  0.27002999  1
  Zr  Zr2  1  0.07029093  0.72996999  0.12944701  1
  Zr  Zr3  1  0.69973892  0.72996999  0.87055302  1
  Zr  Zr4  1  0.92970895  0.27003000  0.87055301  1
  Zr  Zr5  1  0.30026097  0.27003000  0.12944700  1
  Zr  Zr6  1  0.57029197  0.12944700  0.72997001  1
  Zr  Zr7  1  0.42970791  0.87055299  0.27003000  1
  Ti  Ti8  1  0.24999995  0.49999999  0.50000002  1
  Ti  Ti9  1  0.74999994  0.49999999  0.50000000  1
  Sn  Sn10  1  0.74999998  0.00000000  -0.00000002  1
  Al  Al11  1  0.24999999  0.00000000  -0.00000001  1
  Sn  Sn12  1  0.66401694  0.49999999  0.17196599  1
  Sb  Sb13  1  0.33598295  0.49999999  0.82803402  1
  Sb  Sb14  1  0.16401698  0.17196600  0.50000002  1
  Sb  Sb15  1  0.83598290  0.82803399  0.50000000  1
