# generated using pymatgen
data_ErRu2
_symmetry_space_group_name_H-M   'P 1'
_cell_length_a   5.43369198
_cell_length_b   5.43369246
_cell_length_c   8.83129501
_cell_angle_alpha   90.00000000
_cell_angle_beta   90.00000000
_cell_angle_gamma   120.00000000
_symmetry_Int_Tables_number   1
_chemical_formula_structural   ErRu2
_chemical_formula_sum   'Er4 Ru8'
_cell_volume   225.81100008
_cell_formula_units_Z   4
loop_
 _symmetry_equiv_pos_site_id
 _symmetry_equiv_pos_as_xyz
  1  'x, y, z'
loop_
 _atom_site_type_symbol
 _atom_site_label
 _atom_site_symmetry_multiplicity
 _atom_site_fract_x
 _atom_site_fract_y
 _atom_site_fract_z
 _atom_site_occupancy
  Er  Er0  1  0.66666669  0.33333335  0.56282900  1
  Er  Er1  1  0.33333338  0.66666671  0.43717100  1
  Er  Er2  1  0.33333338  0.66666671  0.06282900  1
  Er  Er3  1  0.66666669  0.33333335  0.93717100  1
  Ru  Ru4  1  0.00000000  0.00000000  0.50000000  1
  Ru  Ru5  1  0.00000000  0.00000000  0.00000000  1
  Ru  Ru6  1  0.17157303  0.34314602  0.75000000  1
  Ru  Ru7  1  0.17157306  0.82842805  0.75000000  1
  Ru  Ru8  1  0.65685506  0.82842805  0.75000000  1
  Ru  Ru9  1  0.82842705  0.65685404  0.25000000  1
  Ru  Ru10  1  0.82842702  0.17157201  0.25000000  1
  Ru  Ru11  1  0.34314501  0.17157201  0.25000000  1
