# generated using pymatgen
data_HoCoGe2
_symmetry_space_group_name_H-M   'P 1'
_cell_length_a   4.02664185
_cell_length_b   4.17172098
_cell_length_c   8.56729507
_cell_angle_alpha   90.00000000
_cell_angle_beta   103.59166718
_cell_angle_gamma   90.00000000
_symmetry_Int_Tables_number   1
_chemical_formula_structural   HoCoGe2
_chemical_formula_sum   'Ho2 Co2 Ge4'
_cell_volume   139.88337314
_cell_formula_units_Z   2
loop_
 _symmetry_equiv_pos_site_id
 _symmetry_equiv_pos_as_xyz
  1  'x, y, z'
loop_
 _atom_site_type_symbol
 _atom_site_label
 _atom_site_symmetry_multiplicity
 _atom_site_fract_x
 _atom_site_fract_y
 _atom_site_fract_z
 _atom_site_occupancy
  Ho  Ho0  1  0.89206303  0.25000000  0.78412604  1
  Ho  Ho1  1  0.10793700  0.75000000  0.21587401  1
  Co  Co2  1  0.67725102  0.25000000  0.35450201  1
  Co  Co3  1  0.32274901  0.75000000  0.64549803  1
  Ge  Ge4  1  0.54052702  0.25000000  0.08105400  1
  Ge  Ge5  1  0.45947302  0.75000000  0.91894605  1
  Ge  Ge6  1  0.25307701  0.25000000  0.50615402  1
  Ge  Ge7  1  0.74692303  0.75000000  0.49384602  1
