# generated using pymatgen
data_Al2Zn5Ge
_symmetry_space_group_name_H-M   'P 1'
_cell_length_a   3.94175291
_cell_length_b   5.53443909
_cell_length_c   5.53443909
_cell_angle_alpha   90.00000000
_cell_angle_beta   90.00000000
_cell_angle_gamma   90.00000000
_symmetry_Int_Tables_number   1
_chemical_formula_structural   Al2Zn5Ge
_chemical_formula_sum   'Al2 Zn5 Ge1'
_cell_volume   120.73595475
_cell_formula_units_Z   1
loop_
 _symmetry_equiv_pos_site_id
 _symmetry_equiv_pos_as_xyz
  1  'x, y, z'
loop_
 _atom_site_type_symbol
 _atom_site_label
 _atom_site_symmetry_multiplicity
 _atom_site_fract_x
 _atom_site_fract_y
 _atom_site_fract_z
 _atom_site_occupancy
  Al  Al0  1  0.50000001  0.00000000  0.49999999  1
  Al  Al1  1  0.50000001  0.49999999  0.00000000  1
  Zn  Zn2  1  0.00000000  0.76308599  0.26308600  1
  Zn  Zn3  1  1.00000002  0.23691400  0.73691399  1
  Zn  Zn4  1  -0.00000000  0.26308600  0.23691400  1
  Zn  Zn5  1  -0.00000000  0.73691399  0.76308599  1
  Zn  Zn6  1  0.50000001  0.49999999  0.49999999  1
  Ge  Ge7  1  0.50000001  0.00000000  0.00000000  1
