# generated using pymatgen
data_EuAl6Pd
_symmetry_space_group_name_H-M   'P 1'
_cell_length_a   4.45501089
_cell_length_b   4.45501089
_cell_length_c   7.89451790
_cell_angle_alpha   90.00000000
_cell_angle_beta   90.00000000
_cell_angle_gamma   90.00000000
_symmetry_Int_Tables_number   1
_chemical_formula_structural   EuAl6Pd
_chemical_formula_sum   'Eu1 Al6 Pd1'
_cell_volume   156.68346017
_cell_formula_units_Z   1
loop_
 _symmetry_equiv_pos_site_id
 _symmetry_equiv_pos_as_xyz
  1  'x, y, z'
loop_
 _atom_site_type_symbol
 _atom_site_label
 _atom_site_symmetry_multiplicity
 _atom_site_fract_x
 _atom_site_fract_y
 _atom_site_fract_z
 _atom_site_occupancy
  Eu  Eu0  1  0.00000000  0.00000000  0.00000000  1
  Al  Al1  1  0.50000001  0.50000001  0.15200400  1
  Al  Al2  1  0.00000000  0.50000001  0.67353501  1
  Al  Al3  1  0.50000001  0.50000001  0.84799601  1
  Al  Al4  1  0.50000001  0.00000000  0.67353501  1
  Al  Al5  1  0.00000000  0.50000001  0.32646500  1
  Al  Al6  1  0.50000001  0.00000000  0.32646500  1
  Pd  Pd7  1  0.00000000  0.00000000  0.50000001  1
