# generated using pymatgen
data_SrEu7Ge4
_symmetry_space_group_name_H-M   'P 1'
_cell_length_a   4.81225014
_cell_length_b   8.47264481
_cell_length_c   9.80553055
_cell_angle_alpha   90.00000000
_cell_angle_beta   90.00000000
_cell_angle_gamma   90.00000000
_symmetry_Int_Tables_number   1
_chemical_formula_structural   SrEu7Ge4
_chemical_formula_sum   'Sr1 Eu7 Ge4'
_cell_volume   399.79585828
_cell_formula_units_Z   1
loop_
 _symmetry_equiv_pos_site_id
 _symmetry_equiv_pos_as_xyz
  1  'x, y, z'
loop_
 _atom_site_type_symbol
 _atom_site_label
 _atom_site_symmetry_multiplicity
 _atom_site_fract_x
 _atom_site_fract_y
 _atom_site_fract_z
 _atom_site_occupancy
  Sr  Sr0  1  0.74999998  0.22622301  0.87198804  1
  Eu  Eu1  1  0.24999999  0.77377702  0.12801201  1
  Eu  Eu2  1  0.74999998  0.72622302  0.62801203  1
  Eu  Eu3  1  0.24999999  0.27377701  0.37198802  1
  Eu  Eu4  1  0.74999998  0.97341702  0.33305402  1
  Eu  Eu5  1  0.24999999  0.02658300  0.66694603  1
  Eu  Eu6  1  0.74999998  0.47341701  0.16694601  1
  Eu  Eu7  1  0.24999999  0.52658301  0.83305404  1
  Ge  Ge8  1  0.24999999  0.14490100  0.06469600  1
  Ge  Ge9  1  0.74999998  0.85509902  0.93530404  1
  Ge  Ge10  1  0.24999999  0.64490101  0.43530402  1
  Ge  Ge11  1  0.74999998  0.35509901  0.56469603  1
