# generated using pymatgen
data_CaAl3(GeRh)2
_symmetry_space_group_name_H-M   'P 1'
_cell_length_a   4.09172297
_cell_length_b   4.09172297
_cell_length_c   9.10242176
_cell_angle_alpha   90.00000000
_cell_angle_beta   90.00000000
_cell_angle_gamma   90.00000000
_symmetry_Int_Tables_number   1
_chemical_formula_structural   CaAl3(GeRh)2
_chemical_formula_sum   'Ca1 Al3 Ge2 Rh2'
_cell_volume   152.39453669
_cell_formula_units_Z   1
loop_
 _symmetry_equiv_pos_site_id
 _symmetry_equiv_pos_as_xyz
  1  'x, y, z'
loop_
 _atom_site_type_symbol
 _atom_site_label
 _atom_site_symmetry_multiplicity
 _atom_site_fract_x
 _atom_site_fract_y
 _atom_site_fract_z
 _atom_site_occupancy
  Ca  Ca0  1  0.00000000  0.50000000  0.86503502  1
  Al  Al1  1  0.50000000  0.00000000  0.13496500  1
  Al  Al2  1  0.50000000  0.50000000  0.50000001  1
  Al  Al3  1  0.00000000  0.00000000  0.50000001  1
  Ge  Ge4  1  0.00000000  0.50000000  0.30695901  1
  Rh  Rh5  1  0.50000000  0.00000000  0.69304102  1
  Rh  Rh6  1  0.00000000  0.00000000  0.00000000  1
  Ge  Ge7  1  0.50000000  0.50000000  0.00000000  1
