# generated using pymatgen
data_Sr3(PN)2
_symmetry_space_group_name_H-M   'P 1'
_cell_length_a   3.91316009
_cell_length_b   9.10316181
_cell_length_c   9.69573498
_cell_angle_alpha   112.55982208
_cell_angle_beta   90.00000000
_cell_angle_gamma   90.00000000
_symmetry_Int_Tables_number   1
_chemical_formula_structural   Sr3(PN)2
_chemical_formula_sum   'Sr6 P4 N4'
_cell_volume   318.95385801
_cell_formula_units_Z   2
loop_
 _symmetry_equiv_pos_site_id
 _symmetry_equiv_pos_as_xyz
  1  'x, y, z'
loop_
 _atom_site_type_symbol
 _atom_site_label
 _atom_site_symmetry_multiplicity
 _atom_site_fract_x
 _atom_site_fract_y
 _atom_site_fract_z
 _atom_site_occupancy
  Sr  Sr0  1  0.74999998  0.11875100  0.35316199  1
  Sr  Sr1  1  0.24999999  0.88124901  0.64683796  1
  Sr  Sr2  1  0.74999998  0.51894700  0.66964598  1
  Sr  Sr3  1  0.24999999  0.48105300  0.33035398  1
  Sr  Sr4  1  0.74999998  0.31760900  0.94347598  1
  Sr  Sr5  1  0.24999999  0.68239101  0.05652398  1
  P  P6  1  0.74999998  0.91417701  0.94299996  1
  P  P7  1  0.24999999  0.08582300  0.05700000  1
  P  P8  1  0.24999999  0.24132600  0.65057798  1
  P  P9  1  0.74999998  0.75867401  0.34942197  1
  N  N10  1  0.74999998  0.57015200  0.17398498  1
  N  N11  1  0.24999999  0.42984800  0.82601498  1
  N  N12  1  0.74999998  0.68483701  0.50829597  1
  N  N13  1  0.24999999  0.31516300  0.49170398  1
