# generated using pymatgen
data_LuMg2Ni9
_symmetry_space_group_name_H-M   'P 1'
_cell_length_a   4.87533236
_cell_length_b   4.87533236
_cell_length_c   8.33931828
_cell_angle_alpha   73.00369263
_cell_angle_beta   73.00369263
_cell_angle_gamma   59.99999619
_symmetry_Int_Tables_number   1
_chemical_formula_structural   LuMg2Ni9
_chemical_formula_sum   'Lu1 Mg2 Ni9'
_cell_volume   161.58624731
_cell_formula_units_Z   1
loop_
 _symmetry_equiv_pos_site_id
 _symmetry_equiv_pos_as_xyz
  1  'x, y, z'
loop_
 _atom_site_type_symbol
 _atom_site_label
 _atom_site_symmetry_multiplicity
 _atom_site_fract_x
 _atom_site_fract_y
 _atom_site_fract_z
 _atom_site_occupancy
  Lu  Lu0  1  0.00000000  0.00000000  0.00000000  1
  Mg  Mg1  1  0.14411000  0.14411000  0.56767002  1
  Mg  Mg2  1  0.85588999  0.85588999  0.43233002  1
  Ni  Ni3  1  0.33348500  0.33348500  0.99954504  1
  Ni  Ni4  1  0.91752399  0.41388299  0.25471001  1
  Ni  Ni5  1  0.58611699  0.58611699  0.74529003  1
  Ni  Ni6  1  0.41388299  0.91752399  0.25471001  1
  Ni  Ni7  1  0.08247600  0.58611699  0.74529003  1
  Ni  Ni8  1  0.66651499  0.66651499  0.00045500  1
  Ni  Ni9  1  0.49999999  0.49999999  0.50000002  1
  Ni  Ni10  1  0.58611699  0.08247600  0.74529003  1
  Ni  Ni11  1  0.41388299  0.41388299  0.25471001  1
