# generated using pymatgen
data_Nd2Ge6Rh
_symmetry_space_group_name_H-M   'P 1'
_cell_length_a   4.02662182
_cell_length_b   4.19604206
_cell_length_c   11.32640648
_cell_angle_alpha   90.00000000
_cell_angle_beta   100.23895264
_cell_angle_gamma   90.00000000
_symmetry_Int_Tables_number   1
_chemical_formula_structural   Nd2Ge6Rh
_chemical_formula_sum   'Nd2 Ge6 Rh1'
_cell_volume   188.32198052
_cell_formula_units_Z   1
loop_
 _symmetry_equiv_pos_site_id
 _symmetry_equiv_pos_as_xyz
  1  'x, y, z'
loop_
 _atom_site_type_symbol
 _atom_site_label
 _atom_site_symmetry_multiplicity
 _atom_site_fract_x
 _atom_site_fract_y
 _atom_site_fract_z
 _atom_site_occupancy
  Nd  Nd0  1  0.77879503  0.49999999  0.55758898  1
  Nd  Nd1  1  0.11545300  0.49999999  0.23090699  1
  Ge  Ge2  1  0.49613802  0.49999999  0.99227697  1
  Ge  Ge3  1  0.38408002  0.49999999  0.76815998  1
  Ge  Ge4  1  0.99351604  0.00000000  0.98703097  1
  Ge  Ge5  1  0.88095904  0.00000000  0.76191797  1
  Ge  Ge6  1  0.66596903  0.00000000  0.33193799  1
  Ge  Ge7  1  0.23599501  0.00000000  0.47198999  1
  Rh  Rh8  1  0.55609502  0.00000000  0.11218899  1
