# generated using pymatgen
data_Sr2TaWO6
_symmetry_space_group_name_H-M   'P 1'
_cell_length_a   5.67717075
_cell_length_b   5.69436264
_cell_length_c   9.84504318
_cell_angle_alpha   73.85986328
_cell_angle_beta   73.74413300
_cell_angle_gamma   60.48881912
_symmetry_Int_Tables_number   1
_chemical_formula_structural   Sr2TaWO6
_chemical_formula_sum   'Sr4 Ta2 W2 O12'
_cell_volume   262.13854415
_cell_formula_units_Z   2
loop_
 _symmetry_equiv_pos_site_id
 _symmetry_equiv_pos_as_xyz
  1  'x, y, z'
loop_
 _atom_site_type_symbol
 _atom_site_label
 _atom_site_symmetry_multiplicity
 _atom_site_fract_x
 _atom_site_fract_y
 _atom_site_fract_z
 _atom_site_occupancy
  Sr  Sr0  1  0.37691100  0.36895000  0.88265897  1
  Sr  Sr1  1  0.87843701  0.87387199  0.36609897  1
  Sr  Sr2  1  0.62045301  0.62444400  0.12232198  1
  Sr  Sr3  1  0.12413300  0.12956900  0.62842398  1
  Ta  Ta4  1  0.25095900  0.24857300  0.24880499  1
  Ta  Ta5  1  0.74826601  0.74903100  0.75331597  1
  W  W6  1  0.49871300  0.50236500  0.50236798  1
  W  W7  1  0.00063600  0.99658799  0.99841995  1
  O  O8  1  0.87475701  0.37358500  0.86547197  1
  O  O9  1  0.37158500  0.85782899  0.37832897  1
  O  O10  1  0.13057300  0.62798900  0.12607698  1
  O  O11  1  0.61862301  0.14638200  0.63132998  1
  O  O12  1  0.40093600  0.89474999  0.89135296  1
  O  O13  1  0.87305501  0.40454600  0.40725198  1
  O  O14  1  0.61636001  0.08530700  0.09954700  1
  O  O15  1  0.11176600  0.61243400  0.60155997  1
  O  O16  1  0.05391100  0.14860300  0.13284499  1
  O  O17  1  0.55797200  0.65982300  0.63813197  1
  O  O18  1  0.94735701  0.84941799  0.85484896  1
  O  O19  1  0.44459800  0.34594000  0.37084098  1
