# generated using pymatgen
data_Na2LiVF8
_symmetry_space_group_name_H-M   'P 1'
_cell_length_a   5.49547577
_cell_length_b   5.49547577
_cell_length_c   6.64265251
_cell_angle_alpha   114.43437195
_cell_angle_beta   114.43437195
_cell_angle_gamma   90.00000000
_symmetry_Int_Tables_number   1
_chemical_formula_structural   Na2LiVF8
_chemical_formula_sum   'Na2 Li1 V1 F8'
_cell_volume   162.70260969
_cell_formula_units_Z   1
loop_
 _symmetry_equiv_pos_site_id
 _symmetry_equiv_pos_as_xyz
  1  'x, y, z'
loop_
 _atom_site_type_symbol
 _atom_site_label
 _atom_site_symmetry_multiplicity
 _atom_site_fract_x
 _atom_site_fract_y
 _atom_site_fract_z
 _atom_site_occupancy
  Na  Na0  1  0.74999997  0.75000001  0.49999991  1
  Na  Na1  1  0.24999999  0.25000000  0.49999997  1
  Li  Li2  1  -0.00000003  0.50000000  -0.00000003  1
  V  V3  1  0.49999995  1.00000001  0.99999990  1
  F  F4  1  0.93781497  0.81840101  0.25621590  1
  F  F5  1  0.68159998  0.56218600  0.74378593  1
  F  F6  1  0.06218499  0.18159900  0.74378398  1
  F  F7  1  0.56218501  0.06218500  0.74378497  1
  F  F8  1  0.31839998  0.43781400  0.25621395  1
  F  F9  1  0.81840000  0.31840000  0.25621494  1
  F  F10  1  0.43781496  0.93781501  0.25621491  1
  F  F11  1  0.18159997  0.68160001  0.74378494  1
