# generated using pymatgen
data_Li4Fe(CoO4)2
_symmetry_space_group_name_H-M   'P 1'
_cell_length_a   5.61588287
_cell_length_b   5.77150297
_cell_length_c   5.70295095
_cell_angle_alpha   61.10713196
_cell_angle_beta   88.71767426
_cell_angle_gamma   118.38941193
_symmetry_Int_Tables_number   1
_chemical_formula_structural   Li4Fe(CoO4)2
_chemical_formula_sum   'Li4 Fe1 Co2 O8'
_cell_volume   134.53032878
_cell_formula_units_Z   1
loop_
 _symmetry_equiv_pos_site_id
 _symmetry_equiv_pos_as_xyz
  1  'x, y, z'
loop_
 _atom_site_type_symbol
 _atom_site_label
 _atom_site_symmetry_multiplicity
 _atom_site_fract_x
 _atom_site_fract_y
 _atom_site_fract_z
 _atom_site_occupancy
  Li  Li0  1  -0.00000003  0.49999999  0.50000000  1
  Li  Li1  1  0.49999999  0.49999999  0.00000001  1
  Li  Li2  1  0.00000000  0.00000000  0.50000000  1
  Li  Li3  1  0.49999999  0.49999999  0.50000001  1
  Co  Co4  1  0.00000000  0.00000000  0.00000000  1
  Fe  Fe5  1  -0.00000003  0.49999999  -0.00000000  1
  Co  Co6  1  0.50000002  0.00000000  0.00000001  1
  O  O7  1  0.72686400  0.45372799  0.77313602  1
  O  O8  1  0.25219201  0.00000000  0.77845601  1
  O  O9  1  0.22275298  0.44550599  0.77724700  1
  O  O10  1  0.75766197  0.99999998  0.77691401  1
  O  O11  1  0.24233801  0.00000000  0.22308601  1
  O  O12  1  0.77724700  0.55449399  0.22275302  1
  O  O13  1  0.74780797  0.99999998  0.22154401  1
  O  O14  1  0.27313598  0.54627199  0.22686400  1
