# generated using pymatgen
data_MnV2O7
_symmetry_space_group_name_H-M   'P 1'
_cell_length_a   6.44540834
_cell_length_b   6.44540834
_cell_length_c   6.46827269
_cell_angle_alpha   109.29393005
_cell_angle_beta   109.17558289
_cell_angle_gamma   109.80281830
_symmetry_Int_Tables_number   1
_chemical_formula_structural   MnV2O7
_chemical_formula_sum   'Mn2 V4 O14'
_cell_volume   207.21035607
_cell_formula_units_Z   2
loop_
 _symmetry_equiv_pos_site_id
 _symmetry_equiv_pos_as_xyz
  1  'x, y, z'
loop_
 _atom_site_type_symbol
 _atom_site_label
 _atom_site_symmetry_multiplicity
 _atom_site_fract_x
 _atom_site_fract_y
 _atom_site_fract_z
 _atom_site_occupancy
  Mn  Mn0  1  0.00000000  0.00000000  0.00000000  1
  Mn  Mn1  1  0.00000000  0.00000000  0.49999999  1
  V  V2  1  0.50000003  0.50000002  0.50000003  1
  V  V3  1  0.50000003  0.50000002  0.00000003  1
  V  V4  1  0.49999999  0.00000000  0.49999999  1
  V  V5  1  0.00000004  0.50000002  0.50000003  1
  O  O6  1  0.50000007  1.00000003  0.00000007  1
  O  O7  1  0.00000004  0.50000002  1.00000003  1
  O  O8  1  0.17246502  0.30614601  0.47861102  1
  O  O9  1  0.82753504  0.69385402  0.52138904  1
  O  O10  1  0.17262005  0.69205002  0.86467004  1
  O  O11  1  0.82738001  0.30795001  0.13533002  1
  O  O12  1  0.31028400  0.13649600  0.83145700  1
  O  O13  1  0.68971605  0.86350403  0.16854306  1
  O  O14  1  0.69496103  0.52117302  0.83145702  1
  O  O15  1  0.30503903  0.47882702  0.16854303  1
  O  O16  1  0.51824305  0.83000503  0.69448305  1
  O  O17  1  0.48175700  0.16999501  0.30551701  1
  O  O18  1  0.13552206  0.82376003  0.30551706  1
  O  O19  1  0.86447800  0.17624001  0.69448300  1
