# generated using pymatgen
data_Al2FeCo5
_symmetry_space_group_name_H-M   'P 1'
_cell_length_a   4.60313225
_cell_length_b   4.60313225
_cell_length_c   4.60313272
_cell_angle_alpha   89.93544006
_cell_angle_beta   89.93544006
_cell_angle_gamma   89.93544769
_symmetry_Int_Tables_number   1
_chemical_formula_structural   Al2FeCo5
_chemical_formula_sum   'Al2 Fe1 Co5'
_cell_volume   97.53479503
_cell_formula_units_Z   1
loop_
 _symmetry_equiv_pos_site_id
 _symmetry_equiv_pos_as_xyz
  1  'x, y, z'
loop_
 _atom_site_type_symbol
 _atom_site_label
 _atom_site_symmetry_multiplicity
 _atom_site_fract_x
 _atom_site_fract_y
 _atom_site_fract_z
 _atom_site_occupancy
  Al  Al0  1  0.25004896  1.00000000  0.74995101  1
  Al  Al1  1  0.74995099  0.25004900  -0.00000000  1
  Fe  Fe2  1  -0.00000003  0.74995100  0.25004900  1
  Co  Co3  1  0.25014898  0.50000000  0.74985102  1
  Co  Co4  1  0.74985099  0.25014900  0.50000001  1
  Co  Co5  1  0.49999997  0.74985100  0.25014900  1
  Co  Co6  1  0.74965896  0.74965900  0.74965901  1
  Co  Co7  1  0.25034099  0.25034100  0.25034100  1
