# generated using pymatgen
data_LiNbO3
_symmetry_space_group_name_H-M   'P 1'
_cell_length_a   5.50359440
_cell_length_b   5.67621088
_cell_length_c   7.86924410
_cell_angle_alpha   90.00036621
_cell_angle_beta   90.26001740
_cell_angle_gamma   89.99971008
_symmetry_Int_Tables_number   1
_chemical_formula_structural   LiNbO3
_chemical_formula_sum   'Li4 Nb4 O12'
_cell_volume   245.82921066
_cell_formula_units_Z   4
loop_
 _symmetry_equiv_pos_site_id
 _symmetry_equiv_pos_as_xyz
  1  'x, y, z'
loop_
 _atom_site_type_symbol
 _atom_site_label
 _atom_site_symmetry_multiplicity
 _atom_site_fract_x
 _atom_site_fract_y
 _atom_site_fract_z
 _atom_site_occupancy
  Li  Li0  1  0.01248900  0.05232600  0.74779299  1
  Li  Li1  1  0.48750898  0.55233401  0.75218200  1
  Li  Li2  1  0.98751096  0.94767402  0.25220802  1
  Li  Li3  1  0.51249198  0.44766801  0.24781901  1
  Nb  Nb4  1  0.99999998  0.49999901  0.50000001  1
  Nb  Nb5  1  0.49999796  0.99999902  0.99999901  1
  Nb  Nb6  1  0.49999996  0.99999902  0.50000002  1
  Nb  Nb7  1  -0.00000002  0.50000001  0.00000101  1
  O  O8  1  0.31301499  0.28432201  0.55411200  1
  O  O9  1  0.18698297  0.78432202  0.94588701  1
  O  O10  1  0.68698597  0.71567902  0.44588901  1
  O  O11  1  0.81301599  0.21567700  0.05411300  1
  O  O12  1  0.78765699  0.19166900  0.45295500  1
  O  O13  1  0.71234497  0.69166701  0.04704502  1
  O  O14  1  0.21234197  0.80833102  0.54704501  1
  O  O15  1  0.28765599  0.30833301  0.95295499  1
  O  O16  1  0.90262498  0.46644001  0.76159800  1
  O  O17  1  0.59738196  0.96644202  0.73840202  1
  O  O18  1  0.40261800  0.03355900  0.26159900  1
  O  O19  1  0.09737398  0.53355901  0.23840301  1
