# generated using pymatgen
data_Al4Ge3Ru
_symmetry_space_group_name_H-M   'P 1'
_cell_length_a   4.89678288
_cell_length_b   4.89678288
_cell_length_c   4.89678288
_cell_angle_alpha   90.00000000
_cell_angle_beta   90.00000000
_cell_angle_gamma   90.00000000
_symmetry_Int_Tables_number   1
_chemical_formula_structural   Al4Ge3Ru
_chemical_formula_sum   'Al4 Ge3 Ru1'
_cell_volume   117.41742260
_cell_formula_units_Z   1
loop_
 _symmetry_equiv_pos_site_id
 _symmetry_equiv_pos_as_xyz
  1  'x, y, z'
loop_
 _atom_site_type_symbol
 _atom_site_label
 _atom_site_symmetry_multiplicity
 _atom_site_fract_x
 _atom_site_fract_y
 _atom_site_fract_z
 _atom_site_occupancy
  Al  Al0  1  0.08621900  0.08621900  0.08621900  1
  Al  Al1  1  0.41378101  0.91378102  0.58621901  1
  Al  Al2  1  0.91378102  0.58621901  0.41378101  1
  Al  Al3  1  0.58621901  0.41378101  0.91378102  1
  Ru  Ru4  1  0.37786501  0.37786501  0.37786501  1
  Ge  Ge5  1  0.12213500  0.62213502  0.87786502  1
  Ge  Ge6  1  0.62213502  0.87786502  0.12213500  1
  Ge  Ge7  1  0.87786502  0.12213500  0.62213502  1
