# generated using pymatgen
data_Ba2(AlGe)3
_symmetry_space_group_name_H-M   'P 1'
_cell_length_a   4.66767502
_cell_length_b   7.49322510
_cell_length_c   11.95802021
_cell_angle_alpha   90.00000000
_cell_angle_beta   90.00000000
_cell_angle_gamma   90.00000000
_symmetry_Int_Tables_number   1
_chemical_formula_structural   Ba2(AlGe)3
_chemical_formula_sum   'Ba4 Al6 Ge6'
_cell_volume   418.24299255
_cell_formula_units_Z   2
loop_
 _symmetry_equiv_pos_site_id
 _symmetry_equiv_pos_as_xyz
  1  'x, y, z'
loop_
 _atom_site_type_symbol
 _atom_site_label
 _atom_site_symmetry_multiplicity
 _atom_site_fract_x
 _atom_site_fract_y
 _atom_site_fract_z
 _atom_site_occupancy
  Ba  Ba0  1  0.25000000  0.13486000  0.14066500  1
  Ba  Ba1  1  0.75000000  0.86513999  0.85933498  1
  Ba  Ba2  1  0.25000000  0.63485999  0.35933499  1
  Ba  Ba3  1  0.75000000  0.36514000  0.64066499  1
  Al  Al4  1  0.25000000  0.11653700  0.43684099  1
  Al  Al5  1  0.75000000  0.88346299  0.56315899  1
  Al  Al6  1  0.25000000  0.61653699  0.06315900  1
  Al  Al7  1  0.75000000  0.38346300  0.93684098  1
  Ge  Ge8  1  0.75000000  0.46540999  0.15984000  1
  Al  Al9  1  0.25000000  0.53458999  0.84015999  1
  Al  Al10  1  0.75000000  0.96540999  0.34015999  1
  Ge  Ge11  1  0.25000000  0.03459000  0.65983999  1
  Ge  Ge12  1  0.75000000  0.29954700  0.34813999  1
  Ge  Ge13  1  0.25000000  0.70045299  0.65185999  1
  Ge  Ge14  1  0.75000000  0.79954699  0.15186000  1
  Ge  Ge15  1  0.25000000  0.20045300  0.84813999  1
