# generated using pymatgen
data_Cu3O5F7
_symmetry_space_group_name_H-M   'P 1'
_cell_length_a   5.20705462
_cell_length_b   5.34727001
_cell_length_c   8.97684479
_cell_angle_alpha   73.55426025
_cell_angle_beta   89.96952057
_cell_angle_gamma   60.91488647
_symmetry_Int_Tables_number   1
_chemical_formula_structural   Cu3O5F7
_chemical_formula_sum   'Cu3 O5 F7'
_cell_volume   206.67084121
_cell_formula_units_Z   1
loop_
 _symmetry_equiv_pos_site_id
 _symmetry_equiv_pos_as_xyz
  1  'x, y, z'
loop_
 _atom_site_type_symbol
 _atom_site_label
 _atom_site_symmetry_multiplicity
 _atom_site_fract_x
 _atom_site_fract_y
 _atom_site_fract_z
 _atom_site_occupancy
  Cu  Cu0  1  0.25000001  0.50000002  0.75000000  1
  Cu  Cu1  1  0.00720299  0.99322304  0.01006300  1
  Cu  Cu2  1  0.49279702  0.00677700  0.48993699  1
  O  O3  1  0.39121101  0.76643503  0.07244799  1
  O  O4  1  0.89794203  0.76216703  0.57573398  1
  O  O5  1  0.53275501  0.76431803  0.38563699  1
  O  O6  1  0.03378999  0.76265303  0.88195602  1
  O  O7  1  0.57467402  0.23453101  0.34158398  1
  F  F8  1  0.07401000  0.23852101  0.83839501  1
  F  F9  1  0.96724504  0.23568201  0.11436297  1
  F  F10  1  0.46621002  0.23734701  0.61804399  1
  F  F11  1  0.10878900  0.23356501  0.42755200  1
  F  F12  1  0.60205802  0.23783301  0.92426599  1
  F  F13  1  0.92532603  0.76546903  0.15841597  1
  F  F14  1  0.42599001  0.76147903  0.66160500  1
