# generated using pymatgen
data_CaNiO2
_symmetry_space_group_name_H-M   'P 1'
_cell_length_a   3.37481093
_cell_length_b   5.91786385
_cell_length_c   11.45747375
_cell_angle_alpha   90.00000000
_cell_angle_beta   90.00000000
_cell_angle_gamma   90.00000000
_symmetry_Int_Tables_number   1
_chemical_formula_structural   CaNiO2
_chemical_formula_sum   'Ca4 Ni4 O8'
_cell_volume   228.82490335
_cell_formula_units_Z   4
loop_
 _symmetry_equiv_pos_site_id
 _symmetry_equiv_pos_as_xyz
  1  'x, y, z'
loop_
 _atom_site_type_symbol
 _atom_site_label
 _atom_site_symmetry_multiplicity
 _atom_site_fract_x
 _atom_site_fract_y
 _atom_site_fract_z
 _atom_site_occupancy
  Ca  Ca0  1  0.25000000  0.81569302  0.86761802  1
  Ca  Ca1  1  0.75000001  0.18430700  0.13238200  1
  Ca  Ca2  1  0.25000000  0.31569301  0.63238201  1
  Ca  Ca3  1  0.75000001  0.68430702  0.36761801  1
  Ni  Ni4  1  0.75000001  0.29977001  0.87043302  1
  Ni  Ni5  1  0.75000001  0.79977002  0.62956701  1
  Ni  Ni6  1  0.25000000  0.70023002  0.12956700  1
  Ni  Ni7  1  0.25000000  0.20023001  0.37043301  1
  O  O8  1  0.25000000  0.73580202  0.53989001  1
  O  O9  1  0.75000001  0.26419801  0.46011001  1
  O  O10  1  0.25000000  0.23580201  0.96011002  1
  O  O11  1  0.75000001  0.76419802  0.03989000  1
  O  O12  1  0.25000000  0.94483602  0.25954001  1
  O  O13  1  0.75000001  0.55516401  0.75954002  1
  O  O14  1  0.25000000  0.44483601  0.24046001  1
  O  O15  1  0.75000001  0.05516400  0.74046002  1
