# generated using pymatgen
data_LiCu2F7
_symmetry_space_group_name_H-M   'P 1'
_cell_length_a   5.33165312
_cell_length_b   5.45690823
_cell_length_c   7.83945417
_cell_angle_alpha   90.00000000
_cell_angle_beta   90.00000000
_cell_angle_gamma   90.00000000
_symmetry_Int_Tables_number   1
_chemical_formula_structural   LiCu2F7
_chemical_formula_sum   'Li2 Cu4 F14'
_cell_volume   228.08375894
_cell_formula_units_Z   2
loop_
 _symmetry_equiv_pos_site_id
 _symmetry_equiv_pos_as_xyz
  1  'x, y, z'
loop_
 _atom_site_type_symbol
 _atom_site_label
 _atom_site_symmetry_multiplicity
 _atom_site_fract_x
 _atom_site_fract_y
 _atom_site_fract_z
 _atom_site_occupancy
  Li  Li0  1  0.99938698  0.95644396  0.74999998  1
  Li  Li1  1  0.50061299  0.45644398  0.74999998  1
  Cu  Cu2  1  0.49938699  0.54355598  0.24999999  1
  Cu  Cu3  1  0.00061300  0.04355600  0.24999999  1
  Cu  Cu4  1  0.00000000  0.49999998  0.00000000  1
  Cu  Cu5  1  0.00000000  0.49999998  0.49999999  1
  F  F6  1  0.49999999  0.00000000  0.49999999  1
  F  F7  1  0.49999999  0.00000000  0.00000000  1
  F  F8  1  0.13556700  0.41301098  0.24999999  1
  F  F9  1  0.17130800  0.17640399  0.57194099  1
  F  F10  1  0.17130800  0.17640399  0.92805898  1
  F  F11  1  0.32869199  0.67640397  0.57194099  1
  F  F12  1  0.32869199  0.67640397  0.92805898  1
  F  F13  1  0.36443299  0.91301096  0.24999999  1
  F  F14  1  0.63556699  0.08698900  0.74999998  1
  F  F15  1  0.67130799  0.32359599  0.07194100  1
  F  F16  1  0.67130799  0.32359599  0.42805899  1
  F  F17  1  0.82869198  0.82359597  0.07194100  1
  F  F18  1  0.82869198  0.82359597  0.42805899  1
  F  F19  1  0.86443298  0.58698898  0.74999998  1
