# generated using pymatgen
data_ZrPt2
_symmetry_space_group_name_H-M   'P 1'
_cell_length_a   3.84842992
_cell_length_b   3.84842992
_cell_length_c   7.93431520
_cell_angle_alpha   90.00000000
_cell_angle_beta   90.00000000
_cell_angle_gamma   90.00000000
_symmetry_Int_Tables_number   1
_chemical_formula_structural   ZrPt2
_chemical_formula_sum   'Zr2 Pt4'
_cell_volume   117.51048375
_cell_formula_units_Z   2
loop_
 _symmetry_equiv_pos_site_id
 _symmetry_equiv_pos_as_xyz
  1  'x, y, z'
loop_
 _atom_site_type_symbol
 _atom_site_label
 _atom_site_symmetry_multiplicity
 _atom_site_fract_x
 _atom_site_fract_y
 _atom_site_fract_z
 _atom_site_occupancy
  Zr  Zr0  1  0.00000000  0.50000001  0.72627998  1
  Zr  Zr1  1  0.50000001  0.00000000  0.27371999  1
  Pt  Pt2  1  0.00000000  0.00000000  0.00000000  1
  Pt  Pt3  1  0.50000001  0.50000001  -0.00000000  1
  Pt  Pt4  1  0.00000000  0.50000001  0.36685199  1
  Pt  Pt5  1  0.50000001  0.00000000  0.63314798  1
