# generated using pymatgen
data_LiAgF3
_symmetry_space_group_name_H-M   'P 1'
_cell_length_a   5.35976505
_cell_length_b   5.49431801
_cell_length_c   7.81224489
_cell_angle_alpha   90.00000000
_cell_angle_beta   90.00000000
_cell_angle_gamma   90.00000000
_symmetry_Int_Tables_number   1
_chemical_formula_structural   LiAgF3
_chemical_formula_sum   'Li4 Ag4 F12'
_cell_volume   230.05696916
_cell_formula_units_Z   4
loop_
 _symmetry_equiv_pos_site_id
 _symmetry_equiv_pos_as_xyz
  1  'x, y, z'
loop_
 _atom_site_type_symbol
 _atom_site_label
 _atom_site_symmetry_multiplicity
 _atom_site_fract_x
 _atom_site_fract_y
 _atom_site_fract_z
 _atom_site_occupancy
  Li  Li0  1  0.49865500  0.01005600  0.51029001  1
  Li  Li1  1  0.50134500  0.98994400  0.01029000  1
  Li  Li2  1  0.00134500  0.51005600  0.51029001  1
  Li  Li3  1  0.99865499  0.48994400  0.01029000  1
  Ag  Ag4  1  0.51081599  0.46279100  0.75809401  1
  Ag  Ag5  1  0.48918400  0.53720900  0.25809400  1
  Ag  Ag6  1  0.98918399  0.96279100  0.75809401  1
  Ag  Ag7  1  0.01081600  0.03720900  0.25809400  1
  F  F8  1  0.79305999  0.22142100  0.94411401  1
  F  F9  1  0.20694000  0.77857900  0.44411401  1
  F  F10  1  0.70693999  0.72142100  0.94411401  1
  F  F11  1  0.29306000  0.27857900  0.44411401  1
  F  F12  1  0.80189999  0.18936700  0.54110701  1
  F  F13  1  0.19810000  0.81063300  0.04110700  1
  F  F14  1  0.69809999  0.68936700  0.54110701  1
  F  F15  1  0.30190000  0.31063300  0.04110700  1
  F  F16  1  0.90672699  0.47028000  0.24149500  1
  F  F17  1  0.09327300  0.52972000  0.74149501  1
  F  F18  1  0.59327299  0.97028000  0.24149500  1
  F  F19  1  0.40672700  0.02972000  0.74149501  1
