# generated using pymatgen
data_BaGe2N3
_symmetry_space_group_name_H-M   'P 1'
_cell_length_a   5.38652802
_cell_length_b   5.92220402
_cell_length_c   5.92220402
_cell_angle_alpha   118.14778900
_cell_angle_beta   90.00000000
_cell_angle_gamma   90.00000000
_symmetry_Int_Tables_number   1
_chemical_formula_structural   BaGe2N3
_chemical_formula_sum   'Ba2 Ge4 N6'
_cell_volume   166.57625422
_cell_formula_units_Z   2
loop_
 _symmetry_equiv_pos_site_id
 _symmetry_equiv_pos_as_xyz
  1  'x, y, z'
loop_
 _atom_site_type_symbol
 _atom_site_label
 _atom_site_symmetry_multiplicity
 _atom_site_fract_x
 _atom_site_fract_y
 _atom_site_fract_z
 _atom_site_occupancy
  Ba  Ba0  1  0.48063000  0.34810599  0.34810599  1
  Ba  Ba1  1  0.98063000  0.65189398  0.65189399  1
  Ge  Ge2  1  0.49302500  0.03431600  0.68639598  1
  Ge  Ge3  1  0.49302500  0.68639598  0.03431601  1
  Ge  Ge4  1  0.99302500  0.96568397  0.31360400  1
  Ge  Ge5  1  0.99302500  0.31360399  0.96568397  1
  N  N6  1  0.82558600  0.12421000  0.64233298  1
  N  N7  1  0.82558600  0.64233298  0.12421000  1
  N  N8  1  0.32558600  0.87578997  0.35766700  1
  N  N9  1  0.32558600  0.35766699  0.87578997  1
  N  N10  1  0.97014900  0.18374299  0.18374300  1
  N  N11  1  0.47014900  0.81625698  0.81625698  1
