# generated using pymatgen
data_LiV2OF11
_symmetry_space_group_name_H-M   'P 1'
_cell_length_a   5.13483858
_cell_length_b   5.38522339
_cell_length_c   8.87346840
_cell_angle_alpha   106.11504364
_cell_angle_beta   90.02999115
_cell_angle_gamma   61.60717392
_symmetry_Int_Tables_number   1
_chemical_formula_structural   LiV2OF11
_chemical_formula_sum   'Li1 V2 O1 F11'
_cell_volume   204.84924157
_cell_formula_units_Z   1
loop_
 _symmetry_equiv_pos_site_id
 _symmetry_equiv_pos_as_xyz
  1  'x, y, z'
loop_
 _atom_site_type_symbol
 _atom_site_label
 _atom_site_symmetry_multiplicity
 _atom_site_fract_x
 _atom_site_fract_y
 _atom_site_fract_z
 _atom_site_occupancy
  Li  Li0  1  0.50000002  0.00000000  0.50000000  1
  V  V1  1  0.75185802  0.50720303  0.76010802  1
  V  V2  1  0.24814200  0.49279703  0.23989202  1
  O  O3  1  0.91883902  0.72975004  0.80938003  1
  F  F4  1  0.42003800  0.73423204  0.31273503  1
  F  F5  1  0.52611400  0.73483904  0.63325003  1
  F  F6  1  0.02706598  0.73275004  0.13689603  1
  F  F7  1  0.45453600  0.73002104  0.91697705  1
  F  F8  1  0.95350702  0.73507404  0.42096501  1
  F  F9  1  0.04649300  0.26492602  0.57903503  1
  F  F10  1  0.54546402  0.26997902  0.08302299  1
  F  F11  1  0.97293403  0.26725002  0.86310401  1
  F  F12  1  0.47388601  0.26516102  0.36675001  1
  F  F13  1  0.57996202  0.26576802  0.68726502  1
  F  F14  1  0.08116100  0.27025002  0.19062002  1
