# generated using pymatgen
data_Cs2TiO3
_symmetry_space_group_name_H-M   'P 1'
_cell_length_a   5.97341919
_cell_length_b   6.62459755
_cell_length_c   6.62459755
_cell_angle_alpha   111.46563721
_cell_angle_beta   90.00000000
_cell_angle_gamma   90.00000000
_symmetry_Int_Tables_number   1
_chemical_formula_structural   Cs2TiO3
_chemical_formula_sum   'Cs4 Ti2 O6'
_cell_volume   243.96212296
_cell_formula_units_Z   2
loop_
 _symmetry_equiv_pos_site_id
 _symmetry_equiv_pos_as_xyz
  1  'x, y, z'
loop_
 _atom_site_type_symbol
 _atom_site_label
 _atom_site_symmetry_multiplicity
 _atom_site_fract_x
 _atom_site_fract_y
 _atom_site_fract_z
 _atom_site_occupancy
  Cs  Cs0  1  0.74379098  0.47970699  0.80609599  1
  Cs  Cs1  1  0.24379099  0.19390400  0.52029299  1
  Cs  Cs2  1  0.24379099  0.52029299  0.19390401  1
  Cs  Cs3  1  0.74379098  0.80609599  0.47970701  1
  Ti  Ti4  1  0.26379799  0.91285099  0.91285100  1
  Ti  Ti5  1  0.76379798  0.08714900  0.08714900  1
  O  O6  1  0.50717098  0.13431500  0.88634698  1
  O  O7  1  0.00717100  0.11365300  0.86568498  1
  O  O8  1  0.29427799  0.65439899  0.65439900  1
  O  O9  1  0.79427797  0.34560100  0.34560100  1
  O  O10  1  0.00717100  0.86568499  0.11365302  1
  O  O11  1  0.50717098  0.88634699  0.13431502  1
