# generated using pymatgen
data_YbCdSn
_symmetry_space_group_name_H-M   'P 1'
_cell_length_a   4.67341995
_cell_length_b   7.57118177
_cell_length_c   7.57118225
_cell_angle_alpha   120.00000000
_cell_angle_beta   90.00000000
_cell_angle_gamma   90.00000000
_symmetry_Int_Tables_number   1
_chemical_formula_structural   YbCdSn
_chemical_formula_sum   'Yb3 Cd3 Sn3'
_cell_volume   232.00257958
_cell_formula_units_Z   3
loop_
 _symmetry_equiv_pos_site_id
 _symmetry_equiv_pos_as_xyz
  1  'x, y, z'
loop_
 _atom_site_type_symbol
 _atom_site_label
 _atom_site_symmetry_multiplicity
 _atom_site_fract_x
 _atom_site_fract_y
 _atom_site_fract_z
 _atom_site_occupancy
  Yb  Yb0  1  -0.00000000  0.42918501  0.42918499  1
  Yb  Yb1  1  -0.00000000  0.00000000  0.57081498  1
  Yb  Yb2  1  -0.00000000  0.57081502  0.00000000  1
  Cd  Cd3  1  0.50000001  0.75775002  0.75774998  1
  Cd  Cd4  1  0.50000001  0.00000000  0.24224999  1
  Cd  Cd5  1  0.50000001  0.24225001  0.99999997  1
  Sn  Sn6  1  0.50000001  0.66666669  0.33333333  1
  Sn  Sn7  1  0.50000001  0.33333334  0.66666665  1
  Sn  Sn8  1  0.00000000  0.00000000  0.00000000  1
