# generated using pymatgen
data_LiMg
_symmetry_space_group_name_H-M   'P 1'
_cell_length_a   5.29340410
_cell_length_b   5.29340410
_cell_length_c   5.74982405
_cell_angle_alpha   94.49198151
_cell_angle_beta   113.60323334
_cell_angle_gamma   118.68555450
_symmetry_Int_Tables_number   1
_chemical_formula_structural   LiMg
_chemical_formula_sum   'Li3 Mg3'
_cell_volume   121.95971049
_cell_formula_units_Z   3
loop_
 _symmetry_equiv_pos_site_id
 _symmetry_equiv_pos_as_xyz
  1  'x, y, z'
loop_
 _atom_site_type_symbol
 _atom_site_label
 _atom_site_symmetry_multiplicity
 _atom_site_fract_x
 _atom_site_fract_y
 _atom_site_fract_z
 _atom_site_occupancy
  Li  Li0  1  0.66731498  0.75037999  0.24751399  1
  Li  Li1  1  0.00286599  0.41980100  0.25248600  1
  Li  Li2  1  0.99713399  0.58019899  0.74751401  1
  Mg  Mg3  1  0.33268499  0.24962000  0.75248601  1
  Mg  Mg4  1  0.66306798  0.91306799  0.75000000  1
  Mg  Mg5  1  0.33693200  0.08693200  0.25000000  1
