# generated using pymatgen
data_AlNi3
_symmetry_space_group_name_H-M   'P 1'
_cell_length_a   3.52643609
_cell_length_b   3.52643609
_cell_length_c   4.12816191
_cell_angle_alpha   115.28488922
_cell_angle_beta   115.28488922
_cell_angle_gamma   90.00000000
_symmetry_Int_Tables_number   1
_chemical_formula_structural   AlNi3
_chemical_formula_sum   'Al1 Ni3'
_cell_volume   40.91313990
_cell_formula_units_Z   1
loop_
 _symmetry_equiv_pos_site_id
 _symmetry_equiv_pos_as_xyz
  1  'x, y, z'
loop_
 _atom_site_type_symbol
 _atom_site_label
 _atom_site_symmetry_multiplicity
 _atom_site_fract_x
 _atom_site_fract_y
 _atom_site_fract_z
 _atom_site_occupancy
  Al  Al0  1  0.00000000  0.00000000  0.00000000  1
  Ni  Ni1  1  0.74999998  0.24999999  0.49999997  1
  Ni  Ni2  1  0.24999999  0.74999998  0.49999997  1
  Ni  Ni3  1  0.49999998  0.49999999  -0.00000000  1
