# generated using pymatgen
data_Ce2InPd2
_symmetry_space_group_name_H-M   'P 1'
_cell_length_a   3.65036511
_cell_length_b   7.97567081
_cell_length_c   7.97567081
_cell_angle_alpha   90.00000000
_cell_angle_beta   90.00000000
_cell_angle_gamma   90.00000000
_symmetry_Int_Tables_number   1
_chemical_formula_structural   Ce2InPd2
_chemical_formula_sum   'Ce4 In2 Pd4'
_cell_volume   232.20456144
_cell_formula_units_Z   2
loop_
 _symmetry_equiv_pos_site_id
 _symmetry_equiv_pos_as_xyz
  1  'x, y, z'
loop_
 _atom_site_type_symbol
 _atom_site_label
 _atom_site_symmetry_multiplicity
 _atom_site_fract_x
 _atom_site_fract_y
 _atom_site_fract_z
 _atom_site_occupancy
  Ce  Ce0  1  0.49999998  0.67056902  0.17056900  1
  Ce  Ce1  1  0.49999998  0.32943101  0.82943102  1
  Ce  Ce2  1  0.49999998  0.17056900  0.32943101  1
  Ce  Ce3  1  0.49999998  0.82943102  0.67056902  1
  In  In4  1  0.00000000  0.50000001  0.50000001  1
  In  In5  1  0.00000000  0.00000000  0.00000000  1
  Pd  Pd6  1  0.00000000  0.12813200  0.62813201  1
  Pd  Pd7  1  0.99999997  0.87186802  0.37186801  1
  Pd  Pd8  1  0.00000000  0.62813201  0.87186802  1
  Pd  Pd9  1  0.00000000  0.37186801  0.12813200  1
