# generated using pymatgen
data_Ca4Ni(RuO4)3
_symmetry_space_group_name_H-M   'P 1'
_cell_length_a   5.41981220
_cell_length_b   5.74251795
_cell_length_c   7.77292013
_cell_angle_alpha   90.00000000
_cell_angle_beta   89.83051300
_cell_angle_gamma   90.00000000
_symmetry_Int_Tables_number   1
_chemical_formula_structural   Ca4Ni(RuO4)3
_chemical_formula_sum   'Ca4 Ni1 Ru3 O12'
_cell_volume   241.91840184
_cell_formula_units_Z   1
loop_
 _symmetry_equiv_pos_site_id
 _symmetry_equiv_pos_as_xyz
  1  'x, y, z'
loop_
 _atom_site_type_symbol
 _atom_site_label
 _atom_site_symmetry_multiplicity
 _atom_site_fract_x
 _atom_site_fract_y
 _atom_site_fract_z
 _atom_site_occupancy
  Ca  Ca0  1  0.48091298  0.93165501  0.25127699  1
  Ca  Ca1  1  0.98091296  0.56834501  0.75127698  1
  Ca  Ca2  1  0.51908698  0.06834500  0.74872298  1
  Ca  Ca3  1  0.01908700  0.43165500  0.24872300  1
  Ni  Ni4  1  0.00000000  0.00000000  0.00000000  1
  Ru  Ru5  1  0.49999998  0.50000000  0.49999999  1
  Ru  Ru6  1  0.49999998  0.50000000  -0.00000000  1
  Ru  Ru7  1  0.00000000  1.00000001  0.49999999  1
  O  O8  1  0.19226099  0.69519301  0.05575700  1
  O  O9  1  0.69226097  0.80480701  0.55575699  1
  O  O10  1  0.80773897  0.30480700  0.94424298  1
  O  O11  1  0.30773899  0.19519300  0.44424299  1
  O  O12  1  0.61138898  0.53948100  0.24784999  1
  O  O13  1  0.11138900  0.96051901  0.74784999  1
  O  O14  1  0.38861099  0.46051900  0.75214999  1
  O  O15  1  0.88861097  0.03948100  0.25214999  1
  O  O16  1  0.31280499  0.19941300  0.05787000  1
  O  O17  1  0.81280497  0.30058700  0.55786998  1
  O  O18  1  0.68719497  0.80058701  0.94212998  1
  O  O19  1  0.18719499  0.69941301  0.44212999  1
