# generated using pymatgen
data_Ce(GeRh)2
_symmetry_space_group_name_H-M   'P 1'
_cell_length_a   4.28654385
_cell_length_b   4.28654385
_cell_length_c   5.85428476
_cell_angle_alpha   111.47548676
_cell_angle_beta   111.47548676
_cell_angle_gamma   90.00000000
_symmetry_Int_Tables_number   1
_chemical_formula_structural   Ce(GeRh)2
_chemical_formula_sum   'Ce1 Ge2 Rh2'
_cell_volume   92.02911288
_cell_formula_units_Z   1
loop_
 _symmetry_equiv_pos_site_id
 _symmetry_equiv_pos_as_xyz
  1  'x, y, z'
loop_
 _atom_site_type_symbol
 _atom_site_label
 _atom_site_symmetry_multiplicity
 _atom_site_fract_x
 _atom_site_fract_y
 _atom_site_fract_z
 _atom_site_occupancy
  Ce  Ce0  1  0.00000000  0.00000000  0.00000000  1
  Ge  Ge1  1  0.63168503  0.63168503  0.26337002  1
  Ge  Ge2  1  0.36831502  0.36831501  0.73663003  1
  Rh  Rh3  1  0.25000001  0.75000003  0.50000002  1
  Rh  Rh4  1  0.75000003  0.25000001  0.50000002  1
