# generated using pymatgen
data_Al3InAu
_symmetry_space_group_name_H-M   'P 1'
_cell_length_a   4.38333845
_cell_length_b   4.38333845
_cell_length_c   6.17800188
_cell_angle_alpha   69.83220673
_cell_angle_beta   69.83220673
_cell_angle_gamma   89.72087097
_symmetry_Int_Tables_number   1
_chemical_formula_structural   Al3InAu
_chemical_formula_sum   'Al3 In1 Au1'
_cell_volume   103.71328218
_cell_formula_units_Z   1
loop_
 _symmetry_equiv_pos_site_id
 _symmetry_equiv_pos_as_xyz
  1  'x, y, z'
loop_
 _atom_site_type_symbol
 _atom_site_label
 _atom_site_symmetry_multiplicity
 _atom_site_fract_x
 _atom_site_fract_y
 _atom_site_fract_z
 _atom_site_occupancy
  In  In0  1  0.00000000  0.00000000  0.00000000  1
  Al  Al1  1  0.59795399  0.59795397  0.77005600  1
  Al  Al2  1  0.40204599  0.40204598  0.22994401  1
  Al  Al3  1  0.76497396  0.23502599  0.50000001  1
  Au  Au4  1  0.23502601  0.76497396  0.50000000  1
