# generated using pymatgen
data_ZnGaAuSe4
_symmetry_space_group_name_H-M   'P 1'
_cell_length_a   5.87923622
_cell_length_b   5.87923622
_cell_length_c   6.84787655
_cell_angle_alpha   115.42151642
_cell_angle_beta   115.42151642
_cell_angle_gamma   90.00000000
_symmetry_Int_Tables_number   1
_chemical_formula_structural   ZnGaAuSe4
_chemical_formula_sum   'Zn1 Ga1 Au1 Se4'
_cell_volume   188.09022497
_cell_formula_units_Z   1
loop_
 _symmetry_equiv_pos_site_id
 _symmetry_equiv_pos_as_xyz
  1  'x, y, z'
loop_
 _atom_site_type_symbol
 _atom_site_label
 _atom_site_symmetry_multiplicity
 _atom_site_fract_x
 _atom_site_fract_y
 _atom_site_fract_z
 _atom_site_occupancy
  Zn  Zn0  1  0.24999993  0.74999994  0.49999993  1
  Ga  Ga1  1  0.49999994  0.49999996  -0.00000007  1
  Au  Au2  1  0.00000000  0.00000000  0.00000000  1
  Se  Se3  1  0.13220798  0.13316799  0.72615599  1
  Se  Se4  1  0.59394692  0.59298695  0.72615393  1
  Se  Se5  1  0.40701192  0.86779193  0.27384491  1
  Se  Se6  1  0.86683292  0.40605297  0.27384492  1
