# generated using pymatgen
data_Li4HfTa2VF12
_symmetry_space_group_name_H-M   'P 1'
_cell_length_a   5.52213812
_cell_length_b   5.77470875
_cell_length_c   9.55270863
_cell_angle_alpha   105.89324188
_cell_angle_beta   90.11033630
_cell_angle_gamma   118.50543213
_symmetry_Int_Tables_number   1
_chemical_formula_structural   Li4HfTa2VF12
_chemical_formula_sum   'Li4 Hf1 Ta2 V1 F12'
_cell_volume   254.27267928
_cell_formula_units_Z   1
loop_
 _symmetry_equiv_pos_site_id
 _symmetry_equiv_pos_as_xyz
  1  'x, y, z'
loop_
 _atom_site_type_symbol
 _atom_site_label
 _atom_site_symmetry_multiplicity
 _atom_site_fract_x
 _atom_site_fract_y
 _atom_site_fract_z
 _atom_site_occupancy
  Li  Li0  1  0.96838293  0.93665692  0.32249497  1
  Li  Li1  1  0.53157699  0.06330699  0.17748300  1
  Li  Li2  1  0.46848993  0.93690492  0.82258797  1
  Li  Li3  1  0.03147900  0.06315999  0.67744300  1
  Ta  Ta4  1  0.79210695  0.58447795  0.93062498  1
  Hf  Hf5  1  0.29228896  0.58450795  0.43081298  1
  Ta  Ta6  1  0.70776097  0.41543896  0.56925498  1
  V  V7  1  0.20789197  0.41560296  0.06932899  1
  F  F8  1  0.03745094  0.75914994  0.77142697  1
  F  F9  1  0.53746194  0.75929494  0.27155397  1
  F  F10  1  0.58307994  0.75905694  0.63295297  1
  F  F11  1  0.08299694  0.75910694  0.13288397  1
  F  F12  1  0.51882694  0.75975194  0.97480997  1
  F  F13  1  0.01901494  0.75973794  0.47486297  1
  F  F14  1  0.98112698  0.24023398  0.52519099  1
  F  F15  1  0.48104098  0.24030598  0.02515499  1
  F  F16  1  0.91691998  0.24082898  0.86706499  1
  F  F17  1  0.41696498  0.24090798  0.36707699  1
  F  F18  1  0.46259498  0.24075998  0.72851899  1
  F  F19  1  0.96254298  0.24080498  0.22846899  1
