# generated using pymatgen
data_Zr
_symmetry_space_group_name_H-M   'P 1'
_cell_length_a   5.61057997
_cell_length_b   6.50683403
_cell_length_c   6.50683451
_cell_angle_alpha   60.00000381
_cell_angle_beta   90.00000000
_cell_angle_gamma   90.00000000
_symmetry_Int_Tables_number   1
_chemical_formula_structural   Zr
_chemical_formula_sum   Zr8
_cell_volume   205.72065367
_cell_formula_units_Z   8
loop_
 _symmetry_equiv_pos_site_id
 _symmetry_equiv_pos_as_xyz
  1  'x, y, z'
loop_
 _atom_site_type_symbol
 _atom_site_label
 _atom_site_symmetry_multiplicity
 _atom_site_fract_x
 _atom_site_fract_y
 _atom_site_fract_z
 _atom_site_occupancy
  Zr  Zr0  1  0.75000000  0.66666665  0.66666668  1
  Zr  Zr1  1  0.25000000  0.33333333  0.33333334  1
  Zr  Zr2  1  0.75000000  0.66594799  0.16702602  1
  Zr  Zr3  1  0.75000000  0.16702600  0.66594800  1
  Zr  Zr4  1  0.75000000  0.16702600  0.16702600  1
  Zr  Zr5  1  0.25000000  0.83297398  0.83297402  1
  Zr  Zr6  1  0.25000000  0.83297398  0.33405202  1
  Zr  Zr7  1  0.25000000  0.33405199  0.83297400  1
