# generated using pymatgen
data_BaMnO3
_symmetry_space_group_name_H-M   'P 1'
_cell_length_a   5.86411047
_cell_length_b   5.86411047
_cell_length_c   8.02611732
_cell_angle_alpha   90.00000000
_cell_angle_beta   90.00000000
_cell_angle_gamma   92.72190857
_symmetry_Int_Tables_number   1
_chemical_formula_structural   BaMnO3
_chemical_formula_sum   'Ba4 Mn4 O12'
_cell_volume   275.68906334
_cell_formula_units_Z   4
loop_
 _symmetry_equiv_pos_site_id
 _symmetry_equiv_pos_as_xyz
  1  'x, y, z'
loop_
 _atom_site_type_symbol
 _atom_site_label
 _atom_site_symmetry_multiplicity
 _atom_site_fract_x
 _atom_site_fract_y
 _atom_site_fract_z
 _atom_site_occupancy
  Ba  Ba0  1  0.74999995  0.74999997  0.99802500  1
  Ba  Ba1  1  0.24999998  0.24999999  0.50197500  1
  Ba  Ba2  1  0.24999998  0.24999999  0.99802500  1
  Ba  Ba3  1  0.74999995  0.74999997  0.50197500  1
  Mn  Mn4  1  0.74999996  0.24999999  0.75000000  1
  Mn  Mn5  1  0.24999997  0.74999997  0.25000000  1
  Mn  Mn6  1  0.74999996  0.24999999  0.25000000  1
  Mn  Mn7  1  0.24999997  0.74999997  0.75000000  1
  O  O8  1  0.50855698  0.00855700  0.25000000  1
  O  O9  1  0.00478398  0.50478398  0.75000000  1
  O  O10  1  0.49521595  0.99521596  0.75000000  1
  O  O11  1  0.99144295  0.49144298  0.25000000  1
  O  O12  1  0.51939597  0.48060398  0.75000000  1
  O  O13  1  0.02085597  0.97914396  0.25000000  1
  O  O14  1  0.47914397  0.52085598  0.25000000  1
  O  O15  1  0.98060396  0.01939600  0.75000000  1
  O  O16  1  0.74999996  0.24999999  0.00517900  1
  O  O17  1  0.24999997  0.74999997  0.50420100  1
  O  O18  1  0.24999997  0.74999997  0.99579900  1
  O  O19  1  0.74999996  0.24999999  0.49482100  1
