# generated using pymatgen
data_Nb(NiN)2
_symmetry_space_group_name_H-M   'P 1'
_cell_length_a   3.99101806
_cell_length_b   3.99101806
_cell_length_c   7.97502613
_cell_angle_alpha   90.00000000
_cell_angle_beta   90.00000000
_cell_angle_gamma   90.00000000
_symmetry_Int_Tables_number   1
_chemical_formula_structural   Nb(NiN)2
_chemical_formula_sum   'Nb2 Ni4 N4'
_cell_volume   127.02801163
_cell_formula_units_Z   2
loop_
 _symmetry_equiv_pos_site_id
 _symmetry_equiv_pos_as_xyz
  1  'x, y, z'
loop_
 _atom_site_type_symbol
 _atom_site_label
 _atom_site_symmetry_multiplicity
 _atom_site_fract_x
 _atom_site_fract_y
 _atom_site_fract_z
 _atom_site_occupancy
  Nb  Nb0  1  0.49999999  0.49999999  0.00000000  1
  Nb  Nb1  1  0.49999999  0.49999999  0.49999999  1
  Ni  Ni2  1  0.00000000  0.00000000  0.74473399  1
  Ni  Ni3  1  0.00000000  0.00000000  0.25526600  1
  Ni  Ni4  1  0.00000000  0.00000000  0.00000000  1
  Ni  Ni5  1  0.00000000  0.00000000  0.49999999  1
  N  N6  1  -0.00000000  0.49999999  0.74128699  1
  N  N7  1  -0.00000000  0.49999999  0.25871300  1
  N  N8  1  0.49999999  0.00000000  0.74128699  1
  N  N9  1  0.49999999  0.00000000  0.25871300  1
