# generated using pymatgen
data_CaHoNiWO6
_symmetry_space_group_name_H-M   'P 1'
_cell_length_a   5.33484697
_cell_length_b   5.71640301
_cell_length_c   7.62403440
_cell_angle_alpha   90.43748474
_cell_angle_beta   90.00028229
_cell_angle_gamma   89.99639893
_symmetry_Int_Tables_number   1
_chemical_formula_structural   CaHoNiWO6
_chemical_formula_sum   'Ca2 Ho2 Ni2 W2 O12'
_cell_volume   232.49680652
_cell_formula_units_Z   2
loop_
 _symmetry_equiv_pos_site_id
 _symmetry_equiv_pos_as_xyz
  1  'x, y, z'
loop_
 _atom_site_type_symbol
 _atom_site_label
 _atom_site_symmetry_multiplicity
 _atom_site_fract_x
 _atom_site_fract_y
 _atom_site_fract_z
 _atom_site_occupancy
  Ca  Ca0  1  0.51901300  0.07331300  0.25016798  1
  Ca  Ca1  1  0.48098399  0.92669496  0.74982894  1
  Ho  Ho2  1  0.01903899  0.42671198  0.74982598  1
  Ho  Ho3  1  0.98096300  0.57327698  0.25017694  1
  Ni  Ni4  1  0.49999900  0.49999998  0.49999996  1
  Ni  Ni5  1  0.99999900  0.00000000  0.49999996  1
  W  W6  1  0.99999899  0.99998996  0.99999792  1
  W  W7  1  0.50000200  0.50001498  0.00000296  1
  O  O8  1  0.80766800  0.30298899  0.05784596  1
  O  O9  1  0.19233399  0.69700997  0.94215496  1
  O  O10  1  0.30770100  0.19704399  0.94211998  1
  O  O11  1  0.69230199  0.80295797  0.05788194  1
  O  O12  1  0.20360599  0.67950297  0.55671197  1
  O  O13  1  0.79639300  0.32049699  0.44328496  1
  O  O14  1  0.70358799  0.82038997  0.44326794  1
  O  O15  1  0.29641200  0.17960799  0.55672798  1
  O  O16  1  0.38472900  0.45885198  0.24962597  1
  O  O17  1  0.61527100  0.54115098  0.75037595  1
  O  O18  1  0.88497000  0.04080700  0.75036796  1
  O  O19  1  0.11502899  0.95918896  0.24963196  1
