# generated using pymatgen
data_CeAl5Ru2
_symmetry_space_group_name_H-M   'P 1'
_cell_length_a   3.98218799
_cell_length_b   6.23454237
_cell_length_c   6.23454237
_cell_angle_alpha   68.63259888
_cell_angle_beta   71.37548065
_cell_angle_gamma   71.37548065
_symmetry_Int_Tables_number   1
_chemical_formula_structural   CeAl5Ru2
_chemical_formula_sum   'Ce1 Al5 Ru2'
_cell_volume   132.93434128
_cell_formula_units_Z   1
loop_
 _symmetry_equiv_pos_site_id
 _symmetry_equiv_pos_as_xyz
  1  'x, y, z'
loop_
 _atom_site_type_symbol
 _atom_site_label
 _atom_site_symmetry_multiplicity
 _atom_site_fract_x
 _atom_site_fract_y
 _atom_site_fract_z
 _atom_site_occupancy
  Ce  Ce0  1  0.00000000  0.00000000  0.00000000  1
  Al  Al1  1  0.00000001  0.50000000  0.50000002  1
  Al  Al2  1  0.34379501  0.46612700  0.84628302  1
  Al  Al3  1  0.65620501  0.53387300  0.15371703  1
  Al  Al4  1  0.65620500  0.15371700  0.53387302  1
  Al  Al5  1  0.34379502  0.84628299  0.46612703  1
  Ru  Ru6  1  0.24217700  0.25782300  0.25782301  1
  Ru  Ru7  1  0.75782301  0.74217699  0.74217704  1
