# generated using pymatgen
data_CeGa3Pd
_symmetry_space_group_name_H-M   'P 1'
_cell_length_a   4.40340281
_cell_length_b   4.40340281
_cell_length_c   10.58608532
_cell_angle_alpha   90.00000000
_cell_angle_beta   90.00000000
_cell_angle_gamma   90.00000000
_symmetry_Int_Tables_number   1
_chemical_formula_structural   CeGa3Pd
_chemical_formula_sum   'Ce2 Ga6 Pd2'
_cell_volume   205.26373137
_cell_formula_units_Z   2
loop_
 _symmetry_equiv_pos_site_id
 _symmetry_equiv_pos_as_xyz
  1  'x, y, z'
loop_
 _atom_site_type_symbol
 _atom_site_label
 _atom_site_symmetry_multiplicity
 _atom_site_fract_x
 _atom_site_fract_y
 _atom_site_fract_z
 _atom_site_occupancy
  Ce  Ce0  1  0.00000000  0.50000002  0.23684699  1
  Ce  Ce1  1  0.50000002  0.00000000  0.76315298  1
  Ga  Ga2  1  0.00000000  0.00000000  0.00000000  1
  Ga  Ga3  1  0.50000002  0.50000002  0.00000000  1
  Ga  Ga4  1  0.00000000  0.50000002  0.63609298  1
  Ga  Ga5  1  0.50000002  0.00000000  0.36390699  1
  Ga  Ga6  1  0.00000000  0.00000000  0.49999998  1
  Ga  Ga7  1  0.50000002  0.50000002  0.49999998  1
  Pd  Pd8  1  0.00000000  0.50000002  0.87222497  1
  Pd  Pd9  1  0.50000002  0.00000000  0.12777500  1
