# generated using pymatgen
data_CaTl3F10
_symmetry_space_group_name_H-M   'P 1'
_cell_length_a   4.48023415
_cell_length_b   5.99055386
_cell_length_c   8.49008751
_cell_angle_alpha   89.28184509
_cell_angle_beta   74.70131683
_cell_angle_gamma   87.27722168
_symmetry_Int_Tables_number   1
_chemical_formula_structural   CaTl3F10
_chemical_formula_sum   'Ca1 Tl3 F10'
_cell_volume   219.54325840
_cell_formula_units_Z   1
loop_
 _symmetry_equiv_pos_site_id
 _symmetry_equiv_pos_as_xyz
  1  'x, y, z'
loop_
 _atom_site_type_symbol
 _atom_site_label
 _atom_site_symmetry_multiplicity
 _atom_site_fract_x
 _atom_site_fract_y
 _atom_site_fract_z
 _atom_site_occupancy
  Tl  Tl0  1  0.67250103  0.75000001  0.65499798  1
  Ca  Ca1  1  0.32749901  0.25000000  0.34500199  1
  Tl  Tl2  1  0.92663202  0.75000001  0.14673601  1
  Tl  Tl3  1  0.07336802  0.25000000  0.85326397  1
  F  F4  1  0.80795002  0.59173001  0.93115697  1
  F  F5  1  0.73910698  0.09173000  0.06884300  1
  F  F6  1  0.17113000  0.01175400  0.63368097  1
  F  F7  1  0.38260204  0.75000001  0.23479600  1
  F  F8  1  0.19518903  0.48824601  0.63368098  1
  F  F9  1  0.80481101  0.51175401  0.36631899  1
  F  F10  1  0.61739800  0.25000000  0.76520397  1
  F  F11  1  0.82887004  0.98824601  0.36631900  1
  F  F12  1  0.26089306  0.90827001  0.93115697  1
  F  F13  1  0.19205002  0.40827000  0.06884300  1
