# generated using pymatgen
data_CeSb2
_symmetry_space_group_name_H-M   'P 1'
_cell_length_a   4.32151413
_cell_length_b   4.32151413
_cell_length_c   8.90863609
_cell_angle_alpha   90.00000000
_cell_angle_beta   90.00000000
_cell_angle_gamma   90.00000000
_symmetry_Int_Tables_number   1
_chemical_formula_structural   CeSb2
_chemical_formula_sum   'Ce2 Sb4'
_cell_volume   166.37309414
_cell_formula_units_Z   2
loop_
 _symmetry_equiv_pos_site_id
 _symmetry_equiv_pos_as_xyz
  1  'x, y, z'
loop_
 _atom_site_type_symbol
 _atom_site_label
 _atom_site_symmetry_multiplicity
 _atom_site_fract_x
 _atom_site_fract_y
 _atom_site_fract_z
 _atom_site_occupancy
  Ce  Ce0  1  0.00000000  0.49999999  0.75873899  1
  Ce  Ce1  1  0.49999999  0.00000000  0.24126100  1
  Sb  Sb2  1  0.00000000  0.49999999  0.37191900  1
  Sb  Sb3  1  0.49999999  0.00000000  0.62808099  1
  Sb  Sb4  1  0.00000000  0.00000000  0.00000000  1
  Sb  Sb5  1  0.49999999  0.49999999  0.00000000  1
