# generated using pymatgen
data_La(GaAu)2
_symmetry_space_group_name_H-M   'P 1'
_cell_length_a   4.55354786
_cell_length_b   4.55354786
_cell_length_c   10.71801567
_cell_angle_alpha   90.00000000
_cell_angle_beta   90.00000000
_cell_angle_gamma   90.00000000
_symmetry_Int_Tables_number   1
_chemical_formula_structural   La(GaAu)2
_chemical_formula_sum   'La2 Ga4 Au4'
_cell_volume   222.23589103
_cell_formula_units_Z   2
loop_
 _symmetry_equiv_pos_site_id
 _symmetry_equiv_pos_as_xyz
  1  'x, y, z'
loop_
 _atom_site_type_symbol
 _atom_site_label
 _atom_site_symmetry_multiplicity
 _atom_site_fract_x
 _atom_site_fract_y
 _atom_site_fract_z
 _atom_site_occupancy
  La  La0  1  0.00000000  0.50000002  0.75067102  1
  La  La1  1  0.50000002  0.00000000  0.24932901  1
  Ga  Ga2  1  0.00000000  0.50000002  0.12597000  1
  Ga  Ga3  1  0.00000000  0.00000000  0.50000002  1
  Ga  Ga4  1  0.50000002  0.00000000  0.87403003  1
  Ga  Ga5  1  0.50000002  0.50000002  0.50000002  1
  Au  Au6  1  0.50000002  0.00000000  0.63089602  1
  Au  Au7  1  0.50000002  0.50000002  -0.00000000  1
  Au  Au8  1  0.00000000  0.00000000  0.00000000  1
  Au  Au9  1  0.00000000  0.50000002  0.36910401  1
