# generated using pymatgen
data_SrBiO3
_symmetry_space_group_name_H-M   'P 1'
_cell_length_a   6.15360165
_cell_length_b   6.24285221
_cell_length_c   8.74514866
_cell_angle_alpha   89.93550110
_cell_angle_beta   90.01742554
_cell_angle_gamma   89.91739655
_symmetry_Int_Tables_number   1
_chemical_formula_structural   SrBiO3
_chemical_formula_sum   'Sr4 Bi4 O12'
_cell_volume   335.95327742
_cell_formula_units_Z   4
loop_
 _symmetry_equiv_pos_site_id
 _symmetry_equiv_pos_as_xyz
  1  'x, y, z'
loop_
 _atom_site_type_symbol
 _atom_site_label
 _atom_site_symmetry_multiplicity
 _atom_site_fract_x
 _atom_site_fract_y
 _atom_site_fract_z
 _atom_site_occupancy
  Sr  Sr0  1  0.50886321  0.53499278  0.24993550  1
  Sr  Sr1  1  0.49113681  0.46500726  0.75006448  1
  Sr  Sr2  1  0.98900689  0.04032459  0.25041145  1
  Sr  Sr3  1  0.01099312  0.95967544  0.74958853  1
  Bi  Bi4  1  0.50000001  0.00000000  0.00000002  1
  Bi  Bi5  1  -0.00000001  0.50000002  0.49999997  1
  Bi  Bi6  1  -0.00000001  0.50000002  -0.00000000  1
  Bi  Bi7  1  0.50000001  0.00000000  0.50000000  1
  O  O8  1  0.20411477  0.20886063  0.94718696  1
  O  O9  1  0.29095940  0.71507758  0.54357204  1
  O  O10  1  0.79588524  0.79113941  0.05281302  1
  O  O11  1  0.70904061  0.28492245  0.45642795  1
  O  O12  1  0.28681788  0.70964785  0.95811217  1
  O  O13  1  0.20806876  0.20445753  0.55191622  1
  O  O14  1  0.71318213  0.29035218  0.04188782  1
  O  O15  1  0.79193125  0.79554251  0.44808377  1
  O  O16  1  0.40075640  0.98289966  0.25198664  1
  O  O17  1  0.07725659  0.45485464  0.24818736  1
  O  O18  1  0.59924361  0.01710037  0.74801335  1
  O  O19  1  0.92274343  0.54514540  0.75181263  1
