# generated using pymatgen
data_TlCu7S4
_symmetry_space_group_name_H-M   'P 1'
_cell_length_a   3.93377590
_cell_length_b   7.67469740
_cell_length_c   7.69957256
_cell_angle_alpha   85.69557953
_cell_angle_beta   75.19950104
_cell_angle_gamma   75.15042877
_symmetry_Int_Tables_number   1
_chemical_formula_structural   TlCu7S4
_chemical_formula_sum   'Tl1 Cu7 S4'
_cell_volume   217.22433914
_cell_formula_units_Z   1
loop_
 _symmetry_equiv_pos_site_id
 _symmetry_equiv_pos_as_xyz
  1  'x, y, z'
loop_
 _atom_site_type_symbol
 _atom_site_label
 _atom_site_symmetry_multiplicity
 _atom_site_fract_x
 _atom_site_fract_y
 _atom_site_fract_z
 _atom_site_occupancy
  Tl  Tl0  1  0.00294602  0.99605800  0.99805003  1
  Cu  Cu1  1  0.02380801  0.35049400  0.60189001  1
  Cu  Cu2  1  0.97698104  0.64815800  0.39788002  1
  Cu  Cu3  1  0.36812302  0.61234600  0.65140802  1
  Cu  Cu4  1  0.62648002  0.39782100  0.34921901  1
  Cu  Cu5  1  0.68008802  0.10660400  0.53322001  1
  Cu  Cu6  1  0.21314201  0.45753600  0.11618001  1
  Cu  Cu7  1  0.78151203  0.54281600  0.89416002  1
  S  S8  1  0.24848701  0.17791900  0.32510701  1
  S  S9  1  0.75950304  0.81056500  0.67042902  1
  S  S10  1  0.43420602  0.31732900  0.81425901  1
  S  S11  1  0.56342503  0.68495200  0.18819802  1
