# generated using pymatgen
data_CsKNiF3
_symmetry_space_group_name_H-M   'P 1'
_cell_length_a   5.60448885
_cell_length_b   6.84873199
_cell_length_c   6.84873199
_cell_angle_alpha   111.01425934
_cell_angle_beta   90.00000000
_cell_angle_gamma   90.00000000
_symmetry_Int_Tables_number   1
_chemical_formula_structural   CsKNiF3
_chemical_formula_sum   'Cs2 K2 Ni2 F6'
_cell_volume   245.39549495
_cell_formula_units_Z   2
loop_
 _symmetry_equiv_pos_site_id
 _symmetry_equiv_pos_as_xyz
  1  'x, y, z'
loop_
 _atom_site_type_symbol
 _atom_site_label
 _atom_site_symmetry_multiplicity
 _atom_site_fract_x
 _atom_site_fract_y
 _atom_site_fract_z
 _atom_site_occupancy
  Cs  Cs0  1  0.25000001  0.18219299  0.50509299  1
  Cs  Cs1  1  0.75000002  0.49490699  0.81780697  1
  K  K2  1  0.75000002  0.81780698  0.49490697  1
  K  K3  1  0.25000001  0.50509299  0.18219298  1
  Ni  Ni4  1  0.75000002  0.07649100  0.07649100  1
  Ni  Ni5  1  0.25000001  0.92350897  0.92350896  1
  F  F6  1  -0.00000000  0.11244100  0.88755898  1
  F  F7  1  0.50000001  0.11244100  0.88755898  1
  F  F8  1  0.25000001  0.69325098  0.69325097  1
  F  F9  1  0.75000002  0.30674899  0.30674899  1
  F  F10  1  -0.00000000  0.88755897  0.11244097  1
  F  F11  1  0.50000001  0.88755897  0.11244097  1
