# generated using pymatgen
data_Li2HF
_symmetry_space_group_name_H-M   'P 1'
_cell_length_a   2.95325804
_cell_length_b   2.95325804
_cell_length_c   6.40844345
_cell_angle_alpha   76.67823029
_cell_angle_beta   76.67823029
_cell_angle_gamma   60.00000000
_symmetry_Int_Tables_number   1
_chemical_formula_structural   Li2HF
_chemical_formula_sum   'Li2 H1 F1'
_cell_volume   46.65978313
_cell_formula_units_Z   1
loop_
 _symmetry_equiv_pos_site_id
 _symmetry_equiv_pos_as_xyz
  1  'x, y, z'
loop_
 _atom_site_type_symbol
 _atom_site_label
 _atom_site_symmetry_multiplicity
 _atom_site_fract_x
 _atom_site_fract_y
 _atom_site_fract_z
 _atom_site_occupancy
  Li  Li0  1  0.49999999  0.49999999  0.49999998  1
  Li  Li1  1  0.00000000  0.00000000  0.00000000  1
  H  H2  1  0.88904098  0.88904099  0.33287696  1
  F  F3  1  0.11095900  0.11095900  0.66712299  1
