# generated using pymatgen
data_ErSnPt
_symmetry_space_group_name_H-M   'P 1'
_cell_length_a   3.97927999
_cell_length_b   7.53302622
_cell_length_c   7.53302622
_cell_angle_alpha   120.00000000
_cell_angle_beta   90.00000000
_cell_angle_gamma   90.00000000
_symmetry_Int_Tables_number   1
_chemical_formula_structural   ErSnPt
_chemical_formula_sum   'Er3 Sn3 Pt3'
_cell_volume   195.55732512
_cell_formula_units_Z   3
loop_
 _symmetry_equiv_pos_site_id
 _symmetry_equiv_pos_as_xyz
  1  'x, y, z'
loop_
 _atom_site_type_symbol
 _atom_site_label
 _atom_site_symmetry_multiplicity
 _atom_site_fract_x
 _atom_site_fract_y
 _atom_site_fract_z
 _atom_site_occupancy
  Er  Er0  1  0.50000000  0.58472099  0.00000001  1
  Er  Er1  1  0.50000000  0.41527899  0.41527900  1
  Er  Er2  1  0.50000000  0.00000000  0.58472099  1
  Sn  Sn3  1  -0.00000000  0.24578499  0.00000000  1
  Sn  Sn4  1  -0.00000000  0.75421498  0.75421499  1
  Sn  Sn5  1  -0.00000000  0.99999998  0.24578501  1
  Pt  Pt6  1  0.50000000  0.00000000  -0.00000000  1
  Pt  Pt7  1  -0.00000000  0.33333333  0.66666666  1
  Pt  Pt8  1  -0.00000000  0.66666665  0.33333333  1
