# generated using pymatgen
data_Er3Sn5
_symmetry_space_group_name_H-M   'P 1'
_cell_length_a   4.38891411
_cell_length_b   4.47091818
_cell_length_c   21.68545723
_cell_angle_alpha   95.91688538
_cell_angle_beta   95.80798340
_cell_angle_gamma   90.00000000
_symmetry_Int_Tables_number   1
_chemical_formula_structural   Er3Sn5
_chemical_formula_sum   'Er6 Sn10'
_cell_volume   421.05925338
_cell_formula_units_Z   2
loop_
 _symmetry_equiv_pos_site_id
 _symmetry_equiv_pos_as_xyz
  1  'x, y, z'
loop_
 _atom_site_type_symbol
 _atom_site_label
 _atom_site_symmetry_multiplicity
 _atom_site_fract_x
 _atom_site_fract_y
 _atom_site_fract_z
 _atom_site_occupancy
  Er  Er0  1  0.19241600  0.69241598  0.38483200  1
  Er  Er1  1  0.38304800  0.38304799  0.76609598  1
  Er  Er2  1  0.00000000  0.00000000  0.00000000  1
  Er  Er3  1  0.80758399  0.30758399  0.61516799  1
  Er  Er4  1  0.61695199  0.61695198  0.23390400  1
  Er  Er5  1  0.56003499  0.06003500  0.12007000  1
  Sn  Sn6  1  0.86855199  0.86855197  0.73710399  1
  Sn  Sn7  1  0.75039199  0.75039197  0.50078400  1
  Sn  Sn8  1  0.43996500  0.93996497  0.87992999  1
  Sn  Sn9  1  0.67984599  0.17984599  0.35969200  1
  Sn  Sn10  1  0.24960800  0.24960799  0.49921599  1
  Sn  Sn11  1  0.94076599  0.44076598  0.88153199  1
  Sn  Sn12  1  0.05923400  0.55923398  0.11846800  1
  Sn  Sn13  1  0.13144800  0.13144800  0.26289599  1
  Sn  Sn14  1  0.49999999  0.49999998  0.00000001  1
  Sn  Sn15  1  0.32015400  0.82015397  0.64030799  1
