# generated using pymatgen
data_Ti3Cr(CuS4)2
_symmetry_space_group_name_H-M   'P 1'
_cell_length_a   7.19783068
_cell_length_b   7.19783068
_cell_length_c   7.19783068
_cell_angle_alpha   89.18173981
_cell_angle_beta   60.44091034
_cell_angle_gamma   119.49833679
_symmetry_Int_Tables_number   1
_chemical_formula_structural   Ti3Cr(CuS4)2
_chemical_formula_sum   'Ti3 Cr1 Cu2 S8'
_cell_volume   265.53666888
_cell_formula_units_Z   1
loop_
 _symmetry_equiv_pos_site_id
 _symmetry_equiv_pos_as_xyz
  1  'x, y, z'
loop_
 _atom_site_type_symbol
 _atom_site_label
 _atom_site_symmetry_multiplicity
 _atom_site_fract_x
 _atom_site_fract_y
 _atom_site_fract_z
 _atom_site_occupancy
  Ti  Ti0  1  0.51450200  0.26450200  0.74999997  1
  Ti  Ti1  1  0.98549799  0.23549800  0.24999998  1
  Cr  Cr2  1  0.99884099  0.25000000  0.75115897  1
  Ti  Ti3  1  0.50115904  0.75000001  0.74884093  1
  Cu  Cu4  1  0.75000002  0.61977000  0.13022996  1
  Cu  Cu5  1  0.25000005  0.88023001  0.36976993  1
  S  S6  1  0.00768103  0.49218800  0.50150396  1
  S  S7  1  0.52143305  0.99523101  0.98033791  1
  S  S8  1  0.49231905  0.99081501  0.51549292  1
  S  S9  1  0.97856704  0.99822901  0.52620092  1
  S  S10  1  0.00630800  0.00781200  0.98450698  1
  S  S11  1  0.02443103  0.50476900  0.97379794  1
  S  S12  1  0.49369202  0.50918500  0.99849594  1
  S  S13  1  0.47556902  0.50177100  0.51966296  1
