# generated using pymatgen
data_VO2
_symmetry_space_group_name_H-M   'P 1'
_cell_length_a   5.88740587
_cell_length_b   6.82077885
_cell_length_c   6.82143784
_cell_angle_alpha   83.49321747
_cell_angle_beta   74.33753204
_cell_angle_gamma   74.32943726
_symmetry_Int_Tables_number   1
_chemical_formula_structural   VO2
_chemical_formula_sum   'V6 O12'
_cell_volume   253.71031442
_cell_formula_units_Z   6
loop_
 _symmetry_equiv_pos_site_id
 _symmetry_equiv_pos_as_xyz
  1  'x, y, z'
loop_
 _atom_site_type_symbol
 _atom_site_label
 _atom_site_symmetry_multiplicity
 _atom_site_fract_x
 _atom_site_fract_y
 _atom_site_fract_z
 _atom_site_occupancy
  V  V0  1  0.24474497  0.20531200  0.38682702  1
  V  V1  1  0.74446293  0.38689100  0.20572104  1
  V  V2  1  0.25524894  0.61310099  0.79470404  1
  V  V3  1  0.75550390  0.79433399  0.61317206  1
  V  V4  1  0.75006789  0.91393599  0.08611706  1
  V  V5  1  0.24997598  0.08612500  0.91380503  1
  O  O6  1  0.36480898  0.03646900  0.19306702  1
  O  O7  1  0.86463894  0.19319000  0.03689704  1
  O  O8  1  0.13521492  0.80710799  0.96331705  1
  O  O9  1  0.63537589  0.96338499  0.80661607  1
  O  O10  1  0.22585398  0.08760800  0.61855202  1
  O  O11  1  0.27399995  0.38139300  0.91247304  1
  O  O12  1  0.72641591  0.61806499  0.08707905  1
  O  O13  1  0.77369688  0.91266699  0.38187106  1
  O  O14  1  0.44552995  0.37071800  0.35035503  1
  O  O15  1  0.94626692  0.35049100  0.37028605  1
  O  O16  1  0.05444394  0.64955099  0.62937103  1
  O  O17  1  0.55374992  0.62965599  0.64977005  1
