# generated using pymatgen
data_Li3Mn5O8
_symmetry_space_group_name_H-M   'P 1'
_cell_length_a   5.66437244
_cell_length_b   5.76185799
_cell_length_c   6.17992735
_cell_angle_alpha   62.21369553
_cell_angle_beta   64.18872070
_cell_angle_gamma   90.00000000
_symmetry_Int_Tables_number   1
_chemical_formula_structural   Li3Mn5O8
_chemical_formula_sum   'Li3 Mn5 O8'
_cell_volume   155.33230520
_cell_formula_units_Z   1
loop_
 _symmetry_equiv_pos_site_id
 _symmetry_equiv_pos_as_xyz
  1  'x, y, z'
loop_
 _atom_site_type_symbol
 _atom_site_label
 _atom_site_symmetry_multiplicity
 _atom_site_fract_x
 _atom_site_fract_y
 _atom_site_fract_z
 _atom_site_occupancy
  Li  Li0  1  1.00000000  0.50000000  0.49999997  1
  Li  Li1  1  0.49999999  0.00000000  -0.00000003  1
  Li  Li2  1  0.00000000  0.00000000  0.50000001  1
  Mn  Mn3  1  0.00000001  0.50000000  0.00000001  1
  Mn  Mn4  1  0.50000000  0.50000000  -0.00000002  1
  Mn  Mn5  1  0.00000000  0.00000000  0.00000000  1
  Mn  Mn6  1  0.50000000  0.50000000  0.49999999  1
  Mn  Mn7  1  0.49999999  0.00000000  0.49999998  1
  O  O8  1  0.24383201  0.71604799  0.56790402  1
  O  O9  1  0.76968800  0.29344000  0.94942699  1
  O  O10  1  0.76968800  0.75713299  0.94942700  1
  O  O11  1  0.23992100  0.20631600  0.58736801  1
  O  O12  1  0.76007901  0.79368399  0.41263198  1
  O  O13  1  0.23031200  0.24286700  0.05057299  1
  O  O14  1  0.23031201  0.70655999  0.05057300  1
  O  O15  1  0.75616800  0.28395200  0.43209597  1
