# generated using pymatgen
data_MgIn2
_symmetry_space_group_name_H-M   'P 1'
_cell_length_a   3.29569006
_cell_length_b   5.51027918
_cell_length_c   9.08603096
_cell_angle_alpha   90.00000000
_cell_angle_beta   100.44899750
_cell_angle_gamma   90.00000000
_symmetry_Int_Tables_number   1
_chemical_formula_structural   MgIn2
_chemical_formula_sum   'Mg2 In4'
_cell_volume   162.26758503
_cell_formula_units_Z   2
loop_
 _symmetry_equiv_pos_site_id
 _symmetry_equiv_pos_as_xyz
  1  'x, y, z'
loop_
 _atom_site_type_symbol
 _atom_site_label
 _atom_site_symmetry_multiplicity
 _atom_site_fract_x
 _atom_site_fract_y
 _atom_site_fract_z
 _atom_site_occupancy
  Mg  Mg0  1  0.22200099  0.49999998  0.44400200  1
  Mg  Mg1  1  0.99962297  0.00000000  0.99924600  1
  In  In2  1  0.66944698  0.00000000  0.33889399  1
  In  In3  1  0.33184899  0.00000000  0.66369801  1
  In  In4  1  0.55918998  0.49999998  0.11837999  1
  In  In5  1  0.88573897  0.49999998  0.77147799  1
