# generated using pymatgen
data_Mg5Tl
_symmetry_space_group_name_H-M   'P 1'
_cell_length_a   3.43328595
_cell_length_b   6.05149698
_cell_length_c   8.17240143
_cell_angle_alpha   110.42784119
_cell_angle_beta   90.00000000
_cell_angle_gamma   106.47950745
_symmetry_Int_Tables_number   1
_chemical_formula_structural   Mg5Tl
_chemical_formula_sum   'Mg5 Tl1'
_cell_volume   151.65088729
_cell_formula_units_Z   1
loop_
 _symmetry_equiv_pos_site_id
 _symmetry_equiv_pos_as_xyz
  1  'x, y, z'
loop_
 _atom_site_type_symbol
 _atom_site_label
 _atom_site_symmetry_multiplicity
 _atom_site_fract_x
 _atom_site_fract_y
 _atom_site_fract_z
 _atom_site_occupancy
  Mg  Mg0  1  0.80588293  0.61176598  0.36083597  1
  Mg  Mg1  1  0.19411695  0.38823399  0.63916397  1
  Mg  Mg2  1  0.85933592  0.71867197  0.96676095  1
  Mg  Mg3  1  0.14066397  0.28132799  0.03323899  1
  Mg  Mg4  1  0.52777800  0.05555600  0.31282499  1
  Tl  Tl5  1  0.47222189  0.94444397  0.68717495  1
