# generated using pymatgen
data_Na3CuF6
_symmetry_space_group_name_H-M   'P 1'
_cell_length_a   5.62992191
_cell_length_b   5.86955309
_cell_length_c   8.12858105
_cell_angle_alpha   90.00000000
_cell_angle_beta   89.75477600
_cell_angle_gamma   90.00000000
_symmetry_Int_Tables_number   1
_chemical_formula_structural   Na3CuF6
_chemical_formula_sum   'Na6 Cu2 F12'
_cell_volume   268.60752109
_cell_formula_units_Z   2
loop_
 _symmetry_equiv_pos_site_id
 _symmetry_equiv_pos_as_xyz
  1  'x, y, z'
loop_
 _atom_site_type_symbol
 _atom_site_label
 _atom_site_symmetry_multiplicity
 _atom_site_fract_x
 _atom_site_fract_y
 _atom_site_fract_z
 _atom_site_occupancy
  Na  Na0  1  0.98401402  0.55322299  0.74420504  1
  Na  Na1  1  0.51598601  0.05322300  0.75579504  1
  Na  Na2  1  0.01598600  0.44677699  0.25579501  1
  Na  Na3  1  0.48401401  0.94677699  0.24420501  1
  Na  Na4  1  0.50000001  0.49999999  0.00000000  1
  Na  Na5  1  0.00000000  0.00000000  0.50000002  1
  Cu  Cu6  1  0.50000001  0.49999999  0.50000003  1
  Cu  Cu7  1  0.00000000  0.00000000  0.00000000  1
  F  F8  1  0.32900101  0.22593100  0.42813502  1
  F  F9  1  0.17099900  0.72593099  0.07186500  1
  F  F10  1  0.67099901  0.77406899  0.57186503  1
  F  F11  1  0.82900101  0.27406900  0.92813505  1
  F  F12  1  0.78190101  0.32066800  0.54966603  1
  F  F13  1  0.71809901  0.82066799  0.95033405  1
  F  F14  1  0.21809900  0.67933199  0.45033402  1
  F  F15  1  0.28190100  0.17933200  0.04966600  1
  F  F16  1  0.88535401  0.05679600  0.22454201  1
  F  F17  1  0.61464601  0.55679599  0.27545802  1
  F  F18  1  0.11464600  0.94320399  0.77545804  1
  F  F19  1  0.38535401  0.44320399  0.72454204  1
