# generated using pymatgen
data_Cs
_symmetry_space_group_name_H-M   'P 1'
_cell_length_a   12.29908371
_cell_length_b   12.29908371
_cell_length_c   12.29908371
_cell_angle_alpha   90.00000000
_cell_angle_beta   90.00000000
_cell_angle_gamma   90.00000000
_symmetry_Int_Tables_number   1
_chemical_formula_structural   Cs
_chemical_formula_sum   Cs20
_cell_volume   1860.45115431
_cell_formula_units_Z   20
loop_
 _symmetry_equiv_pos_site_id
 _symmetry_equiv_pos_as_xyz
  1  'x, y, z'
loop_
 _atom_site_type_symbol
 _atom_site_label
 _atom_site_symmetry_multiplicity
 _atom_site_fract_x
 _atom_site_fract_y
 _atom_site_fract_z
 _atom_site_occupancy
  Cs  Cs0  1  0.87500002  0.70278302  0.04721700  1
  Cs  Cs1  1  0.06276800  0.06276800  0.06276800  1
  Cs  Cs2  1  0.20278300  0.45278301  0.12500000  1
  Cs  Cs3  1  0.81276802  0.31276801  0.18723200  1
  Cs  Cs4  1  0.45278301  0.12500000  0.20278300  1
  Cs  Cs5  1  0.54721701  0.62500001  0.29721701  1
  Cs  Cs6  1  0.18723200  0.81276802  0.31276801  1
  Cs  Cs7  1  0.79721702  0.95278302  0.37500001  1
  Cs  Cs8  1  0.93723202  0.56276801  0.43723201  1
  Cs  Cs9  1  0.12500000  0.20278300  0.45278301  1
  Cs  Cs10  1  0.62500001  0.29721701  0.54721701  1
  Cs  Cs11  1  0.43723201  0.93723202  0.56276801  1
  Cs  Cs12  1  0.29721701  0.54721701  0.62500001  1
  Cs  Cs13  1  0.68723202  0.68723202  0.68723202  1
  Cs  Cs14  1  0.04721700  0.87500002  0.70278302  1
  Cs  Cs15  1  0.95278302  0.37500001  0.79721702  1
  Cs  Cs16  1  0.31276801  0.18723200  0.81276802  1
  Cs  Cs17  1  0.70278302  0.04721700  0.87500002  1
  Cs  Cs18  1  0.56276801  0.43723201  0.93723202  1
  Cs  Cs19  1  0.37500001  0.79721702  0.95278302  1
