# generated using pymatgen
data_CeCoSi3
_symmetry_space_group_name_H-M   'P 1'
_cell_length_a   4.13509178
_cell_length_b   4.13509178
_cell_length_c   5.65025520
_cell_angle_alpha   111.46426392
_cell_angle_beta   111.46426392
_cell_angle_gamma   90.00000000
_symmetry_Int_Tables_number   1
_chemical_formula_structural   CeCoSi3
_chemical_formula_sum   'Ce1 Co1 Si3'
_cell_volume   82.67122674
_cell_formula_units_Z   1
loop_
 _symmetry_equiv_pos_site_id
 _symmetry_equiv_pos_as_xyz
  1  'x, y, z'
loop_
 _atom_site_type_symbol
 _atom_site_label
 _atom_site_symmetry_multiplicity
 _atom_site_fract_x
 _atom_site_fract_y
 _atom_site_fract_z
 _atom_site_occupancy
  Ce  Ce0  1  0.98709809  0.98709807  0.97419604  1
  Co  Co1  1  0.74084005  0.24084002  0.48168002  1
  Si  Si2  1  0.24084003  0.74084005  0.48168002  1
  Si  Si3  1  0.39645703  0.39645703  0.79291401  1
  Si  Si4  1  0.63476505  0.63476504  0.26953003  1
