# generated using pymatgen
data_Ca4In9Ni7
_symmetry_space_group_name_H-M   'P 1'
_cell_length_a   3.84043789
_cell_length_b   7.65585995
_cell_length_c   15.61574745
_cell_angle_alpha   90.00000000
_cell_angle_beta   90.00000000
_cell_angle_gamma   90.00000000
_symmetry_Int_Tables_number   1
_chemical_formula_structural   Ca4In9Ni7
_chemical_formula_sum   'Ca4 In9 Ni7'
_cell_volume   459.13193628
_cell_formula_units_Z   1
loop_
 _symmetry_equiv_pos_site_id
 _symmetry_equiv_pos_as_xyz
  1  'x, y, z'
loop_
 _atom_site_type_symbol
 _atom_site_label
 _atom_site_symmetry_multiplicity
 _atom_site_fract_x
 _atom_site_fract_y
 _atom_site_fract_z
 _atom_site_occupancy
  Ca  Ca0  1  0.00000000  0.60650000  0.21618199  1
  Ca  Ca1  1  0.00000000  0.39350000  0.78381798  1
  Ca  Ca2  1  0.00000000  0.10650000  0.28381799  1
  Ca  Ca3  1  0.00000000  0.89350001  0.71618198  1
  In  In4  1  0.00000000  0.74719801  0.96409597  1
  In  In5  1  0.00000000  0.25280200  0.03590400  1
  In  In6  1  0.00000000  0.24719800  0.53590398  1
  In  In7  1  0.00000000  0.75280201  0.46409599  1
  In  In8  1  0.50000001  0.42346100  0.37092699  1
  In  In9  1  0.50000001  0.57653900  0.62907298  1
  In  In10  1  0.50000001  0.92346101  0.12907300  1
  In  In11  1  0.50000001  0.07653900  0.87092697  1
  Ni  Ni12  1  0.50000001  0.55554900  0.07437500  1
  In  In13  1  0.50000001  0.44445100  0.92562497  1
  Ni  Ni14  1  0.50000001  0.05554900  0.42562499  1
  Ni  Ni15  1  0.50000001  0.94445101  0.57437498  1
  Ni  Ni16  1  0.50000001  0.30653000  0.18152899  1
  Ni  Ni17  1  0.50000001  0.69347000  0.81847098  1
  Ni  Ni18  1  0.50000001  0.80653001  0.31847099  1
  Ni  Ni19  1  0.50000001  0.19347000  0.68152898  1
