# generated using pymatgen
data_SrFeO3
_symmetry_space_group_name_H-M   'P 1'
_cell_length_a   5.53879118
_cell_length_b   5.53987217
_cell_length_c   5.53989983
_cell_angle_alpha   60.54876709
_cell_angle_beta   60.55853271
_cell_angle_gamma   60.56060410
_symmetry_Int_Tables_number   1
_chemical_formula_structural   SrFeO3
_chemical_formula_sum   'Sr2 Fe2 O6'
_cell_volume   121.70894503
_cell_formula_units_Z   2
loop_
 _symmetry_equiv_pos_site_id
 _symmetry_equiv_pos_as_xyz
  1  'x, y, z'
loop_
 _atom_site_type_symbol
 _atom_site_label
 _atom_site_symmetry_multiplicity
 _atom_site_fract_x
 _atom_site_fract_y
 _atom_site_fract_z
 _atom_site_occupancy
  Sr  Sr0  1  0.75000002  0.75000400  0.74999700  1
  Sr  Sr1  1  0.25000301  0.24999000  0.25000800  1
  Fe  Fe2  1  0.49984001  0.49983200  0.49982900  1
  Fe  Fe3  1  0.00015900  0.00017100  0.00016900  1
  O  O4  1  0.20655001  0.29345200  0.75000101  1
  O  O5  1  0.75000102  0.20653700  0.29345999  1
  O  O6  1  0.29345401  0.74999800  0.20654600  1
  O  O7  1  0.24999900  0.81048300  0.68951901  1
  O  O8  1  0.68953402  0.24999900  0.81046900  1
  O  O9  1  0.81046002  0.68953500  0.25000099  1
