# generated using pymatgen
data_CsPS3
_symmetry_space_group_name_H-M   'P 1'
_cell_length_a   7.20444584
_cell_length_b   7.47057581
_cell_length_c   7.47057581
_cell_angle_alpha   74.34119415
_cell_angle_beta   61.17158890
_cell_angle_gamma   61.17158890
_symmetry_Int_Tables_number   1
_chemical_formula_structural   CsPS3
_chemical_formula_sum   'Cs2 P2 S6'
_cell_volume   308.22490499
_cell_formula_units_Z   2
loop_
 _symmetry_equiv_pos_site_id
 _symmetry_equiv_pos_as_xyz
  1  'x, y, z'
loop_
 _atom_site_type_symbol
 _atom_site_label
 _atom_site_symmetry_multiplicity
 _atom_site_fract_x
 _atom_site_fract_y
 _atom_site_fract_z
 _atom_site_occupancy
  Cs  Cs0  1  0.49999999  0.74172498  0.25827503  1
  Cs  Cs1  1  0.50000000  0.25827499  0.74172499  1
  P  P2  1  0.84301100  0.65698898  0.65698902  1
  P  P3  1  0.15698899  0.34301099  0.34301101  1
  S  S4  1  -0.00000001  0.32623599  0.67376400  1
  S  S5  1  0.97162400  0.76431098  0.76431102  1
  S  S6  1  0.50024601  0.23568899  0.23568901  1
  S  S7  1  -0.00000002  0.67376398  0.32623603  1
  S  S8  1  0.49975399  0.76431098  0.76431102  1
  S  S9  1  0.02837599  0.23568899  0.23568901  1
