# generated using pymatgen
data_HfO2
_symmetry_space_group_name_H-M   'P 1'
_cell_length_a   5.07227182
_cell_length_b   5.12871790
_cell_length_c   5.30470800
_cell_angle_alpha   90.00000000
_cell_angle_beta   80.75089264
_cell_angle_gamma   90.00000000
_symmetry_Int_Tables_number   1
_chemical_formula_structural   HfO2
_chemical_formula_sum   'Hf4 O8'
_cell_volume   136.20387713
_cell_formula_units_Z   4
loop_
 _symmetry_equiv_pos_site_id
 _symmetry_equiv_pos_as_xyz
  1  'x, y, z'
loop_
 _atom_site_type_symbol
 _atom_site_label
 _atom_site_symmetry_multiplicity
 _atom_site_fract_x
 _atom_site_fract_y
 _atom_site_fract_z
 _atom_site_occupancy
  Hf  Hf0  1  0.71808802  0.53885801  0.46329504  1
  Hf  Hf1  1  0.28191201  0.03885800  0.53670503  1
  Hf  Hf2  1  0.71202502  0.94585602  0.96261006  1
  Hf  Hf3  1  0.28797501  0.44585601  0.03739001  1
  O  O4  1  0.44769801  0.73365301  0.78841905  1
  O  O5  1  0.55230202  0.23365300  0.21158103  1
  O  O6  1  0.93939203  0.68917701  0.09965603  1
  O  O7  1  0.06060800  0.18917700  0.90034404  1
  O  O8  1  0.07562000  0.34424601  0.39895002  1
  O  O9  1  0.92438003  0.84424602  0.60105005  1
  O  O10  1  0.55388902  0.24731000  0.72876105  1
  O  O11  1  0.44611101  0.74731001  0.27123902  1
