# generated using pymatgen
data_KGaP3
_symmetry_space_group_name_H-M   'P 1'
_cell_length_a   5.60180616
_cell_length_b   7.41837215
_cell_length_c   7.41837215
_cell_angle_alpha   60.00000000
_cell_angle_beta   90.00000000
_cell_angle_gamma   90.00000000
_symmetry_Int_Tables_number   1
_chemical_formula_structural   KGaP3
_chemical_formula_sum   'K2 Ga2 P6'
_cell_volume   266.97828688
_cell_formula_units_Z   2
loop_
 _symmetry_equiv_pos_site_id
 _symmetry_equiv_pos_as_xyz
  1  'x, y, z'
loop_
 _atom_site_type_symbol
 _atom_site_label
 _atom_site_symmetry_multiplicity
 _atom_site_fract_x
 _atom_site_fract_y
 _atom_site_fract_z
 _atom_site_occupancy
  K  K0  1  0.74999998  0.66666666  0.66666666  1
  K  K1  1  0.24999999  0.33333333  0.33333333  1
  Ga  Ga2  1  0.49999999  0.00000000  0.00000000  1
  Ga  Ga3  1  0.00000000  0.00000000  0.00000000  1
  P  P4  1  0.24999999  0.32612700  0.83693701  1
  P  P5  1  0.74999998  0.16306400  0.67387201  1
  P  P6  1  0.74999998  0.16306400  0.16306300  1
  P  P7  1  0.24999999  0.83693600  0.83693700  1
  P  P8  1  0.74999998  0.67387300  0.16306298  1
  P  P9  1  0.24999999  0.83693600  0.32612798  1
