# generated using pymatgen
data_KTbBeF6
_symmetry_space_group_name_H-M   'P 1'
_cell_length_a   5.85754108
_cell_length_b   6.52466297
_cell_length_c   7.18260670
_cell_angle_alpha   113.66165161
_cell_angle_beta   90.00000000
_cell_angle_gamma   90.00000000
_symmetry_Int_Tables_number   1
_chemical_formula_structural   KTbBeF6
_chemical_formula_sum   'K2 Tb2 Be2 F12'
_cell_volume   251.43079426
_cell_formula_units_Z   2
loop_
 _symmetry_equiv_pos_site_id
 _symmetry_equiv_pos_as_xyz
  1  'x, y, z'
loop_
 _atom_site_type_symbol
 _atom_site_label
 _atom_site_symmetry_multiplicity
 _atom_site_fract_x
 _atom_site_fract_y
 _atom_site_fract_z
 _atom_site_occupancy
  K  K0  1  0.74999999  0.92305801  0.79044400  1
  K  K1  1  0.25000000  0.07694200  0.20955600  1
  Tb  Tb2  1  0.74999999  0.60930201  0.17977301  1
  Tb  Tb3  1  0.25000000  0.39069801  0.82022699  1
  Be  Be4  1  0.74999999  0.23401000  0.46472499  1
  Be  Be5  1  0.25000000  0.76599001  0.53527500  1
  F  F6  1  0.53401199  0.23957400  0.59669399  1
  F  F7  1  0.46598799  0.76042601  0.40330601  1
  F  F8  1  0.03401200  0.76042601  0.40330601  1
  F  F9  1  0.96598799  0.23957400  0.59669399  1
  F  F10  1  0.74999999  0.43405501  0.40048200  1
  F  F11  1  0.25000000  0.56594501  0.59951800  1
  F  F12  1  0.50080399  0.32712000  0.03217401  1
  F  F13  1  0.49919599  0.67288001  0.96782599  1
  F  F14  1  0.00080400  0.67288001  0.96782599  1
  F  F15  1  0.99919599  0.32712000  0.03217401  1
  F  F16  1  0.74999999  0.00723900  0.26900499  1
  F  F17  1  0.25000000  0.99276101  0.73099500  1
