# generated using pymatgen
data_Al7Rh9
_symmetry_space_group_name_H-M   'P 1'
_cell_length_a   4.13240290
_cell_length_b   5.42380095
_cell_length_c   10.52923107
_cell_angle_alpha   90.00000000
_cell_angle_beta   90.00000000
_cell_angle_gamma   90.00000000
_symmetry_Int_Tables_number   1
_chemical_formula_structural   Al7Rh9
_chemical_formula_sum   'Al7 Rh9'
_cell_volume   235.99513843
_cell_formula_units_Z   1
loop_
 _symmetry_equiv_pos_site_id
 _symmetry_equiv_pos_as_xyz
  1  'x, y, z'
loop_
 _atom_site_type_symbol
 _atom_site_label
 _atom_site_symmetry_multiplicity
 _atom_site_fract_x
 _atom_site_fract_y
 _atom_site_fract_z
 _atom_site_occupancy
  Al  Al0  1  0.00000000  0.00000000  0.00000000  1
  Al  Al1  1  0.00000000  0.50000001  0.50000000  1
  Al  Al2  1  0.50000001  0.33978100  0.14374000  1
  Al  Al3  1  0.50000001  0.66021901  0.85625999  1
  Al  Al4  1  0.50000001  0.83978101  0.35626000  1
  Al  Al5  1  0.50000001  0.16021900  0.64374000  1
  Al  Al6  1  0.00000000  0.00000000  0.50000000  1
  Rh  Rh7  1  0.00000000  0.50000001  0.00000000  1
  Rh  Rh8  1  -0.00000000  0.10298600  0.23601800  1
  Rh  Rh9  1  0.00000000  0.89701401  0.76398199  1
  Rh  Rh10  1  0.00000000  0.60298601  0.26398200  1
  Rh  Rh11  1  0.00000000  0.39701400  0.73601800  1
  Rh  Rh12  1  0.50000001  0.31373400  0.39289000  1
  Rh  Rh13  1  0.50000001  0.68626601  0.60711000  1
  Rh  Rh14  1  0.50000001  0.81373401  0.10711000  1
  Rh  Rh15  1  0.50000001  0.18626600  0.89288999  1
