# generated using pymatgen
data_Na2BiCO5
_symmetry_space_group_name_H-M   'P 1'
_cell_length_a   3.40826297
_cell_length_b   9.16008759
_cell_length_c   9.16008854
_cell_angle_alpha   120.00000000
_cell_angle_beta   90.00000000
_cell_angle_gamma   90.00000000
_symmetry_Int_Tables_number   1
_chemical_formula_structural   Na2BiCO5
_chemical_formula_sum   'Na4 Bi2 C2 O10'
_cell_volume   247.66408118
_cell_formula_units_Z   2
loop_
 _symmetry_equiv_pos_site_id
 _symmetry_equiv_pos_as_xyz
  1  'x, y, z'
loop_
 _atom_site_type_symbol
 _atom_site_label
 _atom_site_symmetry_multiplicity
 _atom_site_fract_x
 _atom_site_fract_y
 _atom_site_fract_z
 _atom_site_occupancy
  Na  Na0  1  0.50000000  0.33431402  0.34160498  1
  Na  Na1  1  0.50000000  0.65839503  0.99270895  1
  Na  Na2  1  0.50000000  0.00729100  0.66568597  1
  Na  Na3  1  -0.00000000  0.33599002  0.03329100  1
  Bi  Bi4  1  -0.00000000  0.96670905  0.30269899  1
  Bi  Bi5  1  -0.00000000  0.69730103  0.66400997  1
  C  C6  1  0.50000000  0.00000000  -0.00000000  1
  C  C7  1  0.50000000  0.66666670  0.33333332  1
  O  O8  1  -0.00000000  0.33333335  0.66666664  1
  O  O9  1  0.50000000  0.05389000  0.16120899  1
  O  O10  1  0.50000000  0.83879104  0.89268096  1
  O  O11  1  0.50000000  0.10731901  0.94610995  1
  O  O12  1  0.50000000  0.61129103  0.43939598  1
  O  O13  1  0.50000000  0.82810504  0.38870899  1
  O  O14  1  0.50000000  0.56060403  0.17189499  1
  O  O15  1  -0.00000000  0.49755102  0.75863596  1
  O  O16  1  -0.00000000  0.24136401  0.73891496  1
  O  O17  1  -0.00000000  0.26108501  0.50244898  1
