# generated using pymatgen
data_Sc2B2MoRh5
_symmetry_space_group_name_H-M   'P 1'
_cell_length_a   3.07790709
_cell_length_b   9.35611725
_cell_length_c   9.35611725
_cell_angle_alpha   90.00000000
_cell_angle_beta   90.00000000
_cell_angle_gamma   90.00000000
_symmetry_Int_Tables_number   1
_chemical_formula_structural   Sc2B2MoRh5
_chemical_formula_sum   'Sc4 B4 Mo2 Rh10'
_cell_volume   269.43053699
_cell_formula_units_Z   2
loop_
 _symmetry_equiv_pos_site_id
 _symmetry_equiv_pos_as_xyz
  1  'x, y, z'
loop_
 _atom_site_type_symbol
 _atom_site_label
 _atom_site_symmetry_multiplicity
 _atom_site_fract_x
 _atom_site_fract_y
 _atom_site_fract_z
 _atom_site_occupancy
  Sc  Sc0  1  -0.00000000  0.67553098  0.17553100  1
  Sc  Sc1  1  0.00000000  0.32446899  0.82446898  1
  Sc  Sc2  1  -0.00000000  0.17553100  0.32446899  1
  Sc  Sc3  1  0.00000000  0.82446898  0.67553098  1
  Mo  Mo4  1  0.00000000  0.00000000  0.00000000  1
  Mo  Mo5  1  0.00000000  0.49999999  0.49999999  1
  B  B6  1  -0.00000000  0.12430200  0.62430198  1
  B  B7  1  -0.00000000  0.87569798  0.37569799  1
  B  B8  1  -0.00000000  0.62430198  0.87569798  1
  B  B9  1  -0.00000000  0.37569799  0.12430200  1
  Rh  Rh10  1  0.49999999  0.21353099  0.07021400  1
  Rh  Rh11  1  0.49999999  0.78646898  0.92978598  1
  Rh  Rh12  1  0.49999999  0.07021400  0.78646898  1
  Rh  Rh13  1  0.49999999  0.71353098  0.42978599  1
  Rh  Rh14  1  0.49999999  0.92978598  0.21353099  1
  Rh  Rh15  1  0.49999999  0.28646899  0.57021398  1
  Rh  Rh16  1  0.49999999  0.57021398  0.71353098  1
  Rh  Rh17  1  0.49999999  0.42978599  0.28646899  1
  Rh  Rh18  1  0.49999999  0.49999999  0.00000000  1
  Rh  Rh19  1  0.49999999  0.00000000  0.49999999  1
