# generated using pymatgen
data_Li2PO4F
_symmetry_space_group_name_H-M   'P 1'
_cell_length_a   5.16949797
_cell_length_b   5.35147429
_cell_length_c   7.33223867
_cell_angle_alpha   109.99589539
_cell_angle_beta   105.10085297
_cell_angle_gamma   99.12675476
_symmetry_Int_Tables_number   1
_chemical_formula_structural   Li2PO4F
_chemical_formula_sum   'Li4 P2 O8 F2'
_cell_volume   177.04037144
_cell_formula_units_Z   2
loop_
 _symmetry_equiv_pos_site_id
 _symmetry_equiv_pos_as_xyz
  1  'x, y, z'
loop_
 _atom_site_type_symbol
 _atom_site_label
 _atom_site_symmetry_multiplicity
 _atom_site_fract_x
 _atom_site_fract_y
 _atom_site_fract_z
 _atom_site_occupancy
  Li  Li0  1  0.92305402  0.56784504  0.19078599  1
  Li  Li1  1  0.07694602  0.43215503  0.80921401  1
  Li  Li2  1  0.00000000  0.00000000  0.00000000  1
  Li  Li3  1  0.50000002  0.50000003  0.50000000  1
  P  P4  1  0.44597600  0.12001401  0.76464497  1
  P  P5  1  0.55402404  0.87998606  0.23535503  1
  O  O6  1  0.34862801  0.31056802  0.65811599  1
  O  O7  1  0.65137203  0.68943205  0.34188401  1
  O  O8  1  0.71533003  0.84558606  0.07866802  1
  O  O9  1  0.63693200  0.18331501  0.38761898  1
  O  O10  1  0.28467000  0.15441401  0.92133198  1
  O  O11  1  0.36306804  0.81668506  0.61238102  1
  O  O12  1  0.76440000  0.22938902  0.88866496  1
  O  O13  1  0.23560004  0.77061105  0.11133504  1
  F  F14  1  0.13207102  0.33294502  0.26839201  1
  F  F15  1  0.86792902  0.66705505  0.73160799  1
