# generated using pymatgen
data_NdCS2
_symmetry_space_group_name_H-M   'P 1'
_cell_length_a   3.87028193
_cell_length_b   7.66708612
_cell_length_c   10.48034286
_cell_angle_alpha   90.00000000
_cell_angle_beta   90.00000000
_cell_angle_gamma   90.00000000
_symmetry_Int_Tables_number   1
_chemical_formula_structural   NdCS2
_chemical_formula_sum   'Nd4 C4 S8'
_cell_volume   310.99144006
_cell_formula_units_Z   4
loop_
 _symmetry_equiv_pos_site_id
 _symmetry_equiv_pos_as_xyz
  1  'x, y, z'
loop_
 _atom_site_type_symbol
 _atom_site_label
 _atom_site_symmetry_multiplicity
 _atom_site_fract_x
 _atom_site_fract_y
 _atom_site_fract_z
 _atom_site_occupancy
  Nd  Nd0  1  0.25000000  0.99450598  0.39029401  1
  Nd  Nd1  1  0.25000000  0.49450599  0.10970600  1
  Nd  Nd2  1  0.75000001  0.00549400  0.60970601  1
  Nd  Nd3  1  0.75000001  0.50549399  0.89029401  1
  C  C4  1  0.25000000  0.13824700  0.86400301  1
  C  C5  1  0.25000000  0.63824699  0.63599701  1
  S  S6  1  0.75000001  0.86175299  0.13599700  1
  S  S7  1  0.75000001  0.36175299  0.36400300  1
  C  C8  1  0.25000000  0.23106300  0.56951301  1
  S  S9  1  0.25000000  0.73106299  0.93048701  1
  S  S10  1  0.75000001  0.76893699  0.43048701  1
  S  S11  1  0.75000001  0.26893700  0.06951300  1
  S  S12  1  0.25000000  0.66349999  0.32094600  1
  C  C13  1  0.25000000  0.16350000  0.17905400  1
  S  S14  1  0.75000001  0.33649999  0.67905401  1
  S  S15  1  0.75000001  0.83649999  0.82094601  1
