# generated using pymatgen
data_K2O2
_symmetry_space_group_name_H-M   'P 1'
_cell_length_a   6.79066277
_cell_length_b   6.79066277
_cell_length_c   6.79066277
_cell_angle_alpha   109.47122192
_cell_angle_beta   109.47122192
_cell_angle_gamma   109.47122192
_symmetry_Int_Tables_number   1
_chemical_formula_structural   K2O2
_chemical_formula_sum   'K4 O4'
_cell_volume   241.05413094
_cell_formula_units_Z   2
loop_
 _symmetry_equiv_pos_site_id
 _symmetry_equiv_pos_as_xyz
  1  'x, y, z'
loop_
 _atom_site_type_symbol
 _atom_site_label
 _atom_site_symmetry_multiplicity
 _atom_site_fract_x
 _atom_site_fract_y
 _atom_site_fract_z
 _atom_site_occupancy
  K  K0  1  0.00000000  0.00000000  0.00000000  1
  K  K1  1  0.50000007  1.00000005  0.50000007  1
  K  K2  1  1.00000005  0.50000002  0.50000005  1
  K  K3  1  0.50000004  0.50000002  0.00000004  1
  O  O4  1  0.33737207  1.00000005  0.00000006  1
  O  O5  1  1.00000004  0.33737202  0.00000004  1
  O  O6  1  0.00000000  0.00000000  0.33737200  1
  O  O7  1  0.66262805  0.66262803  0.66262806  1
