# generated using pymatgen
data_V4Rh5
_symmetry_space_group_name_H-M   'P 1'
_cell_length_a   2.81983995
_cell_length_b   2.85639191
_cell_length_c   12.94643593
_cell_angle_alpha   96.33351898
_cell_angle_beta   90.00000000
_cell_angle_gamma   90.00000000
_symmetry_Int_Tables_number   1
_chemical_formula_structural   V4Rh5
_chemical_formula_sum   'V4 Rh5'
_cell_volume   103.64149767
_cell_formula_units_Z   1
loop_
 _symmetry_equiv_pos_site_id
 _symmetry_equiv_pos_as_xyz
  1  'x, y, z'
loop_
 _atom_site_type_symbol
 _atom_site_label
 _atom_site_symmetry_multiplicity
 _atom_site_fract_x
 _atom_site_fract_y
 _atom_site_fract_z
 _atom_site_occupancy
  V  V0  1  0.50000001  0.72253002  0.44506002  1
  V  V1  1  1.00000002  0.27851801  0.55703602  1
  V  V2  1  0.50000001  0.61821202  0.23642401  1
  V  V3  1  0.00000000  0.38529301  0.77058603  1
  Rh  Rh4  1  0.50000001  0.01074000  0.02148000  1
  Rh  Rh5  1  0.50000001  0.84973503  0.69947003  1
  Rh  Rh6  1  1.00000002  0.15145501  0.30291001  1
  Rh  Rh7  1  0.50000001  0.44934702  0.89869403  1
  Rh  Rh8  1  0.00000000  0.55017002  0.10034001  1
