# generated using pymatgen
data_LiTi3FeO8
_symmetry_space_group_name_H-M   'P 1'
_cell_length_a   3.00627089
_cell_length_b   7.33627081
_cell_length_c   7.44028091
_cell_angle_alpha   87.31828308
_cell_angle_beta   78.34450531
_cell_angle_gamma   78.17687988
_symmetry_Int_Tables_number   1
_chemical_formula_structural   LiTi3FeO8
_chemical_formula_sum   'Li1 Ti3 Fe1 O8'
_cell_volume   157.29842709
_cell_formula_units_Z   1
loop_
 _symmetry_equiv_pos_site_id
 _symmetry_equiv_pos_as_xyz
  1  'x, y, z'
loop_
 _atom_site_type_symbol
 _atom_site_label
 _atom_site_symmetry_multiplicity
 _atom_site_fract_x
 _atom_site_fract_y
 _atom_site_fract_z
 _atom_site_occupancy
  Li  Li0  1  0.99758603  0.00397400  0.00085302  1
  Ti  Ti1  1  0.15599901  0.51366699  0.17433598  1
  Ti  Ti2  1  0.33670901  0.80895298  0.51762996  1
  Ti  Ti3  1  0.66569702  0.18356800  0.48503799  1
  Fe  Fe4  1  0.85103803  0.48339899  0.81452397  1
  O  O5  1  0.66603702  0.37485199  0.29307399  1
  O  O6  1  0.33411501  0.62932698  0.70244296  1
  O  O7  1  0.04464300  0.28992799  0.62078697  1
  O  O8  1  0.95815303  0.70834898  0.37534498  1
  O  O9  1  0.64860802  0.64704798  0.05573698  1
  O  O10  1  0.34187801  0.35552899  0.96071497  1
  O  O11  1  0.29504801  0.05012600  0.35977799  1
  O  O12  1  0.70448903  0.95127998  0.63974196  1
