# generated using pymatgen
data_Zr2CoCO3
_symmetry_space_group_name_H-M   'P 1'
_cell_length_a   3.46527648
_cell_length_b   3.46527648
_cell_length_c   8.72483635
_cell_angle_alpha   78.54566956
_cell_angle_beta   78.54566956
_cell_angle_gamma   59.99998856
_symmetry_Int_Tables_number   1
_chemical_formula_structural   Zr2CoCO3
_chemical_formula_sum   'Zr2 Co1 C1 O3'
_cell_volume   88.31498616
_cell_formula_units_Z   1
loop_
 _symmetry_equiv_pos_site_id
 _symmetry_equiv_pos_as_xyz
  1  'x, y, z'
loop_
 _atom_site_type_symbol
 _atom_site_label
 _atom_site_symmetry_multiplicity
 _atom_site_fract_x
 _atom_site_fract_y
 _atom_site_fract_z
 _atom_site_occupancy
  Zr  Zr0  1  0.77770401  0.77770402  0.66688801  1
  Zr  Zr1  1  0.22229600  0.22229601  0.33311201  1
  Co  Co2  1  0.00000000  0.00000000  0.00000000  1
  O  O3  1  0.37825801  0.37825801  0.86522602  1
  C  C4  1  0.13213600  0.13213600  0.60359202  1
  O  O5  1  0.86786401  0.86786403  0.39640800  1
  O  O6  1  0.62174201  0.62174202  0.13477400  1
