# generated using pymatgen
data_Ni5As6P
_symmetry_space_group_name_H-M   'P 1'
_cell_length_a   5.91058493
_cell_length_b   5.91058493
_cell_length_c   5.91058493
_cell_angle_alpha   90.00000000
_cell_angle_beta   90.00000000
_cell_angle_gamma   90.00000000
_symmetry_Int_Tables_number   1
_chemical_formula_structural   Ni5As6P
_chemical_formula_sum   'Ni5 As6 P1'
_cell_volume   206.48636819
_cell_formula_units_Z   1
loop_
 _symmetry_equiv_pos_site_id
 _symmetry_equiv_pos_as_xyz
  1  'x, y, z'
loop_
 _atom_site_type_symbol
 _atom_site_label
 _atom_site_symmetry_multiplicity
 _atom_site_fract_x
 _atom_site_fract_y
 _atom_site_fract_z
 _atom_site_occupancy
  Ni  Ni0  1  0.11285700  0.88714301  0.38714300  1
  Ni  Ni1  1  0.88714301  0.38714300  0.11285700  1
  Ni  Ni2  1  0.38714300  0.11285700  0.88714301  1
  Ni  Ni3  1  0.61285701  0.61285701  0.61285701  1
  As  As4  1  0.88539601  0.11460400  0.61460401  1
  Ni  Ni5  1  0.11460400  0.61460401  0.88539601  1
  As  As6  1  0.61460401  0.88539601  0.11460400  1
  P  P7  1  0.38539600  0.38539600  0.38539600  1
  As  As8  1  0.49085901  0.50914101  0.00914100  1
  As  As9  1  0.50914101  0.00914100  0.49085901  1
  As  As10  1  0.00914100  0.49085901  0.50914101  1
  As  As11  1  0.99085901  0.99085901  0.99085901  1
