# generated using pymatgen
data_Nd5Ta3(MoN2)4
_symmetry_space_group_name_H-M   'P 1'
_cell_length_a   5.15645313
_cell_length_b   6.59178877
_cell_length_c   9.90454006
_cell_angle_alpha   90.00000000
_cell_angle_beta   90.00000000
_cell_angle_gamma   90.00000000
_symmetry_Int_Tables_number   1
_chemical_formula_structural   Nd5Ta3(MoN2)4
_chemical_formula_sum   'Nd5 Ta3 Mo4 N8'
_cell_volume   336.65779132
_cell_formula_units_Z   1
loop_
 _symmetry_equiv_pos_site_id
 _symmetry_equiv_pos_as_xyz
  1  'x, y, z'
loop_
 _atom_site_type_symbol
 _atom_site_label
 _atom_site_symmetry_multiplicity
 _atom_site_fract_x
 _atom_site_fract_y
 _atom_site_fract_z
 _atom_site_occupancy
  Nd  Nd0  1  0.74999998  0.81780503  0.05482100  1
  Nd  Nd1  1  0.24999999  0.68219502  0.55482100  1
  Nd  Nd2  1  0.74999998  0.31780501  0.44517900  1
  Nd  Nd3  1  0.24999999  0.18219501  0.94517899  1
  Ta  Ta4  1  0.74999998  0.47005102  0.78391900  1
  Nd  Nd5  1  0.24999999  0.02994900  0.28391900  1
  Ta  Ta6  1  0.74999998  0.97005103  0.71608100  1
  Ta  Ta7  1  0.24999999  0.52994902  0.21608100  1
  Mo  Mo8  1  0.74999998  0.27696401  0.13500600  1
  Mo  Mo9  1  0.24999999  0.22303601  0.63500600  1
  Mo  Mo10  1  0.74999998  0.77696403  0.36499400  1
  Mo  Mo11  1  0.24999999  0.72303603  0.86499399  1
  N  N12  1  0.74999998  0.17821201  0.95161999  1
  N  N13  1  0.24999999  0.82178803  0.04838000  1
  N  N14  1  0.74999998  0.67821202  0.54838000  1
  N  N15  1  0.24999999  0.32178801  0.45162000  1
  N  N16  1  0.74999998  0.04301800  0.25885600  1
  N  N17  1  0.24999999  0.45698202  0.75885600  1
  N  N18  1  0.74999998  0.54301802  0.24114400  1
  N  N19  1  0.24999999  0.95698203  0.74114400  1
