# generated using pymatgen
data_Mg5In
_symmetry_space_group_name_H-M   'P 1'
_cell_length_a   3.32941604
_cell_length_b   5.15151596
_cell_length_c   8.50019073
_cell_angle_alpha   90.00000000
_cell_angle_beta   101.29400635
_cell_angle_gamma   90.00000000
_symmetry_Int_Tables_number   1
_chemical_formula_structural   Mg5In
_chemical_formula_sum   'Mg5 In1'
_cell_volume   142.96813245
_cell_formula_units_Z   1
loop_
 _symmetry_equiv_pos_site_id
 _symmetry_equiv_pos_as_xyz
  1  'x, y, z'
loop_
 _atom_site_type_symbol
 _atom_site_label
 _atom_site_symmetry_multiplicity
 _atom_site_fract_x
 _atom_site_fract_y
 _atom_site_fract_z
 _atom_site_occupancy
  Mg  Mg0  1  0.94084898  0.75000001  0.88169801  1
  Mg  Mg1  1  0.05915100  0.25000000  0.11830200  1
  Mg  Mg2  1  0.60535199  0.75000001  0.21070400  1
  Mg  Mg3  1  0.27552999  0.75000001  0.55106001  1
  Mg  Mg4  1  0.39464799  0.25000000  0.78929602  1
  In  In5  1  0.72446999  0.25000000  0.44894000  1
