# generated using pymatgen
data_YZrF7
_symmetry_space_group_name_H-M   'P 1'
_cell_length_a   5.68275881
_cell_length_b   6.08992338
_cell_length_c   8.25066376
_cell_angle_alpha   101.88421631
_cell_angle_beta   90.00000000
_cell_angle_gamma   90.00000000
_symmetry_Int_Tables_number   1
_chemical_formula_structural   YZrF7
_chemical_formula_sum   'Y2 Zr2 F14'
_cell_volume   279.41515220
_cell_formula_units_Z   2
loop_
 _symmetry_equiv_pos_site_id
 _symmetry_equiv_pos_as_xyz
  1  'x, y, z'
loop_
 _atom_site_type_symbol
 _atom_site_label
 _atom_site_symmetry_multiplicity
 _atom_site_fract_x
 _atom_site_fract_y
 _atom_site_fract_z
 _atom_site_occupancy
  Y  Y0  1  0.69765102  0.65594201  0.68515099  1
  Y  Y1  1  0.19765101  0.34405800  0.31484899  1
  Zr  Zr2  1  0.70782302  0.81159101  0.22358997  1
  Zr  Zr3  1  0.20782301  0.18840900  0.77641001  1
  F  F4  1  0.88781403  0.45220601  0.47670999  1
  F  F5  1  0.38781401  0.54779401  0.52328999  1
  F  F6  1  0.42562501  0.92649701  0.76809198  1
  F  F7  1  0.92562503  0.07350300  0.23190800  1
  F  F8  1  0.94510803  0.96225801  0.76035998  1
  F  F9  1  0.44510802  0.03774200  0.23964000  1
  F  F10  1  0.99575803  0.45461001  0.78683000  1
  F  F11  1  0.49575802  0.54539001  0.21316998  1
  F  F12  1  0.70416802  0.75574901  0.97711299  1
  F  F13  1  0.20416801  0.24425100  0.02288699  1
  F  F14  1  0.71142902  0.86038901  0.47206198  1
  F  F15  1  0.21142901  0.13961100  0.52793801  1
  F  F16  1  0.50098602  0.37822200  0.78209500  1
  F  F17  1  0.00098600  0.62177801  0.21790498  1
