# generated using pymatgen
data_ErMgSn
_symmetry_space_group_name_H-M   'P 1'
_cell_length_a   3.99819112
_cell_length_b   8.01597023
_cell_length_c   8.01596928
_cell_angle_alpha   120.00000000
_cell_angle_beta   90.00000000
_cell_angle_gamma   90.00000000
_symmetry_Int_Tables_number   1
_chemical_formula_structural   ErMgSn
_chemical_formula_sum   'Er3 Mg3 Sn3'
_cell_volume   222.48786132
_cell_formula_units_Z   3
loop_
 _symmetry_equiv_pos_site_id
 _symmetry_equiv_pos_as_xyz
  1  'x, y, z'
loop_
 _atom_site_type_symbol
 _atom_site_label
 _atom_site_symmetry_multiplicity
 _atom_site_fract_x
 _atom_site_fract_y
 _atom_site_fract_z
 _atom_site_occupancy
  Er  Er0  1  0.99999997  0.40794698  0.40794699  1
  Er  Er1  1  -0.00000000  0.00000000  0.59205301  1
  Er  Er2  1  0.99999997  0.59205297  -0.00000003  1
  Mg  Mg3  1  0.49999999  0.74223696  0.74223698  1
  Mg  Mg4  1  0.49999999  0.00000000  0.25776300  1
  Mg  Mg5  1  0.49999999  0.25776299  -0.00000001  1
  Sn  Sn6  1  0.49999999  0.66666663  0.33333331  1
  Sn  Sn7  1  0.49999999  0.33333332  0.66666666  1
  Sn  Sn8  1  0.00000000  0.00000000  0.00000000  1
