# generated using pymatgen
data_Ba(GeRu)2
_symmetry_space_group_name_H-M   'P 1'
_cell_length_a   4.15503597
_cell_length_b   4.15503597
_cell_length_c   6.97816658
_cell_angle_alpha   107.32052612
_cell_angle_beta   107.32052612
_cell_angle_gamma   90.00000000
_symmetry_Int_Tables_number   1
_chemical_formula_structural   Ba(GeRu)2
_chemical_formula_sum   'Ba1 Ge2 Ru2'
_cell_volume   109.27464155
_cell_formula_units_Z   1
loop_
 _symmetry_equiv_pos_site_id
 _symmetry_equiv_pos_as_xyz
  1  'x, y, z'
loop_
 _atom_site_type_symbol
 _atom_site_label
 _atom_site_symmetry_multiplicity
 _atom_site_fract_x
 _atom_site_fract_y
 _atom_site_fract_z
 _atom_site_occupancy
  Ba  Ba0  1  0.00000000  0.00000000  0.00000000  1
  Ge  Ge1  1  0.34989101  0.34989100  0.69978200  1
  Ge  Ge2  1  0.65010901  0.65010901  0.30021801  1
  Ru  Ru3  1  0.75000001  0.25000000  0.50000001  1
  Ru  Ru4  1  0.25000001  0.75000001  0.50000001  1
