# generated using pymatgen
data_Rb2PNF6
_symmetry_space_group_name_H-M   'P 1'
_cell_length_a   6.20867157
_cell_length_b   6.20867157
_cell_length_c   6.20867157
_cell_angle_alpha   60.00000000
_cell_angle_beta   60.00000763
_cell_angle_gamma   60.00000000
_symmetry_Int_Tables_number   1
_chemical_formula_structural   Rb2PNF6
_chemical_formula_sum   'Rb2 P1 N1 F6'
_cell_volume   169.23145478
_cell_formula_units_Z   1
loop_
 _symmetry_equiv_pos_site_id
 _symmetry_equiv_pos_as_xyz
  1  'x, y, z'
loop_
 _atom_site_type_symbol
 _atom_site_label
 _atom_site_symmetry_multiplicity
 _atom_site_fract_x
 _atom_site_fract_y
 _atom_site_fract_z
 _atom_site_occupancy
  Rb  Rb0  1  0.74999994  0.75000000  0.74999998  1
  Rb  Rb1  1  0.24999998  0.25000000  0.24999999  1
  P  P2  1  0.49999996  0.50000000  0.49999999  1
  N  N3  1  0.00000000  0.00000000  0.00000000  1
  F  F4  1  0.21953196  0.78046800  0.78046797  1
  F  F5  1  0.78046794  0.78046800  0.21953200  1
  F  F6  1  0.78046796  0.21953200  0.21953201  1
  F  F7  1  0.21953196  0.78046800  0.21953198  1
  F  F8  1  0.78046796  0.21953200  0.78046800  1
  F  F9  1  0.21953198  0.21953200  0.78046798  1
