# generated using pymatgen
data_CaCd(ClO)2
_symmetry_space_group_name_H-M   'P 1'
_cell_length_a   3.87576199
_cell_length_b   3.93572259
_cell_length_c   6.83399296
_cell_angle_alpha   96.23142242
_cell_angle_beta   90.00000000
_cell_angle_gamma   119.49729919
_symmetry_Int_Tables_number   1
_chemical_formula_structural   CaCd(ClO)2
_chemical_formula_sum   'Ca1 Cd1 Cl2 O2'
_cell_volume   90.02450654
_cell_formula_units_Z   1
loop_
 _symmetry_equiv_pos_site_id
 _symmetry_equiv_pos_as_xyz
  1  'x, y, z'
loop_
 _atom_site_type_symbol
 _atom_site_label
 _atom_site_symmetry_multiplicity
 _atom_site_fract_x
 _atom_site_fract_y
 _atom_site_fract_z
 _atom_site_occupancy
  Ca  Ca0  1  0.69334301  0.38668601  0.22508500  1
  Cd  Cd1  1  0.30665702  0.61331402  0.77491501  1
  Cl  Cl2  1  0.05674600  0.11349200  0.43127100  1
  Cl  Cl3  1  0.94325403  0.88650802  0.56872901  1
  O  O4  1  0.34818102  0.69636202  0.12322001  1
  O  O5  1  0.65181901  0.30363801  0.87678000  1
