# generated using pymatgen
data_SrIn
_symmetry_space_group_name_H-M   'P 1'
_cell_length_a   4.91996717
_cell_length_b   6.45129824
_cell_length_c   8.37073612
_cell_angle_alpha   90.94023895
_cell_angle_beta   90.00000000
_cell_angle_gamma   90.00000000
_symmetry_Int_Tables_number   1
_chemical_formula_structural   SrIn
_chemical_formula_sum   'Sr4 In4'
_cell_volume   265.65286032
_cell_formula_units_Z   4
loop_
 _symmetry_equiv_pos_site_id
 _symmetry_equiv_pos_as_xyz
  1  'x, y, z'
loop_
 _atom_site_type_symbol
 _atom_site_label
 _atom_site_symmetry_multiplicity
 _atom_site_fract_x
 _atom_site_fract_y
 _atom_site_fract_z
 _atom_site_occupancy
  Sr  Sr0  1  0.74999997  0.12939100  0.67923301  1
  Sr  Sr1  1  0.74999997  0.36869599  0.17987800  1
  Sr  Sr2  1  0.24999999  0.86619099  0.31597901  1
  Sr  Sr3  1  0.24999999  0.63225399  0.82200501  1
  In  In4  1  0.74999997  0.62336699  0.53159301  1
  In  In5  1  0.74999997  0.87496099  0.03951200  1
  In  In6  1  0.24999999  0.38366999  0.45937401  1
  In  In7  1  0.24999999  0.12147000  0.97242601  1
