# generated using pymatgen
data_Mn2O3
_symmetry_space_group_name_H-M   'P 1'
_cell_length_a   6.55520630
_cell_length_b   6.55520630
_cell_length_c   6.55520630
_cell_angle_alpha   109.47122192
_cell_angle_beta   109.47122192
_cell_angle_gamma   109.47122192
_symmetry_Int_Tables_number   1
_chemical_formula_structural   Mn2O3
_chemical_formula_sum   'Mn8 O12'
_cell_volume   216.83889240
_cell_formula_units_Z   4
loop_
 _symmetry_equiv_pos_site_id
 _symmetry_equiv_pos_as_xyz
  1  'x, y, z'
loop_
 _atom_site_type_symbol
 _atom_site_label
 _atom_site_symmetry_multiplicity
 _atom_site_fract_x
 _atom_site_fract_y
 _atom_site_fract_z
 _atom_site_occupancy
  Mn  Mn0  1  0.50000002  0.50000000  1.00000001  1
  Mn  Mn1  1  0.50000005  1.00000001  0.50000005  1
  Mn  Mn2  1  1.00000001  0.50000000  0.50000004  1
  Mn  Mn3  1  0.50000002  0.50000000  0.50000002  1
  Mn  Mn4  1  0.00000000  0.00000000  0.49999998  1
  Mn  Mn5  1  1.00000001  0.50000000  1.00000002  1
  Mn  Mn6  1  0.50000005  1.00000001  1.00000004  1
  Mn  Mn7  1  0.00000000  0.00000000  0.00000000  1
  O  O8  1  0.31280300  0.18158300  0.49438500  1
  O  O9  1  0.68719704  0.81841701  0.50561505  1
  O  O10  1  0.31280304  0.81841801  0.13122105  1
  O  O11  1  0.68719700  0.18158200  0.86877900  1
  O  O12  1  0.81841801  0.50561500  0.68719803  1
  O  O13  1  0.18158203  0.49438500  0.31280202  1
  O  O14  1  0.18158205  0.86877901  0.68719703  1
  O  O15  1  0.81841799  0.13122100  0.31280302  1
  O  O16  1  0.13122002  0.31280200  0.81841699  1
  O  O17  1  0.86878002  0.68719801  0.18158305  1
  O  O18  1  0.49438501  0.31280300  0.18158202  1
  O  O19  1  0.50561503  0.68719701  0.81841802  1
