# generated using pymatgen
data_Dy5BiPt2
_symmetry_space_group_name_H-M   'P 1'
_cell_length_a   7.78129578
_cell_length_b   8.76032448
_cell_length_c   7.78129578
_cell_angle_alpha   116.36714172
_cell_angle_beta   90.00000000
_cell_angle_gamma   116.36714172
_symmetry_Int_Tables_number   1
_chemical_formula_structural   Dy5BiPt2
_chemical_formula_sum   'Dy10 Bi2 Pt4'
_cell_volume   412.74852444
_cell_formula_units_Z   2
loop_
 _symmetry_equiv_pos_site_id
 _symmetry_equiv_pos_as_xyz
  1  'x, y, z'
loop_
 _atom_site_type_symbol
 _atom_site_label
 _atom_site_symmetry_multiplicity
 _atom_site_fract_x
 _atom_site_fract_y
 _atom_site_fract_z
 _atom_site_occupancy
  Dy  Dy0  1  0.00000000  0.00000000  0.00000000  1
  Dy  Dy1  1  0.50000001  0.00000000  0.50000001  1
  Dy  Dy2  1  0.20080895  0.71548292  0.01467395  1
  Dy  Dy3  1  0.79919100  0.28451697  0.98532601  1
  Dy  Dy4  1  0.51467396  0.71548292  0.70080897  1
  Dy  Dy5  1  0.70080897  0.71548292  0.20080895  1
  Dy  Dy6  1  0.98532601  0.28451697  0.48532599  1
  Dy  Dy7  1  0.48532599  0.28451697  0.29919099  1
  Dy  Dy8  1  0.29919099  0.28451697  0.79919100  1
  Dy  Dy9  1  0.01467395  0.71548292  0.51467396  1
  Bi  Bi10  1  0.74999998  0.49999995  0.74999998  1
  Bi  Bi11  1  0.24999997  0.49999995  0.24999997  1
  Pt  Pt12  1  0.86336803  0.00000100  0.63663302  1
  Pt  Pt13  1  0.13663193  0.99999889  0.36336693  1
  Pt  Pt14  1  0.36336801  0.00000000  0.86336803  1
  Pt  Pt15  1  0.63663194  0.99999989  0.13663193  1
