# generated using pymatgen
data_YMg3Al4
_symmetry_space_group_name_H-M   'P 1'
_cell_length_a   5.85941315
_cell_length_b   8.06381226
_cell_length_c   8.06381226
_cell_angle_alpha   119.69763184
_cell_angle_beta   90.00000000
_cell_angle_gamma   90.00000000
_symmetry_Int_Tables_number   1
_chemical_formula_structural   YMg3Al4
_chemical_formula_sum   'Y2 Mg6 Al8'
_cell_volume   330.96400006
_cell_formula_units_Z   2
loop_
 _symmetry_equiv_pos_site_id
 _symmetry_equiv_pos_as_xyz
  1  'x, y, z'
loop_
 _atom_site_type_symbol
 _atom_site_label
 _atom_site_symmetry_multiplicity
 _atom_site_fract_x
 _atom_site_fract_y
 _atom_site_fract_z
 _atom_site_occupancy
  Y  Y0  1  0.99999997  0.76201399  0.99981898  1
  Y  Y1  1  -0.00000000  0.99981898  0.76201399  1
  Mg  Mg2  1  0.49999999  0.76166299  0.76166299  1
  Mg  Mg3  1  0.49999999  0.23463700  0.99904598  1
  Mg  Mg4  1  0.49999999  0.99904598  0.23463700  1
  Mg  Mg5  1  0.75015098  0.33324199  0.66740499  1
  Mg  Mg6  1  0.75015098  0.66740499  0.33324200  1
  Mg  Mg7  1  0.24984899  0.66740499  0.33324200  1
  Al  Al8  1  0.24984899  0.33324199  0.66740499  1
  Al  Al9  1  -0.00000000  0.23900900  0.23900900  1
  Al  Al10  1  -0.00000000  0.60520699  0.60520699  1
  Al  Al11  1  -0.00000000  0.39711099  0.99835498  1
  Al  Al12  1  0.99999997  0.99835498  0.39711100  1
  Al  Al13  1  0.49999999  0.39926099  0.39926099  1
  Al  Al14  1  0.49999999  0.60194699  0.00064600  1
  Al  Al15  1  0.49999999  0.00064600  0.60194699  1
