# generated using pymatgen
data_CsPbBr3
_symmetry_space_group_name_H-M   'P 1'
_cell_length_a   8.44711399
_cell_length_b   8.45961189
_cell_length_c   8.44711399
_cell_angle_alpha   119.95114136
_cell_angle_beta   90.00000000
_cell_angle_gamma   119.95114136
_symmetry_Int_Tables_number   1
_chemical_formula_structural   CsPbBr3
_chemical_formula_sum   'Cs2 Pb2 Br6'
_cell_volume   427.45690956
_cell_formula_units_Z   2
loop_
 _symmetry_equiv_pos_site_id
 _symmetry_equiv_pos_as_xyz
  1  'x, y, z'
loop_
 _atom_site_type_symbol
 _atom_site_label
 _atom_site_symmetry_multiplicity
 _atom_site_fract_x
 _atom_site_fract_y
 _atom_site_fract_z
 _atom_site_occupancy
  Cs  Cs0  1  0.24999999  0.49999998  0.74999999  1
  Cs  Cs1  1  0.74999999  0.49999998  0.24999999  1
  Pb  Pb2  1  0.00000000  0.00000000  0.00000000  1
  Pb  Pb3  1  0.50000000  0.00000000  0.50000000  1
  Br  Br4  1  0.74999999  0.49999998  0.74999999  1
  Br  Br5  1  0.24999999  0.49999998  0.24999999  1
  Br  Br6  1  0.28076900  0.00000100  0.21923200  1
  Br  Br7  1  0.71923098  0.99999896  0.78076798  1
  Br  Br8  1  0.78076900  0.00000000  0.28076900  1
  Br  Br9  1  0.21923100  0.00000000  0.71923100  1
