# generated using pymatgen
data_Nd(GaPt)2
_symmetry_space_group_name_H-M   'P 1'
_cell_length_a   5.93199682
_cell_length_b   6.14688730
_cell_length_c   6.14688730
_cell_angle_alpha   116.90558624
_cell_angle_beta   90.00000000
_cell_angle_gamma   90.00000000
_symmetry_Int_Tables_number   1
_chemical_formula_structural   Nd(GaPt)2
_chemical_formula_sum   'Nd2 Ga4 Pt4'
_cell_volume   199.87394843
_cell_formula_units_Z   2
loop_
 _symmetry_equiv_pos_site_id
 _symmetry_equiv_pos_as_xyz
  1  'x, y, z'
loop_
 _atom_site_type_symbol
 _atom_site_label
 _atom_site_symmetry_multiplicity
 _atom_site_fract_x
 _atom_site_fract_y
 _atom_site_fract_z
 _atom_site_occupancy
  Nd  Nd0  1  0.25000001  0.76619401  0.23380602  1
  Nd  Nd1  1  0.75000002  0.23380600  0.76619401  1
  Ga  Ga2  1  0.25000001  0.33586201  0.66413801  1
  Ga  Ga3  1  0.75000002  0.66413801  0.33586202  1
  Ga  Ga4  1  -0.00000000  0.71530401  0.71530403  1
  Ga  Ga5  1  0.50000001  0.71530401  0.71530403  1
  Pt  Pt6  1  -0.00000000  0.28469601  0.28469601  1
  Pt  Pt7  1  0.50000001  0.28469601  0.28469601  1
  Pt  Pt8  1  0.25000001  0.09738200  0.90261801  1
  Pt  Pt9  1  0.75000002  0.90261802  0.09738203  1
