# generated using pymatgen
data_KZrNb4(MoSe3)2
_symmetry_space_group_name_H-M   'P 1'
_cell_length_a   4.25184917
_cell_length_b   9.45291042
_cell_length_c   9.45290947
_cell_angle_alpha   120.00000000
_cell_angle_beta   90.00000000
_cell_angle_gamma   90.00000000
_symmetry_Int_Tables_number   1
_chemical_formula_structural   KZrNb4(MoSe3)2
_chemical_formula_sum   'K1 Zr1 Nb4 Mo2 Se6'
_cell_volume   329.03305007
_cell_formula_units_Z   1
loop_
 _symmetry_equiv_pos_site_id
 _symmetry_equiv_pos_as_xyz
  1  'x, y, z'
loop_
 _atom_site_type_symbol
 _atom_site_label
 _atom_site_symmetry_multiplicity
 _atom_site_fract_x
 _atom_site_fract_y
 _atom_site_fract_z
 _atom_site_occupancy
  K  K0  1  0.74999997  0.33333332  0.66666669  1
  Zr  Zr1  1  0.24999999  0.66666663  0.33333334  1
  Nb  Nb2  1  0.74999997  0.83805496  0.97948003  1
  Nb  Nb3  1  0.24999999  0.97947995  0.14142499  1
  Nb  Nb4  1  0.24999999  0.85857496  0.83805502  1
  Nb  Nb5  1  0.74999997  0.14142499  0.16194500  1
  Mo  Mo6  1  0.74999997  0.02052000  0.85857503  1
  Mo  Mo7  1  0.24999999  0.16194499  0.02052000  1
  Se  Se8  1  0.74999997  0.95564095  0.30208600  1
  Se  Se9  1  0.24999999  0.30208598  0.34644501  1
  Se  Se10  1  0.24999999  0.65355497  0.95564103  1
  Se  Se11  1  0.74999997  0.34644498  0.04435900  1
  Se  Se12  1  0.74999997  0.69791396  0.65355502  1
  Se  Se13  1  0.24999999  0.04435900  0.69791403  1
