# generated using pymatgen
data_Ce6USb7
_symmetry_space_group_name_H-M   'P 1'
_cell_length_a   8.26643276
_cell_length_b   8.26643276
_cell_length_c   8.26643276
_cell_angle_alpha   109.47122192
_cell_angle_beta   109.47122192
_cell_angle_gamma   109.47122192
_symmetry_Int_Tables_number   1
_chemical_formula_structural   Ce6USb7
_chemical_formula_sum   'Ce6 U1 Sb7'
_cell_volume   434.84301808
_cell_formula_units_Z   1
loop_
 _symmetry_equiv_pos_site_id
 _symmetry_equiv_pos_as_xyz
  1  'x, y, z'
loop_
 _atom_site_type_symbol
 _atom_site_label
 _atom_site_symmetry_multiplicity
 _atom_site_fract_x
 _atom_site_fract_y
 _atom_site_fract_z
 _atom_site_occupancy
  Ce  Ce0  1  0.87499998  0.12500000  0.75000000  1
  Ce  Ce1  1  0.75000002  0.62500000  0.87500002  1
  Ce  Ce2  1  0.25000005  0.87500000  0.62500003  1
  Ce  Ce3  1  0.12500001  0.25000000  0.37500000  1
  Ce  Ce4  1  0.37500004  0.75000000  0.12500005  1
  Ce  Ce5  1  0.62500001  0.37500000  0.25000003  1
  U  U6  1  0.34997501  0.34997500  0.84997500  1
  Sb  Sb7  1  0.00000003  0.50000000  0.15002502  1
  Sb  Sb8  1  0.65002504  1.00000000  1.00000003  1
  Sb  Sb9  1  0.50000003  0.65002500  0.50000003  1
  Sb  Sb10  1  0.15002500  0.00000000  0.00000000  1
  Sb  Sb11  1  0.49999999  0.15002500  0.50000000  1
  Sb  Sb12  1  0.84997503  0.84997500  0.34997505  1
  Sb  Sb13  1  0.00000003  0.50000000  0.65002500  1
