# generated using pymatgen
data_Tm3Ge3Ru2
_symmetry_space_group_name_H-M   'P 1'
_cell_length_a   4.24088621
_cell_length_b   5.75388288
_cell_length_c   13.80600357
_cell_angle_alpha   90.00000000
_cell_angle_beta   90.00000000
_cell_angle_gamma   111.62460327
_symmetry_Int_Tables_number   1
_chemical_formula_structural   Tm3Ge3Ru2
_chemical_formula_sum   'Tm6 Ge6 Ru4'
_cell_volume   313.17731410
_cell_formula_units_Z   2
loop_
 _symmetry_equiv_pos_site_id
 _symmetry_equiv_pos_as_xyz
  1  'x, y, z'
loop_
 _atom_site_type_symbol
 _atom_site_label
 _atom_site_symmetry_multiplicity
 _atom_site_fract_x
 _atom_site_fract_y
 _atom_site_fract_z
 _atom_site_occupancy
  Tm  Tm0  1  0.07725998  0.15452000  0.61368002  1
  Tm  Tm1  1  0.92273988  0.84548000  0.38632001  1
  Tm  Tm2  1  0.07725998  0.15452000  0.88632003  1
  Tm  Tm3  1  0.92273988  0.84548000  0.11368000  1
  Tm  Tm4  1  0.35361092  0.70722200  0.75000002  1
  Tm  Tm5  1  0.64638894  0.29277800  0.25000001  1
  Ge  Ge6  1  0.38566691  0.77133400  0.54056402  1
  Ge  Ge7  1  0.61433295  0.22866600  0.45943601  1
  Ge  Ge8  1  0.38566691  0.77133400  0.95943603  1
  Ge  Ge9  1  0.61433295  0.22866600  0.04056400  1
  Ge  Ge10  1  0.66096494  0.32193000  0.75000002  1
  Ge  Ge11  1  0.33903493  0.67807000  0.25000001  1
  Ru  Ru12  1  0.21275895  0.42551800  0.08334300  1
  Ru  Ru13  1  0.78724091  0.57448200  0.91665703  1
  Ru  Ru14  1  0.21275895  0.42551800  0.41665701  1
  Ru  Ru15  1  0.78724091  0.57448200  0.58334302  1
