# generated using pymatgen
data_Li2Nd2Ge3
_symmetry_space_group_name_H-M   'P 1'
_cell_length_a   4.44711018
_cell_length_b   6.86060381
_cell_length_c   9.59090996
_cell_angle_alpha   90.00000000
_cell_angle_beta   103.40541077
_cell_angle_gamma   90.00000000
_symmetry_Int_Tables_number   1
_chemical_formula_structural   Li2Nd2Ge3
_chemical_formula_sum   'Li4 Nd4 Ge6'
_cell_volume   284.64467471
_cell_formula_units_Z   2
loop_
 _symmetry_equiv_pos_site_id
 _symmetry_equiv_pos_as_xyz
  1  'x, y, z'
loop_
 _atom_site_type_symbol
 _atom_site_label
 _atom_site_symmetry_multiplicity
 _atom_site_fract_x
 _atom_site_fract_y
 _atom_site_fract_z
 _atom_site_occupancy
  Li  Li0  1  0.81050695  0.55963002  0.62101399  1
  Li  Li1  1  0.18949299  0.44037001  0.37898600  1
  Li  Li2  1  0.18949299  0.05963000  0.37898600  1
  Li  Li3  1  0.81050695  0.94037003  0.62101399  1
  Nd  Nd4  1  0.55260597  0.25000001  0.10521199  1
  Nd  Nd5  1  0.44739398  0.75000002  0.89478801  1
  Nd  Nd6  1  0.34207498  0.25000001  0.68415001  1
  Nd  Nd7  1  0.65792496  0.75000002  0.31584999  1
  Ge  Ge8  1  0.94205895  0.07472700  0.88411799  1
  Ge  Ge9  1  0.05794100  0.92527303  0.11588200  1
  Ge  Ge10  1  0.05794100  0.57472702  0.11588200  1
  Ge  Ge11  1  0.94205895  0.42527301  0.88411799  1
  Ge  Ge12  1  0.71950596  0.25000001  0.43901199  1
  Ge  Ge13  1  0.28049398  0.75000002  0.56098800  1
