# generated using pymatgen
data_LiVS3
_symmetry_space_group_name_H-M   'P 1'
_cell_length_a   3.83113599
_cell_length_b   3.83113599
_cell_length_c   6.07096577
_cell_angle_alpha   90.00000000
_cell_angle_beta   90.00000000
_cell_angle_gamma   120.00000000
_symmetry_Int_Tables_number   1
_chemical_formula_structural   LiVS3
_chemical_formula_sum   'Li1 V1 S3'
_cell_volume   77.16912061
_cell_formula_units_Z   1
loop_
 _symmetry_equiv_pos_site_id
 _symmetry_equiv_pos_as_xyz
  1  'x, y, z'
loop_
 _atom_site_type_symbol
 _atom_site_label
 _atom_site_symmetry_multiplicity
 _atom_site_fract_x
 _atom_site_fract_y
 _atom_site_fract_z
 _atom_site_occupancy
  Li  Li0  1  0.33333332  0.66666665  0.24588001  1
  V  V1  1  0.66666666  0.33333332  0.75412003  1
  S  S2  1  0.33333332  0.66666665  0.64258202  1
  S  S3  1  0.66666666  0.33333332  0.35741801  1
  S  S4  1  0.00000000  0.00000000  0.00000000  1
