# generated using pymatgen
data_Mg(CuS2)2
_symmetry_space_group_name_H-M   'P 1'
_cell_length_a   6.96987343
_cell_length_b   6.96987343
_cell_length_c   6.96987343
_cell_angle_alpha   60.01783371
_cell_angle_beta   60.01783371
_cell_angle_gamma   60.01783371
_symmetry_Int_Tables_number   1
_chemical_formula_structural   Mg(CuS2)2
_chemical_formula_sum   'Mg2 Cu4 S8'
_cell_volume   239.51638133
_cell_formula_units_Z   2
loop_
 _symmetry_equiv_pos_site_id
 _symmetry_equiv_pos_as_xyz
  1  'x, y, z'
loop_
 _atom_site_type_symbol
 _atom_site_label
 _atom_site_symmetry_multiplicity
 _atom_site_fract_x
 _atom_site_fract_y
 _atom_site_fract_z
 _atom_site_occupancy
  Mg  Mg0  1  0.50000000  0.00000000  0.49999999  1
  Mg  Mg1  1  0.50000001  0.50000000  -0.00000002  1
  Cu  Cu2  1  0.00000001  0.50000000  0.49999998  1
  Cu  Cu3  1  0.50000001  0.50000000  0.49999998  1
  Cu  Cu4  1  0.87634003  0.87633999  0.87633996  1
  Cu  Cu5  1  0.12366000  0.12366000  0.12365999  1
  S  S6  1  0.26962102  0.73705799  0.73705797  1
  S  S7  1  0.73705802  0.73705799  0.26962097  1
  S  S8  1  0.73705801  0.26962100  0.73705798  1
  S  S9  1  0.74560102  0.74560099  0.74560096  1
  S  S10  1  0.73037901  0.26294200  0.26294198  1
  S  S11  1  0.26294201  0.26294200  0.73037898  1
  S  S12  1  0.26294202  0.73037899  0.26294197  1
  S  S13  1  0.25439901  0.25439900  0.25439899  1
