# generated using pymatgen
data_TiW3O8
_symmetry_space_group_name_H-M   'P 1'
_cell_length_a   4.72983885
_cell_length_b   4.72985506
_cell_length_c   6.22890902
_cell_angle_alpha   89.99961853
_cell_angle_beta   89.99870300
_cell_angle_gamma   89.99987793
_symmetry_Int_Tables_number   1
_chemical_formula_structural   TiW3O8
_chemical_formula_sum   'Ti1 W3 O8'
_cell_volume   139.34974033
_cell_formula_units_Z   1
loop_
 _symmetry_equiv_pos_site_id
 _symmetry_equiv_pos_as_xyz
  1  'x, y, z'
loop_
 _atom_site_type_symbol
 _atom_site_label
 _atom_site_symmetry_multiplicity
 _atom_site_fract_x
 _atom_site_fract_y
 _atom_site_fract_z
 _atom_site_occupancy
  Ti  Ti0  1  0.03008499  0.96990699  0.99999999  1
  W  W1  1  0.96991603  0.03008100  0.50000002  1
  W  W2  1  0.53008401  0.53008299  0.25000201  1
  W  W3  1  0.46991301  0.46991199  0.74999901  1
  O  O4  1  0.18123400  0.18124400  0.74999000  1
  O  O5  1  0.68124402  0.31875400  0.49999801  1
  O  O6  1  0.31875800  0.68123899  0.00000400  1
  O  O7  1  0.81875201  0.81876199  0.25001201  1
  O  O8  1  0.20929800  0.20930000  0.24998500  1
  O  O9  1  0.70929702  0.29072100  0.99999301  1
  O  O10  1  0.29072300  0.70929599  0.50000600  1
  O  O11  1  0.79069701  0.79069899  0.75001301  1
