# generated using pymatgen
data_LiTiO4
_symmetry_space_group_name_H-M   'P 1'
_cell_length_a   4.65032578
_cell_length_b   4.76907492
_cell_length_c   4.89320803
_cell_angle_alpha   90.00000000
_cell_angle_beta   90.00000000
_cell_angle_gamma   90.00000000
_symmetry_Int_Tables_number   1
_chemical_formula_structural   LiTiO4
_chemical_formula_sum   'Li2 Ti2 O8'
_cell_volume   108.52035415
_cell_formula_units_Z   2
loop_
 _symmetry_equiv_pos_site_id
 _symmetry_equiv_pos_as_xyz
  1  'x, y, z'
loop_
 _atom_site_type_symbol
 _atom_site_label
 _atom_site_symmetry_multiplicity
 _atom_site_fract_x
 _atom_site_fract_y
 _atom_site_fract_z
 _atom_site_occupancy
  Li  Li0  1  0.73423304  0.75191101  0.96949799  1
  Li  Li1  1  0.26576701  0.75191101  0.46949800  1
  Ti  Ti2  1  0.73423304  0.25191100  0.53050200  1
  Ti  Ti3  1  0.26576701  0.25191100  0.03050200  1
  O  O4  1  0.55770403  0.03018200  0.24121800  1
  O  O5  1  0.09890900  0.35630701  0.38384000  1
  O  O6  1  0.55770403  0.53018201  0.25878200  1
  O  O7  1  0.90109104  0.85630701  0.61616000  1
  O  O8  1  0.09890900  0.85630701  0.11616000  1
  O  O9  1  0.44229602  0.53018201  0.75878200  1
  O  O10  1  0.44229602  0.03018200  0.74121800  1
  O  O11  1  0.90109104  0.35630701  0.88384000  1
