# generated using pymatgen
data_BaSr3Ti2O9
_symmetry_space_group_name_H-M   'P 1'
_cell_length_a   5.73814392
_cell_length_b   5.83028698
_cell_length_c   7.05404663
_cell_angle_alpha   90.62720490
_cell_angle_beta   90.00000000
_cell_angle_gamma   119.47856903
_symmetry_Int_Tables_number   1
_chemical_formula_structural   BaSr3Ti2O9
_chemical_formula_sum   'Ba1 Sr3 Ti2 O9'
_cell_volume   205.42533314
_cell_formula_units_Z   1
loop_
 _symmetry_equiv_pos_site_id
 _symmetry_equiv_pos_as_xyz
  1  'x, y, z'
loop_
 _atom_site_type_symbol
 _atom_site_label
 _atom_site_symmetry_multiplicity
 _atom_site_fract_x
 _atom_site_fract_y
 _atom_site_fract_z
 _atom_site_occupancy
  Ba  Ba0  1  0.98221609  0.96443200  0.50947699  1
  Sr  Sr1  1  0.65275103  0.30550200  0.17410300  1
  Sr  Sr2  1  0.31748205  0.63496400  0.84117300  1
  Sr  Sr3  1  0.33957706  0.67915400  0.31728899  1
  Ti  Ti4  1  0.00989200  0.01978400  0.00330600  1
  Ti  Ti5  1  0.67046004  0.34092000  0.67064200  1
  O  O6  1  0.78995005  0.57990000  0.35471100  1
  O  O7  1  0.45653208  0.91306400  0.01864899  1
  O  O8  1  0.13365802  0.26731600  0.70271000  1
  O  O9  1  0.95902704  0.41671800  0.02134999  1
  O  O10  1  0.62257906  0.74552500  0.69018500  1
  O  O11  1  0.30947301  0.08923200  0.34143500  1
  O  O12  1  0.45769104  0.41671800  0.02134999  1
  O  O13  1  0.12294606  0.74552500  0.69018500  1
  O  O14  1  0.77975902  0.08923200  0.34143500  1
