# generated using pymatgen
data_Li3In3Pt2
_symmetry_space_group_name_H-M   'P 1'
_cell_length_a   4.69002819
_cell_length_b   4.69002867
_cell_length_c   8.34724331
_cell_angle_alpha   90.00000000
_cell_angle_beta   90.00000000
_cell_angle_gamma   120.00000000
_symmetry_Int_Tables_number   1
_chemical_formula_structural   Li3In3Pt2
_chemical_formula_sum   'Li3 In3 Pt2'
_cell_volume   159.01007955
_cell_formula_units_Z   1
loop_
 _symmetry_equiv_pos_site_id
 _symmetry_equiv_pos_as_xyz
  1  'x, y, z'
loop_
 _atom_site_type_symbol
 _atom_site_label
 _atom_site_symmetry_multiplicity
 _atom_site_fract_x
 _atom_site_fract_y
 _atom_site_fract_z
 _atom_site_occupancy
  Li  Li0  1  0.66666667  0.33333334  0.08772100  1
  Li  Li1  1  0.33333337  0.66666667  0.58772098  1
  Li  Li2  1  0.00000000  0.00000000  0.74999997  1
  In  In3  1  0.00000000  0.00000000  0.24999999  1
  In  In4  1  0.66666667  0.33333334  0.41227898  1
  In  In5  1  0.33333337  0.66666667  0.91227897  1
  Pt  Pt6  1  0.33333337  0.66666667  0.24999999  1
  Pt  Pt7  1  0.66666667  0.33333334  0.74999997  1
