# generated using pymatgen
data_LiPO3
_symmetry_space_group_name_H-M   'P 1'
_cell_length_a   5.41369867
_cell_length_b   6.73017263
_cell_length_c   6.73017263
_cell_angle_alpha   84.68590546
_cell_angle_beta   74.86759949
_cell_angle_gamma   74.86759949
_symmetry_Int_Tables_number   1
_chemical_formula_structural   LiPO3
_chemical_formula_sum   'Li4 P4 O12'
_cell_volume   228.42517975
_cell_formula_units_Z   4
loop_
 _symmetry_equiv_pos_site_id
 _symmetry_equiv_pos_as_xyz
  1  'x, y, z'
loop_
 _atom_site_type_symbol
 _atom_site_label
 _atom_site_symmetry_multiplicity
 _atom_site_fract_x
 _atom_site_fract_y
 _atom_site_fract_z
 _atom_site_occupancy
  Li  Li0  1  0.75000008  0.75242701  0.24757301  1
  Li  Li1  1  0.25000003  0.24757300  0.75242702  1
  Li  Li2  1  0.75000003  0.10780200  0.89219805  1
  Li  Li3  1  0.25000008  0.89219801  0.10780198  1
  P  P4  1  0.77845807  0.61532200  0.78847203  1
  P  P5  1  0.22154204  0.38467800  0.21152800  1
  P  P6  1  0.27845807  0.78847201  0.61532200  1
  P  P7  1  0.72154203  0.21152800  0.38467803  1
  O  O8  1  0.93997805  0.34902200  0.35686604  1
  O  O9  1  0.43997804  0.35686600  0.34902201  1
  O  O10  1  0.06002205  0.65097800  0.64313399  1
  O  O11  1  0.56002206  0.64313400  0.65097801  1
  O  O12  1  0.15806408  0.96442001  0.79468499  1
  O  O13  1  0.15515205  0.62006800  0.12466099  1
  O  O14  1  0.84193602  0.03558000  0.20531504  1
  O  O15  1  0.65806408  0.79468501  0.96442002  1
  O  O16  1  0.34193602  0.20531500  0.03558001  1
  O  O17  1  0.84484805  0.37993200  0.87533904  1
  O  O18  1  0.65515203  0.12466100  0.62006804  1
  O  O19  1  0.34484808  0.87533901  0.37993199  1
