# generated using pymatgen
data_CeFe5
_symmetry_space_group_name_H-M   'P 1'
_cell_length_a   3.91689110
_cell_length_b   5.00536394
_cell_length_c   5.00536346
_cell_angle_alpha   120.00000000
_cell_angle_beta   90.00000000
_cell_angle_gamma   90.00000000
_symmetry_Int_Tables_number   1
_chemical_formula_structural   CeFe5
_chemical_formula_sum   'Ce1 Fe5'
_cell_volume   84.98522108
_cell_formula_units_Z   1
loop_
 _symmetry_equiv_pos_site_id
 _symmetry_equiv_pos_as_xyz
  1  'x, y, z'
loop_
 _atom_site_type_symbol
 _atom_site_label
 _atom_site_symmetry_multiplicity
 _atom_site_fract_x
 _atom_site_fract_y
 _atom_site_fract_z
 _atom_site_occupancy
  Ce  Ce0  1  0.00000000  0.00000000  0.00000000  1
  Fe  Fe1  1  -0.00000000  0.66666666  0.33333332  1
  Fe  Fe2  1  0.99999997  0.33333333  0.66666668  1
  Fe  Fe3  1  0.49999999  0.00454800  0.50227402  1
  Fe  Fe4  1  0.49999999  0.49772599  0.99545202  1
  Fe  Fe5  1  0.49999999  0.49772599  0.50227400  1
