# generated using pymatgen
data_DyAlFe11
_symmetry_space_group_name_H-M   'P 1'
_cell_length_a   4.71077585
_cell_length_b   6.30959797
_cell_length_c   6.30959797
_cell_angle_alpha   81.98949432
_cell_angle_beta   68.08057404
_cell_angle_gamma   68.08057404
_symmetry_Int_Tables_number   1
_chemical_formula_structural   DyAlFe11
_chemical_formula_sum   'Dy1 Al1 Fe11'
_cell_volume   161.40613901
_cell_formula_units_Z   1
loop_
 _symmetry_equiv_pos_site_id
 _symmetry_equiv_pos_as_xyz
  1  'x, y, z'
loop_
 _atom_site_type_symbol
 _atom_site_label
 _atom_site_symmetry_multiplicity
 _atom_site_fract_x
 _atom_site_fract_y
 _atom_site_fract_z
 _atom_site_occupancy
  Dy  Dy0  1  0.00000000  0.00000000  0.00000000  1
  Al  Al1  1  0.50000010  0.99999995  0.50000000  1
  Fe  Fe2  1  0.00000006  0.63462297  0.36537698  1
  Fe  Fe3  1  0.63462304  0.36537698  0.36537702  1
  Fe  Fe4  1  0.36537706  0.63462297  0.63462299  1
  Fe  Fe5  1  0.00000004  0.36537698  0.63462298  1
  Fe  Fe6  1  0.50000003  0.22955699  0.77044300  1
  Fe  Fe7  1  0.72955708  0.77044296  0.77044300  1
  Fe  Fe8  1  0.27044302  0.22955699  0.22955700  1
  Fe  Fe9  1  0.50000008  0.77044296  0.22955701  1
  Fe  Fe10  1  0.00000000  0.00000000  0.49999999  1
  Fe  Fe11  1  1.00000005  0.49999997  0.00000004  1
  Fe  Fe12  1  0.50000005  0.49999997  0.00000002  1
