# generated using pymatgen
data_TiCuO2
_symmetry_space_group_name_H-M   'P 1'
_cell_length_a   3.02615881
_cell_length_b   3.03336024
_cell_length_c   6.32836723
_cell_angle_alpha   103.84985352
_cell_angle_beta   103.83303833
_cell_angle_gamma   60.07881927
_symmetry_Int_Tables_number   1
_chemical_formula_structural   TiCuO2
_chemical_formula_sum   'Ti1 Cu1 O2'
_cell_volume   48.38723677
_cell_formula_units_Z   1
loop_
 _symmetry_equiv_pos_site_id
 _symmetry_equiv_pos_as_xyz
  1  'x, y, z'
loop_
 _atom_site_type_symbol
 _atom_site_label
 _atom_site_symmetry_multiplicity
 _atom_site_fract_x
 _atom_site_fract_y
 _atom_site_fract_z
 _atom_site_occupancy
  Ti  Ti0  1  0.50000000  0.50000000  0.49999998  1
  Cu  Cu1  1  0.00000000  0.00000000  0.00000000  1
  O  O2  1  0.11035600  0.11046300  0.33117399  1
  O  O3  1  0.88964401  0.88953700  0.66882597  1
