# generated using pymatgen
data_Ca5CdGa2
_symmetry_space_group_name_H-M   'P 1'
_cell_length_a   8.09558678
_cell_length_b   8.09558678
_cell_length_c   9.26319504
_cell_angle_alpha   115.91108704
_cell_angle_beta   115.91108704
_cell_angle_gamma   90.00000000
_symmetry_Int_Tables_number   1
_chemical_formula_structural   Ca5CdGa2
_chemical_formula_sum   'Ca10 Cd2 Ga4'
_cell_volume   477.29658303
_cell_formula_units_Z   2
loop_
 _symmetry_equiv_pos_site_id
 _symmetry_equiv_pos_as_xyz
  1  'x, y, z'
loop_
 _atom_site_type_symbol
 _atom_site_label
 _atom_site_symmetry_multiplicity
 _atom_site_fract_x
 _atom_site_fract_y
 _atom_site_fract_z
 _atom_site_occupancy
  Ca  Ca0  1  0.00000000  0.00000000  0.00000000  1
  Ca  Ca1  1  0.49999997  0.50000000  -0.00000006  1
  Ca  Ca2  1  0.48892298  0.31315400  0.30207696  1
  Ca  Ca3  1  0.81315395  0.98892299  0.30207690  1
  Ca  Ca4  1  0.31315395  0.81315399  0.30207693  1
  Ca  Ca5  1  0.98892298  0.48892300  0.30207693  1
  Ca  Ca6  1  0.51107696  0.68684599  0.69792294  1
  Ca  Ca7  1  0.18684600  0.01107700  0.69792301  1
  Ca  Ca8  1  0.68684599  0.18684600  0.69792297  1
  Ca  Ca9  1  0.01107697  0.51107700  0.69792298  1
  Ga  Ga10  1  0.24999999  0.25000000  0.49999998  1
  Ga  Ga11  1  0.74999996  0.74999999  0.49999992  1
  Cd  Cd12  1  0.13370298  0.36629700  -0.00000003  1
  Cd  Cd13  1  0.86629697  0.63370299  -0.00000009  1
  Ga  Ga14  1  0.36629695  0.86629699  -0.00000008  1
  Ga  Ga15  1  0.63370300  0.13370300  -0.00000004  1
