# generated using pymatgen
data_V3(OF2)2
_symmetry_space_group_name_H-M   'P 1'
_cell_length_a   5.62444592
_cell_length_b   5.62444592
_cell_length_c   7.27886057
_cell_angle_alpha   72.76545715
_cell_angle_beta   72.76545715
_cell_angle_gamma   73.00419617
_symmetry_Int_Tables_number   1
_chemical_formula_structural   V3(OF2)2
_chemical_formula_sum   'V6 O4 F8'
_cell_volume   204.70182675
_cell_formula_units_Z   2
loop_
 _symmetry_equiv_pos_site_id
 _symmetry_equiv_pos_as_xyz
  1  'x, y, z'
loop_
 _atom_site_type_symbol
 _atom_site_label
 _atom_site_symmetry_multiplicity
 _atom_site_fract_x
 _atom_site_fract_y
 _atom_site_fract_z
 _atom_site_occupancy
  V  V0  1  0.50000004  0.49999999  0.99999997  1
  V  V1  1  0.50000004  0.49999999  0.49999997  1
  V  V2  1  0.84064807  0.84064799  0.16265396  1
  V  V3  1  0.83706707  0.83706699  0.67212895  1
  V  V4  1  0.16293301  0.16293300  0.32787099  1
  V  V5  1  0.15935201  0.15935200  0.83734598  1
  O  O6  1  0.93335407  0.93335399  0.86944295  1
  O  O7  1  0.06664601  0.06664600  0.13055700  1
  F  F8  1  0.13940004  0.53061799  0.16710198  1
  F  F9  1  0.80181202  0.19818800  0.49999998  1
  F  F10  1  0.26498602  0.26498600  0.53452398  1
  O  O11  1  0.60480905  0.60480899  0.20182997  1
  O  O12  1  0.39519103  0.39519099  0.79816997  1
  F  F13  1  0.73501406  0.73501399  0.46547596  1
  F  F14  1  0.86060004  0.46938199  0.83289796  1
  F  F15  1  0.19818806  0.80181199  0.49999997  1
  F  F16  1  0.53061801  0.13940000  0.16710199  1
  F  F17  1  0.46938207  0.86059999  0.83289796  1
