# generated using pymatgen
data_Ca4In2Cu4As3PPt4
_symmetry_space_group_name_H-M   'P 1'
_cell_length_a   4.15883112
_cell_length_b   4.26584482
_cell_length_c   21.55496979
_cell_angle_alpha   95.67886353
_cell_angle_beta   95.53594971
_cell_angle_gamma   90.00000000
_symmetry_Int_Tables_number   1
_chemical_formula_structural   Ca4In2Cu4As3PPt4
_chemical_formula_sum   'Ca4 In2 Cu4 As3 P1 Pt4'
_cell_volume   378.73595309
_cell_formula_units_Z   1
loop_
 _symmetry_equiv_pos_site_id
 _symmetry_equiv_pos_as_xyz
  1  'x, y, z'
loop_
 _atom_site_type_symbol
 _atom_site_label
 _atom_site_symmetry_multiplicity
 _atom_site_fract_x
 _atom_site_fract_y
 _atom_site_fract_z
 _atom_site_occupancy
  Ca  Ca0  1  0.87571897  0.62571903  0.75143798  1
  Ca  Ca1  1  0.21002499  0.96002404  0.42004899  1
  Ca  Ca2  1  0.54461998  0.29462201  0.08924199  1
  Ca  Ca3  1  0.45592198  0.70592103  0.91184298  1
  In  In4  1  0.79007697  0.04007700  0.58015398  1
  In  In5  1  0.12409499  0.37409402  0.24818899  1
  Cu  Cu6  1  0.34655899  0.09655900  0.69311798  1
  Cu  Cu7  1  0.68011397  0.43011302  0.36022699  1
  Cu  Cu8  1  0.01395499  0.76395603  0.02791100  1
  Cu  Cu9  1  0.98626697  0.23626701  0.97253397  1
  As  As10  1  0.31900199  0.56900302  0.63800498  1
  P  P11  1  0.65268797  0.90268804  0.30537599  1
  As  As12  1  0.40273299  0.15273401  0.80546698  1
  Pt  Pt13  1  0.73655797  0.48655702  0.47311498  1
  Pt  Pt14  1  0.07006099  0.82005903  0.14011999  1
  As  As15  1  0.93002397  0.18002501  0.86004897  1
  Pt  Pt16  1  0.26381299  0.51381302  0.52762599  1
  Pt  Pt17  1  0.59776898  0.84776703  0.19553599  1
