# generated using pymatgen
data_Zr3Mn6Si7
_symmetry_space_group_name_H-M   'P 1'
_cell_length_a   5.34214687
_cell_length_b   7.66552830
_cell_length_c   7.66552830
_cell_angle_alpha   119.93251801
_cell_angle_beta   90.00000000
_cell_angle_gamma   90.00000000
_symmetry_Int_Tables_number   1
_chemical_formula_structural   Zr3Mn6Si7
_chemical_formula_sum   'Zr3 Mn6 Si7'
_cell_volume   272.03548238
_cell_formula_units_Z   1
loop_
 _symmetry_equiv_pos_site_id
 _symmetry_equiv_pos_as_xyz
  1  'x, y, z'
loop_
 _atom_site_type_symbol
 _atom_site_label
 _atom_site_symmetry_multiplicity
 _atom_site_fract_x
 _atom_site_fract_y
 _atom_site_fract_z
 _atom_site_occupancy
  Zr  Zr0  1  0.50000001  0.99968203  0.25633804  1
  Zr  Zr1  1  0.50000001  0.25633801  0.99968202  1
  Mn  Mn2  1  -0.00000000  0.25657601  0.25657601  1
  Zr  Zr3  1  -0.00000000  0.00029800  0.74550501  1
  Mn  Mn4  1  -0.00000000  0.74550502  0.00029803  1
  Mn  Mn5  1  0.75113902  0.33401801  0.66708302  1
  Mn  Mn6  1  0.75113902  0.66708302  0.33401803  1
  Mn  Mn7  1  0.24886101  0.66708302  0.33401803  1
  Mn  Mn8  1  0.24886101  0.33401801  0.66708302  1
  Si  Si9  1  0.50000001  0.74102502  0.74102503  1
  Si  Si10  1  0.50000001  0.38094001  0.38094002  1
  Si  Si11  1  0.50000001  0.00304200  0.61500101  1
  Si  Si12  1  0.50000001  0.61500102  0.00304202  1
  Si  Si13  1  -0.00000000  0.61608502  0.61608503  1
  Si  Si14  1  -0.00000000  0.00041600  0.38288700  1
  Si  Si15  1  1.00000002  0.38288701  0.00041601  1
