# generated using pymatgen
data_LiCeV3WO12
_symmetry_space_group_name_H-M   'P 1'
_cell_length_a   7.22508097
_cell_length_b   7.22508097
_cell_length_c   7.22508097
_cell_angle_alpha   89.57926178
_cell_angle_beta   60.13750458
_cell_angle_gamma   119.65238190
_symmetry_Int_Tables_number   1
_chemical_formula_structural   LiCeV3WO12
_chemical_formula_sum   'Li1 Ce1 V3 W1 O12'
_cell_volume   267.66280387
_cell_formula_units_Z   1
loop_
 _symmetry_equiv_pos_site_id
 _symmetry_equiv_pos_as_xyz
  1  'x, y, z'
loop_
 _atom_site_type_symbol
 _atom_site_label
 _atom_site_symmetry_multiplicity
 _atom_site_fract_x
 _atom_site_fract_y
 _atom_site_fract_z
 _atom_site_occupancy
  Li  Li0  1  0.95961497  0.02862800  0.51175698  1
  Ce  Ce1  1  0.45961498  0.97137197  0.06901306  1
  V  V2  1  0.01108100  0.50232198  0.98659600  1
  V  V3  1  0.51108098  0.49767698  0.49124202  1
  V  V4  1  0.50426998  0.49999998  0.99573000  1
  W  W5  1  0.00427000  0.99999997  0.99573003  1
  O  O6  1  0.24816899  0.17578899  0.07604101  1
  O  O7  1  0.25682399  0.55738398  0.68579201  1
  O  O8  1  0.25359099  0.19071099  0.68902099  1
  O  O9  1  0.25480599  0.57411598  0.06850904  1
  O  O10  1  0.85737497  0.17668499  0.06850901  1
  O  O11  1  0.62026798  0.55738798  0.68902201  1
  O  O12  1  0.74816897  0.82420997  0.92762102  1
  O  O13  1  0.75682397  0.44261498  0.30056002  1
  O  O14  1  0.75480597  0.82331497  0.31931004  1
  O  O15  1  0.75359097  0.44261198  0.93711900  1
  O  O16  1  0.12026799  0.80928897  0.93712002  1
  O  O17  1  0.35737499  0.42588399  0.31931002  1
