# generated using pymatgen
data_LuNiC2
_symmetry_space_group_name_H-M   'P 1'
_cell_length_a   3.70833993
_cell_length_b   3.77623606
_cell_length_c   3.77623606
_cell_angle_alpha   106.37443542
_cell_angle_beta   90.00000000
_cell_angle_gamma   90.00000000
_symmetry_Int_Tables_number   1
_chemical_formula_structural   LuNiC2
_chemical_formula_sum   'Lu1 Ni1 C2'
_cell_volume   50.73592263
_cell_formula_units_Z   1
loop_
 _symmetry_equiv_pos_site_id
 _symmetry_equiv_pos_as_xyz
  1  'x, y, z'
loop_
 _atom_site_type_symbol
 _atom_site_label
 _atom_site_symmetry_multiplicity
 _atom_site_fract_x
 _atom_site_fract_y
 _atom_site_fract_z
 _atom_site_occupancy
  Lu  Lu0  1  1.00000002  0.00174900  0.99825101  1
  Ni  Ni1  1  0.50000001  0.38833800  0.61166199  1
  C  C2  1  0.50000001  0.84985600  0.45494298  1
  C  C3  1  0.50000001  0.54505700  0.15014398  1
