# generated using pymatgen
data_VO2
_symmetry_space_group_name_H-M   'P 1'
_cell_length_a   5.22744751
_cell_length_b   5.22744703
_cell_length_c   5.92020130
_cell_angle_alpha   111.75042725
_cell_angle_beta   111.75042725
_cell_angle_gamma   99.24491882
_symmetry_Int_Tables_number   1
_chemical_formula_structural   VO2
_chemical_formula_sum   'V4 O8'
_cell_volume   130.97239138
_cell_formula_units_Z   4
loop_
 _symmetry_equiv_pos_site_id
 _symmetry_equiv_pos_as_xyz
  1  'x, y, z'
loop_
 _atom_site_type_symbol
 _atom_site_label
 _atom_site_symmetry_multiplicity
 _atom_site_fract_x
 _atom_site_fract_y
 _atom_site_fract_z
 _atom_site_occupancy
  V  V0  1  0.69880196  0.30119801  -0.00000005  1
  V  V1  1  0.94880194  0.05119800  0.49999995  1
  V  V2  1  0.30119799  0.69880202  -0.00000005  1
  V  V3  1  0.55119797  0.44880201  0.49999995  1
  O  O4  1  0.36604598  0.36604601  0.73209196  1
  O  O5  1  0.63395397  0.63395402  0.26790794  1
  O  O6  1  0.61604596  0.11604600  0.23209196  1
  O  O7  1  0.88395395  0.38395401  0.76790793  1
  O  O8  1  0.62499997  0.87500002  0.74999992  1
  O  O9  1  0.12500000  0.87500002  0.74999995  1
  O  O10  1  0.12500000  0.87500002  0.24999995  1
  O  O11  1  0.12500000  0.37500001  0.24999998  1
