# generated using pymatgen
data_Ba(SmI3)2
_symmetry_space_group_name_H-M   'P 1'
_cell_length_a   7.69470215
_cell_length_b   7.69470215
_cell_length_c   14.69542503
_cell_angle_alpha   90.00000000
_cell_angle_beta   90.00000000
_cell_angle_gamma   90.00000000
_symmetry_Int_Tables_number   1
_chemical_formula_structural   Ba(SmI3)2
_chemical_formula_sum   'Ba2 Sm4 I12'
_cell_volume   870.09320832
_cell_formula_units_Z   2
loop_
 _symmetry_equiv_pos_site_id
 _symmetry_equiv_pos_as_xyz
  1  'x, y, z'
loop_
 _atom_site_type_symbol
 _atom_site_label
 _atom_site_symmetry_multiplicity
 _atom_site_fract_x
 _atom_site_fract_y
 _atom_site_fract_z
 _atom_site_occupancy
  Ba  Ba0  1  0.00000000  0.00000000  0.00000000  1
  Ba  Ba1  1  0.49999999  0.49999999  0.50000000  1
  Sm  Sm2  1  0.00000000  0.00000000  0.33179900  1
  Sm  Sm3  1  0.00000000  0.00000000  0.66820100  1
  Sm  Sm4  1  0.49999999  0.49999999  0.16820100  1
  Sm  Sm5  1  0.49999999  0.49999999  0.83179900  1
  I  I6  1  0.20517600  0.79482398  0.17974800  1
  I  I7  1  0.20517600  0.79482398  0.82025200  1
  I  I8  1  0.18235900  0.81764098  0.50000000  1
  I  I9  1  0.31764099  0.31764099  -0.00000000  1
  I  I10  1  0.29482399  0.29482399  0.32025200  1
  I  I11  1  0.29482399  0.29482399  0.67974800  1
  I  I12  1  0.70517599  0.70517599  0.32025200  1
  I  I13  1  0.70517599  0.70517599  0.67974800  1
  I  I14  1  0.68235899  0.68235899  -0.00000000  1
  I  I15  1  0.81764098  0.18235900  0.50000000  1
  I  I16  1  0.79482398  0.20517600  0.17974800  1
  I  I17  1  0.79482398  0.20517600  0.82025200  1
