# generated using pymatgen
data_Sr2CaFeO6
_symmetry_space_group_name_H-M   'P 1'
_cell_length_a   5.83449221
_cell_length_b   5.90471983
_cell_length_c   5.83449221
_cell_angle_alpha   60.39265823
_cell_angle_beta   90.00000000
_cell_angle_gamma   119.60733795
_symmetry_Int_Tables_number   1
_chemical_formula_structural   Sr2CaFeO6
_chemical_formula_sum   'Sr2 Ca1 Fe1 O6'
_cell_volume   143.80209967
_cell_formula_units_Z   1
loop_
 _symmetry_equiv_pos_site_id
 _symmetry_equiv_pos_as_xyz
  1  'x, y, z'
loop_
 _atom_site_type_symbol
 _atom_site_label
 _atom_site_symmetry_multiplicity
 _atom_site_fract_x
 _atom_site_fract_y
 _atom_site_fract_z
 _atom_site_occupancy
  Sr  Sr0  1  0.24999996  0.49999997  0.24999999  1
  Sr  Sr1  1  0.74999994  0.49999997  0.74999997  1
  Ca  Ca2  1  0.49999998  0.00000000  0.49999998  1
  Fe  Fe3  1  0.00000000  0.00000000  0.00000000  1
  O  O4  1  0.83793791  0.99999994  0.70646298  1
  O  O5  1  0.16206199  0.00000000  0.29353699  1
  O  O6  1  0.70646292  0.99999994  0.16206199  1
  O  O7  1  0.29353693  0.99999994  0.83793797  1
  O  O8  1  0.23140496  0.46280997  0.76859497  1
  O  O9  1  0.76859494  0.53718997  0.23140499  1
