# generated using pymatgen
data_EuCo4Ge3
_symmetry_space_group_name_H-M   'P 1'
_cell_length_a   3.86703610
_cell_length_b   3.86703610
_cell_length_c   10.13096142
_cell_angle_alpha   90.00000000
_cell_angle_beta   90.00000000
_cell_angle_gamma   90.00000000
_symmetry_Int_Tables_number   1
_chemical_formula_structural   EuCo4Ge3
_chemical_formula_sum   'Eu1 Co4 Ge3'
_cell_volume   151.49807520
_cell_formula_units_Z   1
loop_
 _symmetry_equiv_pos_site_id
 _symmetry_equiv_pos_as_xyz
  1  'x, y, z'
loop_
 _atom_site_type_symbol
 _atom_site_label
 _atom_site_symmetry_multiplicity
 _atom_site_fract_x
 _atom_site_fract_y
 _atom_site_fract_z
 _atom_site_occupancy
  Eu  Eu0  1  0.00000000  0.00000000  0.49999998  1
  Co  Co1  1  -0.00000000  0.49999999  0.16170099  1
  Co  Co2  1  -0.00000000  0.49999999  0.83829897  1
  Co  Co3  1  0.49999999  0.00000000  0.16170099  1
  Co  Co4  1  0.49999999  0.00000000  0.83829897  1
  Ge  Ge5  1  0.49999999  0.49999999  0.30643599  1
  Ge  Ge6  1  0.49999999  0.49999999  0.69356397  1
  Ge  Ge7  1  0.00000000  0.00000000  0.00000000  1
