# generated using pymatgen
data_VCuAgS4
_symmetry_space_group_name_H-M   'P 1'
_cell_length_a   3.47782397
_cell_length_b   5.90747976
_cell_length_c   7.12115145
_cell_angle_alpha   113.19510651
_cell_angle_beta   104.13395691
_cell_angle_gamma   90.00000000
_symmetry_Int_Tables_number   1
_chemical_formula_structural   VCuAgS4
_chemical_formula_sum   'V1 Cu1 Ag1 S4'
_cell_volume   129.64688612
_cell_formula_units_Z   1
loop_
 _symmetry_equiv_pos_site_id
 _symmetry_equiv_pos_as_xyz
  1  'x, y, z'
loop_
 _atom_site_type_symbol
 _atom_site_label
 _atom_site_symmetry_multiplicity
 _atom_site_fract_x
 _atom_site_fract_y
 _atom_site_fract_z
 _atom_site_occupancy
  Cu  Cu0  1  0.24092702  0.22310201  0.48185400  1
  V  V1  1  0.75907306  0.77689805  0.51814605  1
  Ag  Ag2  1  0.50000004  0.50000003  0.00000004  1
  S  S3  1  0.63778607  0.97402106  0.27557207  1
  S  S4  1  0.36221401  0.02597900  0.72442799  1
  S  S5  1  0.15286703  0.49572903  0.30573402  1
  S  S6  1  0.84713305  0.50427103  0.69426603  1
