# generated using pymatgen
data_LuMgNi4
_symmetry_space_group_name_H-M   'P 1'
_cell_length_a   5.05424929
_cell_length_b   5.05424929
_cell_length_c   5.05424929
_cell_angle_alpha   60.00000000
_cell_angle_beta   60.00000000
_cell_angle_gamma   60.00000000
_symmetry_Int_Tables_number   1
_chemical_formula_structural   LuMgNi4
_chemical_formula_sum   'Lu1 Mg1 Ni4'
_cell_volume   91.29667850
_cell_formula_units_Z   1
loop_
 _symmetry_equiv_pos_site_id
 _symmetry_equiv_pos_as_xyz
  1  'x, y, z'
loop_
 _atom_site_type_symbol
 _atom_site_label
 _atom_site_symmetry_multiplicity
 _atom_site_fract_x
 _atom_site_fract_y
 _atom_site_fract_z
 _atom_site_occupancy
  Lu  Lu0  1  0.00000000  0.00000000  0.00000000  1
  Mg  Mg1  1  0.75000001  0.75000001  0.75000001  1
  Ni  Ni2  1  0.37664501  0.87006301  0.37664601  1
  Ni  Ni3  1  0.37664501  0.37664601  0.37664601  1
  Ni  Ni4  1  0.37664501  0.37664601  0.87006301  1
  Ni  Ni5  1  0.87006201  0.37664601  0.37664601  1
