# generated using pymatgen
data_Sm(HO)3
_symmetry_space_group_name_H-M   'P 1'
_cell_length_a   3.45308089
_cell_length_b   6.30091190
_cell_length_c   6.30091143
_cell_angle_alpha   120.00000763
_cell_angle_beta   90.00000000
_cell_angle_gamma   90.00000000
_symmetry_Int_Tables_number   1
_chemical_formula_structural   Sm(HO)3
_chemical_formula_sum   'Sm2 H6 O6'
_cell_volume   118.72553434
_cell_formula_units_Z   2
loop_
 _symmetry_equiv_pos_site_id
 _symmetry_equiv_pos_as_xyz
  1  'x, y, z'
loop_
 _atom_site_type_symbol
 _atom_site_label
 _atom_site_symmetry_multiplicity
 _atom_site_fract_x
 _atom_site_fract_y
 _atom_site_fract_z
 _atom_site_occupancy
  Sm  Sm0  1  0.75000002  0.66666670  0.33333337  1
  Sm  Sm1  1  0.25000001  0.33333335  0.66666667  1
  H  H2  1  0.75000002  0.14203501  0.86302899  1
  H  H3  1  0.75000002  0.13697101  0.27900600  1
  H  H4  1  0.75000002  0.72099404  0.85796503  1
  H  H5  1  0.25000001  0.85796505  0.13697106  1
  H  H6  1  0.25000001  0.86302905  0.72099405  1
  H  H7  1  0.25000001  0.27900601  0.14203502  1
  O  O8  1  0.75000002  0.08652300  0.68856699  1
  O  O9  1  0.75000002  0.31143302  0.39795601  1
  O  O10  1  0.75000002  0.60204403  0.91347702  1
  O  O11  1  0.25000001  0.91347705  0.31143306  1
  O  O12  1  0.25000001  0.68856704  0.60204404  1
  O  O13  1  0.25000001  0.39795602  0.08652303  1
