# generated using pymatgen
data_Mn2O3F
_symmetry_space_group_name_H-M   'P 1'
_cell_length_a   3.00765705
_cell_length_b   4.53567123
_cell_length_c   13.59994411
_cell_angle_alpha   90.00000000
_cell_angle_beta   90.00000000
_cell_angle_gamma   90.00000000
_symmetry_Int_Tables_number   1
_chemical_formula_structural   Mn2O3F
_chemical_formula_sum   'Mn6 O9 F3'
_cell_volume   185.52695016
_cell_formula_units_Z   3
loop_
 _symmetry_equiv_pos_site_id
 _symmetry_equiv_pos_as_xyz
  1  'x, y, z'
loop_
 _atom_site_type_symbol
 _atom_site_label
 _atom_site_symmetry_multiplicity
 _atom_site_fract_x
 _atom_site_fract_y
 _atom_site_fract_z
 _atom_site_occupancy
  Mn  Mn0  1  0.49999999  0.73092396  0.99903699  1
  Mn  Mn1  1  0.49999999  0.77355396  0.33934900  1
  Mn  Mn2  1  0.49999999  0.77489796  0.65989199  1
  Mn  Mn3  1  0.00000000  0.22510199  0.15989200  1
  Mn  Mn4  1  0.00000000  0.26907599  0.49903700  1
  Mn  Mn5  1  0.00000000  0.22644599  0.83934899  1
  O  O6  1  0.00000000  0.94837895  0.26915700  1
  O  O7  1  0.00000000  0.95561095  0.59949699  1
  O  O8  1  0.00000000  0.93384995  0.93747199  1
  O  O9  1  0.49999999  0.04438900  0.09949700  1
  O  O10  1  0.49999999  0.05162100  0.76915699  1
  O  O11  1  0.49999999  0.06615000  0.43747200  1
  O  O12  1  0.49999999  0.45137898  0.56649500  1
  O  O13  1  0.49999999  0.43802498  0.89635299  1
  O  O14  1  0.00000000  0.54862097  0.06649500  1
  F  F15  1  0.00000000  0.56197497  0.39635300  1
  F  F16  1  0.49999999  0.44874498  0.23271400  1
  F  F17  1  0.00000000  0.55125497  0.73271399  1
