# generated using pymatgen
data_La(Ni2Sn)2
_symmetry_space_group_name_H-M   'P 1'
_cell_length_a   6.77462387
_cell_length_b   6.77462387
_cell_length_c   6.77462387
_cell_angle_alpha   108.39263916
_cell_angle_beta   110.01318359
_cell_angle_gamma   110.01318359
_symmetry_Int_Tables_number   1
_chemical_formula_structural   La(Ni2Sn)2
_chemical_formula_sum   'La2 Ni8 Sn4'
_cell_volume   239.28669275
_cell_formula_units_Z   2
loop_
 _symmetry_equiv_pos_site_id
 _symmetry_equiv_pos_as_xyz
  1  'x, y, z'
loop_
 _atom_site_type_symbol
 _atom_site_label
 _atom_site_symmetry_multiplicity
 _atom_site_fract_x
 _atom_site_fract_y
 _atom_site_fract_z
 _atom_site_occupancy
  La  La0  1  0.49999991  0.49999995  0.99999990  1
  La  La1  1  0.49999983  0.99999990  0.49999983  1
  Ni  Ni2  1  0.72380494  0.27597797  0.27575092  1
  Ni  Ni3  1  0.27619491  0.55194595  0.55217290  1
  Ni  Ni4  1  0.99977297  0.05194599  0.77575094  1
  Ni  Ni5  1  0.00022688  0.77597792  0.05217289  1
  Ni  Ni6  1  0.00022689  0.72424893  0.44805389  1
  Ni  Ni7  1  0.99977291  0.44782696  0.72402188  1
  Ni  Ni8  1  0.27619496  0.22424898  0.22402195  1
  Ni  Ni9  1  0.72380484  0.94782691  0.94805382  1
  Sn  Sn10  1  0.31842885  0.90921491  0.90921485  1
  Sn  Sn11  1  0.68157090  0.59078494  0.59078488  1
  Sn  Sn12  1  -0.00000001  0.09078599  0.40921399  1
  Sn  Sn13  1  -0.00000006  0.40921396  0.09078594  1
