# generated using pymatgen
data_KSb(ClF2)2
_symmetry_space_group_name_H-M   'P 1'
_cell_length_a   3.90328193
_cell_length_b   7.53353930
_cell_length_c   8.58397770
_cell_angle_alpha   104.28278351
_cell_angle_beta   103.14160919
_cell_angle_gamma   90.00000000
_symmetry_Int_Tables_number   1
_chemical_formula_structural   KSb(ClF2)2
_chemical_formula_sum   'K1 Sb1 Cl2 F4'
_cell_volume   237.78687216
_cell_formula_units_Z   1
loop_
 _symmetry_equiv_pos_site_id
 _symmetry_equiv_pos_as_xyz
  1  'x, y, z'
loop_
 _atom_site_type_symbol
 _atom_site_label
 _atom_site_symmetry_multiplicity
 _atom_site_fract_x
 _atom_site_fract_y
 _atom_site_fract_z
 _atom_site_occupancy
  K  K0  1  0.99991803  0.70639402  0.99983605  1
  Sb  Sb1  1  0.00008201  0.29360601  0.00016401  1
  Cl  Cl2  1  0.11658300  0.06538700  0.23316601  1
  Cl  Cl3  1  0.88341703  0.93461302  0.76683405  1
  F  F4  1  0.14328301  0.58083301  0.28656603  1
  F  F5  1  0.85671702  0.41916701  0.71343403  1
  F  F6  1  0.49994502  0.71300502  0.99989005  1
  F  F7  1  0.50005501  0.28699501  0.00011001  1
