# generated using pymatgen
data_CdIn2AgSe4
_symmetry_space_group_name_H-M   'P 1'
_cell_length_a   6.24357414
_cell_length_b   6.24357414
_cell_length_c   7.54857302
_cell_angle_alpha   114.42865753
_cell_angle_beta   114.42865753
_cell_angle_gamma   90.00000000
_symmetry_Int_Tables_number   1
_chemical_formula_structural   CdIn2AgSe4
_chemical_formula_sum   'Cd1 In2 Ag1 Se4'
_cell_volume   238.68404250
_cell_formula_units_Z   1
loop_
 _symmetry_equiv_pos_site_id
 _symmetry_equiv_pos_as_xyz
  1  'x, y, z'
loop_
 _atom_site_type_symbol
 _atom_site_label
 _atom_site_symmetry_multiplicity
 _atom_site_fract_x
 _atom_site_fract_y
 _atom_site_fract_z
 _atom_site_occupancy
  Cd  Cd0  1  0.74999997  0.24999999  0.49999996  1
  In  In1  1  0.49999997  0.49999998  -0.00000003  1
  In  In2  1  0.00000000  0.00000000  0.00000000  1
  Ag  Ag3  1  0.24999997  0.74999997  0.49999995  1
  Se  Se4  1  0.11804098  0.62848697  0.76139495  1
  Se  Se5  1  0.64335397  0.13290799  0.76139596  1
  Se  Se6  1  0.37151198  0.35664599  0.23860497  1
  Se  Se7  1  0.86709194  0.88195796  0.23860394  1
