# generated using pymatgen
data_CePrCo10
_symmetry_space_group_name_H-M   'P 1'
_cell_length_a   3.96209788
_cell_length_b   4.96143818
_cell_length_c   8.64148617
_cell_angle_alpha   90.00000000
_cell_angle_beta   90.00000000
_cell_angle_gamma   90.00000000
_symmetry_Int_Tables_number   1
_chemical_formula_structural   CePrCo10
_chemical_formula_sum   'Ce1 Pr1 Co10'
_cell_volume   169.87177468
_cell_formula_units_Z   1
loop_
 _symmetry_equiv_pos_site_id
 _symmetry_equiv_pos_as_xyz
  1  'x, y, z'
loop_
 _atom_site_type_symbol
 _atom_site_label
 _atom_site_symmetry_multiplicity
 _atom_site_fract_x
 _atom_site_fract_y
 _atom_site_fract_z
 _atom_site_occupancy
  Pr  Pr0  1  0.00000000  0.49999998  -0.00000000  1
  Ce  Ce1  1  0.00000000  0.00000000  0.49999999  1
  Co  Co2  1  0.00000000  0.49999998  0.33427499  1
  Co  Co3  1  0.00000000  0.00000000  0.82921398  1
  Co  Co4  1  0.00000000  0.00000000  0.17078600  1
  Co  Co5  1  0.00000000  0.49999998  0.66572499  1
  Co  Co6  1  0.50000001  0.49999998  0.49999999  1
  Co  Co7  1  0.50000001  0.00000000  0.00000000  1
  Co  Co8  1  0.50000001  0.75763697  0.25893099  1
  Co  Co9  1  0.50000001  0.24236299  0.74106899  1
  Co  Co10  1  0.50000001  0.24236299  0.25893099  1
  Co  Co11  1  0.50000001  0.75763697  0.74106899  1
