# generated using pymatgen
data_Ag2SO2
_symmetry_space_group_name_H-M   'P 1'
_cell_length_a   3.80627394
_cell_length_b   6.62904978
_cell_length_c   6.75835657
_cell_angle_alpha   109.34471893
_cell_angle_beta   90.00000000
_cell_angle_gamma   90.00000000
_symmetry_Int_Tables_number   1
_chemical_formula_structural   Ag2SO2
_chemical_formula_sum   'Ag4 S2 O4'
_cell_volume   160.89923595
_cell_formula_units_Z   2
loop_
 _symmetry_equiv_pos_site_id
 _symmetry_equiv_pos_as_xyz
  1  'x, y, z'
loop_
 _atom_site_type_symbol
 _atom_site_label
 _atom_site_symmetry_multiplicity
 _atom_site_fract_x
 _atom_site_fract_y
 _atom_site_fract_z
 _atom_site_occupancy
  Ag  Ag0  1  -0.00000000  0.13175400  0.38522200  1
  Ag  Ag1  1  -0.00000000  0.38664301  0.14213499  1
  Ag  Ag2  1  0.50000001  0.63306602  0.40456499  1
  Ag  Ag3  1  -0.00000000  0.61116002  0.85883599  1
  S  S4  1  0.50000001  0.87322002  0.13234598  1
  S  S5  1  0.50000001  0.12847500  0.86054000  1
  O  O6  1  -0.00000000  0.00640500  0.01324100  1
  O  O7  1  1.00000002  0.49678801  0.50796599  1
  O  O8  1  0.50000001  0.50181801  0.00400299  1
  O  O9  1  0.50000001  0.00267100  0.50714600  1
