# generated using pymatgen
data_FeCoS4
_symmetry_space_group_name_H-M   'P 1'
_cell_length_a   5.69658279
_cell_length_b   5.70654011
_cell_length_c   5.70866203
_cell_angle_alpha   90.00000000
_cell_angle_beta   89.94216156
_cell_angle_gamma   90.00000000
_symmetry_Int_Tables_number   1
_chemical_formula_structural   FeCoS4
_chemical_formula_sum   'Fe2 Co2 S8'
_cell_volume   185.57582459
_cell_formula_units_Z   2
loop_
 _symmetry_equiv_pos_site_id
 _symmetry_equiv_pos_as_xyz
  1  'x, y, z'
loop_
 _atom_site_type_symbol
 _atom_site_label
 _atom_site_symmetry_multiplicity
 _atom_site_fract_x
 _atom_site_fract_y
 _atom_site_fract_z
 _atom_site_occupancy
  Fe  Fe0  1  -0.00000000  0.49999999  0.49999999  1
  Fe  Fe1  1  0.00000000  0.00000000  0.00000000  1
  Co  Co2  1  0.50000002  0.49999999  0.00000002  1
  Co  Co3  1  0.50000002  0.00000000  0.50000001  1
  S  S4  1  0.11030300  0.11708500  0.38293200  1
  S  S5  1  0.88969703  0.61708499  0.11706804  1
  S  S6  1  0.38058201  0.88688798  0.88750900  1
  S  S7  1  0.61941802  0.38688799  0.61249102  1
  S  S8  1  0.88969703  0.88291498  0.61706803  1
  S  S9  1  0.11030300  0.38291499  0.88293199  1
  S  S10  1  0.61941802  0.11311200  0.11249103  1
  S  S11  1  0.38058201  0.61311199  0.38750901  1
