# generated using pymatgen
data_RbCrS3
_symmetry_space_group_name_H-M   'P 1'
_cell_length_a   5.96143293
_cell_length_b   6.91558218
_cell_length_c   6.97391033
_cell_angle_alpha   60.27629089
_cell_angle_beta   90.00000000
_cell_angle_gamma   90.00000000
_symmetry_Int_Tables_number   1
_chemical_formula_structural   RbCrS3
_chemical_formula_sum   'Rb2 Cr2 S6'
_cell_volume   249.68289702
_cell_formula_units_Z   2
loop_
 _symmetry_equiv_pos_site_id
 _symmetry_equiv_pos_as_xyz
  1  'x, y, z'
loop_
 _atom_site_type_symbol
 _atom_site_label
 _atom_site_symmetry_multiplicity
 _atom_site_fract_x
 _atom_site_fract_y
 _atom_site_fract_z
 _atom_site_occupancy
  Rb  Rb0  1  1.00000001  0.33524499  0.32951002  1
  Rb  Rb1  1  0.50000001  0.66580897  0.66838204  1
  Cr  Cr2  1  0.74531001  0.99293196  0.01413603  1
  Cr  Cr3  1  0.25469000  0.99293196  0.01413603  1
  S  S4  1  0.50000001  0.17054999  0.65890002  1
  S  S5  1  -0.00000000  0.83004196  0.83550205  1
  S  S6  1  -0.00000000  0.33445599  0.83550203  1
  S  S7  1  -0.00000000  0.83077396  0.33845204  1
  S  S8  1  0.50000001  0.16182699  0.15182501  1
  S  S9  1  0.50000001  0.68634797  0.15182503  1
