# generated using pymatgen
data_CeZrS3
_symmetry_space_group_name_H-M   'P 1'
_cell_length_a   6.69348001
_cell_length_b   7.33567095
_cell_length_c   9.88471222
_cell_angle_alpha   90.00000000
_cell_angle_beta   90.00000000
_cell_angle_gamma   90.00000000
_symmetry_Int_Tables_number   1
_chemical_formula_structural   CeZrS3
_chemical_formula_sum   'Ce4 Zr4 S12'
_cell_volume   485.35090429
_cell_formula_units_Z   4
loop_
 _symmetry_equiv_pos_site_id
 _symmetry_equiv_pos_as_xyz
  1  'x, y, z'
loop_
 _atom_site_type_symbol
 _atom_site_label
 _atom_site_symmetry_multiplicity
 _atom_site_fract_x
 _atom_site_fract_y
 _atom_site_fract_z
 _atom_site_occupancy
  Ce  Ce0  1  0.53527100  0.40557100  0.74999998  1
  Ce  Ce1  1  0.46472900  0.59442900  0.24999999  1
  Ce  Ce2  1  0.03527100  0.09442900  0.24999999  1
  Ce  Ce3  1  0.96472900  0.90557101  0.74999998  1
  Zr  Zr4  1  0.00000000  0.50000000  0.00000000  1
  Zr  Zr5  1  0.00000000  0.50000000  0.49999999  1
  Zr  Zr6  1  0.50000000  0.00000000  0.49999999  1
  Zr  Zr7  1  0.50000000  0.00000000  0.00000000  1
  S  S8  1  0.82265700  0.19037200  0.56783799  1
  S  S9  1  0.17734300  0.80962801  0.06783800  1
  S  S10  1  0.32265700  0.30962800  0.06783800  1
  S  S11  1  0.67734300  0.69037200  0.56783799  1
  S  S12  1  0.82265700  0.19037200  0.93216198  1
  S  S13  1  0.17734300  0.80962801  0.43216199  1
  S  S14  1  0.32265700  0.30962800  0.43216199  1
  S  S15  1  0.67734300  0.69037200  0.93216198  1
  S  S16  1  0.86488600  0.45424600  0.24999999  1
  S  S17  1  0.13511400  0.54575400  0.74999998  1
  S  S18  1  0.36488600  0.04575400  0.74999998  1
  S  S19  1  0.63511400  0.95424601  0.24999999  1
