# generated using pymatgen
data_SrBiTe
_symmetry_space_group_name_H-M   'P 1'
_cell_length_a   8.05834961
_cell_length_b   9.10261250
_cell_length_c   13.82553768
_cell_angle_alpha   100.70881653
_cell_angle_beta   106.94358063
_cell_angle_gamma   90.00000000
_symmetry_Int_Tables_number   1
_chemical_formula_structural   SrBiTe
_chemical_formula_sum   'Sr6 Bi6 Te6'
_cell_volume   951.63153246
_cell_formula_units_Z   6
loop_
 _symmetry_equiv_pos_site_id
 _symmetry_equiv_pos_as_xyz
  1  'x, y, z'
loop_
 _atom_site_type_symbol
 _atom_site_label
 _atom_site_symmetry_multiplicity
 _atom_site_fract_x
 _atom_site_fract_y
 _atom_site_fract_z
 _atom_site_occupancy
  Sr  Sr0  1  0.38893802  0.64133901  0.33109801  1
  Sr  Sr1  1  0.94216004  0.14133900  0.33109799  1
  Sr  Sr2  1  0.05784001  0.85866101  0.66890201  1
  Sr  Sr3  1  0.61106203  0.35866101  0.66890199  1
  Sr  Sr4  1  0.66576604  0.75000001  0.00000002  1
  Sr  Sr5  1  0.33423402  0.25000000  0.00000000  1
  Bi  Bi6  1  0.61471203  0.52123301  0.15502901  1
  Bi  Bi7  1  0.54031702  0.02123300  0.15502899  1
  Te  Te8  1  0.05497601  0.82622401  0.17904702  1
  Te  Te9  1  0.12407101  0.32622401  0.17904700  1
  Te  Te10  1  0.73765804  0.90687401  0.45164501  1
  Bi  Bi11  1  0.71398704  0.40687401  0.45164499  1
  Te  Te12  1  0.28601302  0.59312601  0.54835500  1
  Bi  Bi13  1  0.26234201  0.09312600  0.54835499  1
  Bi  Bi14  1  0.87592905  0.67377601  0.82095299  1
  Bi  Bi15  1  0.94502404  0.17377600  0.82095298  1
  Te  Te16  1  0.45968303  0.97876702  0.84497101  1
  Te  Te17  1  0.38528802  0.47876701  0.84497099  1
