# generated using pymatgen
data_Li2CuO4
_symmetry_space_group_name_H-M   'P 1'
_cell_length_a   3.02616906
_cell_length_b   5.04704762
_cell_length_c   5.04704762
_cell_angle_alpha   108.39678955
_cell_angle_beta   90.00000000
_cell_angle_gamma   90.00000000
_symmetry_Int_Tables_number   1
_chemical_formula_structural   Li2CuO4
_chemical_formula_sum   'Li2 Cu1 O4'
_cell_volume   73.14515300
_cell_formula_units_Z   1
loop_
 _symmetry_equiv_pos_site_id
 _symmetry_equiv_pos_as_xyz
  1  'x, y, z'
loop_
 _atom_site_type_symbol
 _atom_site_label
 _atom_site_symmetry_multiplicity
 _atom_site_fract_x
 _atom_site_fract_y
 _atom_site_fract_z
 _atom_site_occupancy
  Li  Li0  1  0.49999999  0.00000000  -0.00000000  1
  Li  Li1  1  0.00000000  0.00000000  0.50000000  1
  Cu  Cu2  1  -0.00000000  0.50000001  0.00000001  1
  O  O3  1  -0.00000000  0.76457101  0.76457103  1
  O  O4  1  0.49999999  0.74282801  0.25717202  1
  O  O5  1  -0.00000000  0.23542900  0.23542901  1
  O  O6  1  0.49999999  0.25717200  0.74282801  1
