# generated using pymatgen
data_Ta3Ni5
_symmetry_space_group_name_H-M   'P 1'
_cell_length_a   4.40031910
_cell_length_b   5.55504799
_cell_length_c   5.55504847
_cell_angle_alpha   60.00000000
_cell_angle_beta   90.00000000
_cell_angle_gamma   90.00000000
_symmetry_Int_Tables_number   1
_chemical_formula_structural   Ta3Ni5
_chemical_formula_sum   'Ta3 Ni5'
_cell_volume   117.59543708
_cell_formula_units_Z   1
loop_
 _symmetry_equiv_pos_site_id
 _symmetry_equiv_pos_as_xyz
  1  'x, y, z'
loop_
 _atom_site_type_symbol
 _atom_site_label
 _atom_site_symmetry_multiplicity
 _atom_site_fract_x
 _atom_site_fract_y
 _atom_site_fract_z
 _atom_site_occupancy
  Ta  Ta0  1  0.74999998  0.68218701  0.15890697  1
  Ta  Ta1  1  0.74999998  0.15890600  0.15890699  1
  Ni  Ni2  1  0.74999998  0.15890600  0.68218797  1
  Ta  Ta3  1  0.24999999  0.31781301  0.84109296  1
  Ni  Ni4  1  0.24999999  0.84109402  0.84109294  1
  Ni  Ni5  1  0.24999999  0.84109402  0.31781196  1
  Ni  Ni6  1  0.24999999  0.33333334  0.33333331  1
  Ni  Ni7  1  0.74999998  0.66666668  0.66666662  1
