# generated using pymatgen
data_SrFeO3
_symmetry_space_group_name_H-M   'P 1'
_cell_length_a   5.50461912
_cell_length_b   5.51244736
_cell_length_c   5.51383543
_cell_angle_alpha   60.07997131
_cell_angle_beta   60.05797958
_cell_angle_gamma   60.08321381
_symmetry_Int_Tables_number   1
_chemical_formula_structural   SrFeO3
_chemical_formula_sum   'Sr2 Fe2 O6'
_cell_volume   118.50466326
_cell_formula_units_Z   2
loop_
 _symmetry_equiv_pos_site_id
 _symmetry_equiv_pos_as_xyz
  1  'x, y, z'
loop_
 _atom_site_type_symbol
 _atom_site_label
 _atom_site_symmetry_multiplicity
 _atom_site_fract_x
 _atom_site_fract_y
 _atom_site_fract_z
 _atom_site_occupancy
  Sr  Sr0  1  0.24999903  0.75000197  0.75000196  1
  Sr  Sr1  1  0.75000201  0.24999899  0.24999900  1
  Fe  Fe2  1  0.99994002  0.50017898  0.49983999  1
  Fe  Fe3  1  0.50005803  0.99981496  0.00015698  1
  O  O4  1  0.25028901  0.24971099  0.24970999  1
  O  O5  1  0.74971403  0.75028897  0.75028897  1
  O  O6  1  0.75000601  0.25001499  0.74998698  1
  O  O7  1  0.24999303  0.74998497  0.25001597  1
  O  O8  1  0.24999801  0.25001199  0.74998998  1
  O  O9  1  0.75000203  0.74999197  0.25000998  1
