# generated using pymatgen
data_Mg2MnRuO6
_symmetry_space_group_name_H-M   'P 1'
_cell_length_a   5.07294798
_cell_length_b   5.30347776
_cell_length_c   7.71843815
_cell_angle_alpha   90.00000000
_cell_angle_beta   90.95313263
_cell_angle_gamma   90.00000000
_symmetry_Int_Tables_number   1
_chemical_formula_structural   Mg2MnRuO6
_chemical_formula_sum   'Mg4 Mn2 Ru2 O12'
_cell_volume   207.63018686
_cell_formula_units_Z   2
loop_
 _symmetry_equiv_pos_site_id
 _symmetry_equiv_pos_as_xyz
  1  'x, y, z'
loop_
 _atom_site_type_symbol
 _atom_site_label
 _atom_site_symmetry_multiplicity
 _atom_site_fract_x
 _atom_site_fract_y
 _atom_site_fract_z
 _atom_site_occupancy
  Mg  Mg0  1  0.01554100  0.06924900  0.24708099  1
  Mg  Mg1  1  0.48445900  0.56924903  0.25291898  1
  Mg  Mg2  1  0.51554100  0.43075102  0.74708096  1
  Mg  Mg3  1  0.98445900  0.93075104  0.75291895  1
  Mn  Mn4  1  0.00000000  0.50000002  0.00000000  1
  Mn  Mn5  1  0.50000000  0.00000000  0.49999997  1
  Ru  Ru6  1  0.00000000  0.50000002  0.49999999  1
  Ru  Ru7  1  0.50000000  0.00000000  -0.00000002  1
  O  O8  1  0.14353900  0.57343403  0.73503698  1
  O  O9  1  0.18431100  0.81752804  0.07201699  1
  O  O10  1  0.17127800  0.81074404  0.42097098  1
  O  O11  1  0.32872200  0.31074401  0.07902899  1
  O  O12  1  0.31568900  0.31752801  0.42798298  1
  O  O13  1  0.35646100  0.07343400  0.76496297  1
  O  O14  1  0.64353900  0.92656604  0.23503697  1
  O  O15  1  0.68431100  0.68247203  0.57201696  1
  O  O16  1  0.67127800  0.68925603  0.92097096  1
  O  O17  1  0.81568900  0.18247201  0.92798295  1
  O  O18  1  0.82872200  0.18925601  0.57902896  1
  O  O19  1  0.85646100  0.42656602  0.26496297  1
