# generated using pymatgen
data_CeZn12
_symmetry_space_group_name_H-M   'P 1'
_cell_length_a   5.55445194
_cell_length_b   7.05837536
_cell_length_c   7.05837536
_cell_angle_alpha   81.40914154
_cell_angle_beta   66.82970428
_cell_angle_gamma   66.82970428
_symmetry_Int_Tables_number   1
_chemical_formula_structural   CeZn12
_chemical_formula_sum   'Ce1 Zn12'
_cell_volume   233.88023386
_cell_formula_units_Z   1
loop_
 _symmetry_equiv_pos_site_id
 _symmetry_equiv_pos_as_xyz
  1  'x, y, z'
loop_
 _atom_site_type_symbol
 _atom_site_label
 _atom_site_symmetry_multiplicity
 _atom_site_fract_x
 _atom_site_fract_y
 _atom_site_fract_z
 _atom_site_occupancy
  Ce  Ce0  1  0.00000000  0.00000000  0.00000000  1
  Zn  Zn1  1  0.33706597  0.66293400  0.66293404  1
  Zn  Zn2  1  0.66293399  0.33706600  0.33706602  1
  Zn  Zn3  1  1.00000000  0.34255800  0.65744201  1
  Zn  Zn4  1  -0.00000003  0.65744200  0.34255804  1
  Zn  Zn5  1  0.49999997  0.81425300  0.18574705  1
  Zn  Zn6  1  0.50000000  0.18574700  0.81425300  1
  Zn  Zn7  1  0.99999999  0.50000000  0.00000003  1
  Zn  Zn8  1  0.49999998  0.50000000  1.00000002  1
  Zn  Zn9  1  0.00000000  0.00000000  0.50000000  1
  Zn  Zn10  1  0.50000001  0.00000000  0.49999999  1
  Zn  Zn11  1  0.26710799  0.23289200  0.23289201  1
  Zn  Zn12  1  0.73289197  0.76710800  0.76710804  1
