# generated using pymatgen
data_ErInPd
_symmetry_space_group_name_H-M   'P 1'
_cell_length_a   3.97420597
_cell_length_b   7.67805195
_cell_length_c   7.67805290
_cell_angle_alpha   120.00000000
_cell_angle_beta   90.00000000
_cell_angle_gamma   90.00000000
_symmetry_Int_Tables_number   1
_chemical_formula_structural   ErInPd
_chemical_formula_sum   'Er3 In3 Pd3'
_cell_volume   202.90051505
_cell_formula_units_Z   3
loop_
 _symmetry_equiv_pos_site_id
 _symmetry_equiv_pos_as_xyz
  1  'x, y, z'
loop_
 _atom_site_type_symbol
 _atom_site_label
 _atom_site_symmetry_multiplicity
 _atom_site_fract_x
 _atom_site_fract_y
 _atom_site_fract_z
 _atom_site_occupancy
  Er  Er0  1  -0.00000000  0.39950202  0.39950202  1
  Er  Er1  1  1.00000001  0.00000000  0.60049799  1
  Er  Er2  1  1.00000001  0.60049802  1.00000003  1
  In  In3  1  0.50000000  0.73497703  0.73497704  1
  In  In4  1  0.50000000  1.00000004  0.26502307  1
  In  In5  1  0.50000000  0.26502301  1.00000000  1
  Pd  Pd6  1  0.50000000  0.66666669  0.33333337  1
  Pd  Pd7  1  0.50000000  0.33333335  0.66666668  1
  Pd  Pd8  1  0.00000000  0.00000000  0.00000000  1
