# generated using pymatgen
data_Ce2Si5Ni3
_symmetry_space_group_name_H-M   'P 1'
_cell_length_a   3.99656105
_cell_length_b   3.99656105
_cell_length_c   10.58840275
_cell_angle_alpha   90.00000000
_cell_angle_beta   90.00000000
_cell_angle_gamma   90.00000000
_symmetry_Int_Tables_number   1
_chemical_formula_structural   Ce2Si5Ni3
_chemical_formula_sum   'Ce2 Si5 Ni3'
_cell_volume   169.12326533
_cell_formula_units_Z   1
loop_
 _symmetry_equiv_pos_site_id
 _symmetry_equiv_pos_as_xyz
  1  'x, y, z'
loop_
 _atom_site_type_symbol
 _atom_site_label
 _atom_site_symmetry_multiplicity
 _atom_site_fract_x
 _atom_site_fract_y
 _atom_site_fract_z
 _atom_site_occupancy
  Ce  Ce0  1  0.00000000  0.00000000  0.00000000  1
  Ce  Ce1  1  0.49999999  0.49999999  0.50000001  1
  Si  Si2  1  -0.00000000  0.49999999  0.25065201  1
  Si  Si3  1  0.49999999  0.00000000  0.74934802  1
  Si  Si4  1  0.49999999  0.00000000  0.25065201  1
  Si  Si5  1  -0.00000000  0.49999999  0.74934802  1
  Si  Si6  1  0.49999999  0.49999999  0.12856000  1
  Ni  Ni7  1  0.00000000  0.00000000  0.62637301  1
  Ni  Ni8  1  0.00000000  0.00000000  0.37362701  1
  Ni  Ni9  1  0.49999999  0.49999999  0.87144002  1
