# generated using pymatgen
data_Sc2CoSe2
_symmetry_space_group_name_H-M   'P 1'
_cell_length_a   3.84419394
_cell_length_b   10.33223534
_cell_length_c   10.45526505
_cell_angle_alpha   90.00000000
_cell_angle_beta   90.00000000
_cell_angle_gamma   90.00000000
_symmetry_Int_Tables_number   1
_chemical_formula_structural   Sc2CoSe2
_chemical_formula_sum   'Sc8 Co4 Se8'
_cell_volume   415.27388952
_cell_formula_units_Z   4
loop_
 _symmetry_equiv_pos_site_id
 _symmetry_equiv_pos_as_xyz
  1  'x, y, z'
loop_
 _atom_site_type_symbol
 _atom_site_label
 _atom_site_symmetry_multiplicity
 _atom_site_fract_x
 _atom_site_fract_y
 _atom_site_fract_z
 _atom_site_occupancy
  Sc  Sc0  1  0.25000000  0.13239700  0.04864600  1
  Sc  Sc1  1  0.75000001  0.86760297  0.95135400  1
  Sc  Sc2  1  0.25000000  0.36760299  0.54864600  1
  Sc  Sc3  1  0.75000001  0.63239698  0.45135400  1
  Sc  Sc4  1  0.25000000  0.06364400  0.37214000  1
  Sc  Sc5  1  0.75000001  0.93635597  0.62786000  1
  Sc  Sc6  1  0.25000000  0.43635599  0.87214000  1
  Sc  Sc7  1  0.75000001  0.56364398  0.12786000  1
  Co  Co8  1  0.25000000  0.79646397  0.22311900  1
  Co  Co9  1  0.75000001  0.20353599  0.77688100  1
  Co  Co10  1  0.25000000  0.70353598  0.72311900  1
  Co  Co11  1  0.75000001  0.29646399  0.27688100  1
  Se  Se12  1  0.25000000  0.49464598  0.31309700  1
  Se  Se13  1  0.75000001  0.50535398  0.68690300  1
  Se  Se14  1  0.25000000  0.00535400  0.81309700  1
  Se  Se15  1  0.75000001  0.99464597  0.18690300  1
  Se  Se16  1  0.25000000  0.82094197  0.48650500  1
  Se  Se17  1  0.75000001  0.17905799  0.51349500  1
  Se  Se18  1  0.25000000  0.67905798  0.98650500  1
  Se  Se19  1  0.75000001  0.32094199  0.01349500  1
