# generated using pymatgen
data_NbAlVB2Mo3
_symmetry_space_group_name_H-M   'P 1'
_cell_length_a   3.34825993
_cell_length_b   3.34825993
_cell_length_c   11.25163746
_cell_angle_alpha   90.00000000
_cell_angle_beta   90.00000000
_cell_angle_gamma   120.00000000
_symmetry_Int_Tables_number   1
_chemical_formula_structural   NbAlVB2Mo3
_chemical_formula_sum   'Nb1 Al1 V1 B2 Mo3'
_cell_volume   109.24075470
_cell_formula_units_Z   1
loop_
 _symmetry_equiv_pos_site_id
 _symmetry_equiv_pos_as_xyz
  1  'x, y, z'
loop_
 _atom_site_type_symbol
 _atom_site_label
 _atom_site_symmetry_multiplicity
 _atom_site_fract_x
 _atom_site_fract_y
 _atom_site_fract_z
 _atom_site_occupancy
  V  V0  1  0.00000000  0.00000000  0.49999998  1
  Al  Al1  1  0.00000000  0.00000000  0.00000000  1
  Nb  Nb2  1  0.66666667  0.33333332  0.61314597  1
  B  B3  1  0.33333332  0.66666663  0.38685398  1
  B  B4  1  0.33333332  0.66666663  0.11314600  1
  Mo  Mo5  1  0.66666667  0.33333332  0.88685396  1
  Mo  Mo6  1  0.00000000  0.00000000  0.74999997  1
  Mo  Mo7  1  0.00000000  0.00000000  0.24999999  1
