# generated using pymatgen
data_CeAgPd2
_symmetry_space_group_name_H-M   'P 1'
_cell_length_a   4.79603386
_cell_length_b   5.12499237
_cell_length_c   4.79603386
_cell_angle_alpha   62.10151291
_cell_angle_beta   90.00000000
_cell_angle_gamma   117.89848328
_symmetry_Int_Tables_number   1
_chemical_formula_structural   CeAgPd2
_chemical_formula_sum   'Ce1 Ag1 Pd2'
_cell_volume   88.38426808
_cell_formula_units_Z   1
loop_
 _symmetry_equiv_pos_site_id
 _symmetry_equiv_pos_as_xyz
  1  'x, y, z'
loop_
 _atom_site_type_symbol
 _atom_site_label
 _atom_site_symmetry_multiplicity
 _atom_site_fract_x
 _atom_site_fract_y
 _atom_site_fract_z
 _atom_site_occupancy
  Ce  Ce0  1  0.00000000  0.00000000  0.00000000  1
  Ag  Ag1  1  0.75000000  0.50000000  0.75000001  1
  Pd  Pd2  1  0.24999999  0.50000000  0.25000000  1
  Pd  Pd3  1  0.49999998  0.99999999  0.49999999  1
