# generated using pymatgen
data_Ho5Sn3
_symmetry_space_group_name_H-M   'P 1'
_cell_length_a   6.56864405
_cell_length_b   8.96833801
_cell_length_c   8.96833706
_cell_angle_alpha   120.00000000
_cell_angle_beta   90.00000000
_cell_angle_gamma   90.00000000
_symmetry_Int_Tables_number   1
_chemical_formula_structural   Ho5Sn3
_chemical_formula_sum   'Ho10 Sn6'
_cell_volume   457.54124568
_cell_formula_units_Z   2
loop_
 _symmetry_equiv_pos_site_id
 _symmetry_equiv_pos_as_xyz
  1  'x, y, z'
loop_
 _atom_site_type_symbol
 _atom_site_label
 _atom_site_symmetry_multiplicity
 _atom_site_fract_x
 _atom_site_fract_y
 _atom_site_fract_z
 _atom_site_occupancy
  Ho  Ho0  1  0.25000000  0.00000000  0.76210904  1
  Ho  Ho1  1  0.74999999  0.99999998  0.23789098  1
  Ho  Ho2  1  0.74999999  0.23789100  -0.00000001  1
  Ho  Ho3  1  0.25000000  0.23789100  0.23789100  1
  Ho  Ho4  1  0.25000000  0.76210899  -0.00000003  1
  Ho  Ho5  1  0.74999999  0.76210899  0.76210901  1
  Ho  Ho6  1  0.50000000  0.66666665  0.33333333  1
  Ho  Ho7  1  0.99999999  0.33333333  0.66666669  1
  Ho  Ho8  1  0.50000000  0.33333333  0.66666669  1
  Ho  Ho9  1  -0.00000000  0.66666665  0.33333333  1
  Sn  Sn10  1  0.25000000  0.60471299  0.60471301  1
  Sn  Sn11  1  0.74999999  0.60471299  -0.00000002  1
  Sn  Sn12  1  0.74999999  0.99999998  0.60471300  1
  Sn  Sn13  1  0.25000000  0.99999998  0.39528699  1
  Sn  Sn14  1  0.25000000  0.39528699  -0.00000001  1
  Sn  Sn15  1  0.74999999  0.39528699  0.39528701  1
