# generated using pymatgen
data_Zr3AlFe8
_symmetry_space_group_name_H-M   'P 1'
_cell_length_a   4.91258764
_cell_length_b   4.91258764
_cell_length_c   7.98884821
_cell_angle_alpha   90.00047302
_cell_angle_beta   90.00047302
_cell_angle_gamma   60.04881668
_symmetry_Int_Tables_number   1
_chemical_formula_structural   Zr3AlFe8
_chemical_formula_sum   'Zr3 Al1 Fe8'
_cell_volume   167.05091065
_cell_formula_units_Z   1
loop_
 _symmetry_equiv_pos_site_id
 _symmetry_equiv_pos_as_xyz
  1  'x, y, z'
loop_
 _atom_site_type_symbol
 _atom_site_label
 _atom_site_symmetry_multiplicity
 _atom_site_fract_x
 _atom_site_fract_y
 _atom_site_fract_z
 _atom_site_occupancy
  Zr  Zr0  1  0.33333335  0.33333333  0.06624100  1
  Zr  Zr1  1  0.66666669  0.66673233  0.93375899  1
  Zr  Zr2  1  0.66670602  0.66670600  0.55694500  1
  Al  Al3  1  0.33333335  0.33325467  0.44305499  1
  Fe  Fe4  1  0.00000000  0.00000000  0.49999999  1
  Fe  Fe5  1  0.00000000  0.00000000  0.00000000  1
  Fe  Fe6  1  0.66409001  0.16789600  0.74256299  1
  Fe  Fe7  1  0.16796901  0.16796900  0.74243798  1
  Fe  Fe8  1  0.16789602  0.66409000  0.74256299  1
  Fe  Fe9  1  0.33591002  0.83210400  0.25743700  1
  Fe  Fe10  1  0.83203103  0.83203100  0.25756201  1
  Fe  Fe11  1  0.83210402  0.33591000  0.25743700  1
