# generated using pymatgen
data_HfAu
_symmetry_space_group_name_H-M   'P 1'
_cell_length_a   8.36984825
_cell_length_b   8.36984825
_cell_length_c   8.36984825
_cell_angle_alpha   109.47122192
_cell_angle_beta   109.47122192
_cell_angle_gamma   109.47122192
_symmetry_Int_Tables_number   1
_chemical_formula_structural   HfAu
_chemical_formula_sum   'Hf10 Au10'
_cell_volume   451.36807758
_cell_formula_units_Z   10
loop_
 _symmetry_equiv_pos_site_id
 _symmetry_equiv_pos_as_xyz
  1  'x, y, z'
loop_
 _atom_site_type_symbol
 _atom_site_label
 _atom_site_symmetry_multiplicity
 _atom_site_fract_x
 _atom_site_fract_y
 _atom_site_fract_z
 _atom_site_occupancy
  Hf  Hf0  1  0.50000004  0.75000001  0.25000005  1
  Hf  Hf1  1  0.25000003  0.50000001  0.75000001  1
  Hf  Hf2  1  0.75000002  0.50000001  0.25000004  1
  Hf  Hf3  1  0.25000004  0.75000001  0.50000003  1
  Hf  Hf4  1  0.75000000  0.25000000  0.50000002  1
  Hf  Hf5  1  0.50000001  0.25000000  0.75000000  1
  Hf  Hf6  1  0.67841505  1.00000001  1.00000004  1
  Hf  Hf7  1  0.67841503  0.67841501  0.67841503  1
  Hf  Hf8  1  0.00000000  0.00000000  0.32158499  1
  Hf  Hf9  1  0.00000002  0.32158500  0.00000002  1
  Au  Au10  1  0.00000000  0.00000000  0.67841498  1
  Au  Au11  1  0.00000004  0.67841501  0.00000004  1
  Au  Au12  1  0.32158501  0.32158500  0.32158502  1
  Au  Au13  1  0.32158506  1.00000001  1.00000003  1
  Au  Au14  1  0.00000002  0.34220000  0.34220001  1
  Au  Au15  1  0.65779999  0.00000000  0.65780000  1
  Au  Au16  1  0.34220006  1.00000001  0.34220005  1
  Au  Au17  1  0.34220001  0.34220000  1.00000000  1
  Au  Au18  1  0.65780003  0.65780001  1.00000002  1
  Au  Au19  1  0.00000004  0.65780001  0.65780002  1
