# generated using pymatgen
data_AlO2
_symmetry_space_group_name_H-M   'P 1'
_cell_length_a   3.00617790
_cell_length_b   5.35575390
_cell_length_c   5.63851309
_cell_angle_alpha   113.07314301
_cell_angle_beta   90.00000000
_cell_angle_gamma   90.00000000
_symmetry_Int_Tables_number   1
_chemical_formula_structural   AlO2
_chemical_formula_sum   'Al2 O4'
_cell_volume   83.51994766
_cell_formula_units_Z   2
loop_
 _symmetry_equiv_pos_site_id
 _symmetry_equiv_pos_as_xyz
  1  'x, y, z'
loop_
 _atom_site_type_symbol
 _atom_site_label
 _atom_site_symmetry_multiplicity
 _atom_site_fract_x
 _atom_site_fract_y
 _atom_site_fract_z
 _atom_site_occupancy
  Al  Al0  1  0.00000000  0.00000000  0.00000000  1
  Al  Al1  1  0.50000002  0.50000000  0.49999999  1
  O  O2  1  -0.00000000  0.40384900  0.68165500  1
  O  O3  1  0.50000002  0.13273600  0.23896400  1
  O  O4  1  1.00000003  0.59615100  0.31834498  1
  O  O5  1  0.50000002  0.86726400  0.76103598  1
