# generated using pymatgen
data_BaPbAu
_symmetry_space_group_name_H-M   'P 1'
_cell_length_a   4.03071785
_cell_length_b   4.26599598
_cell_length_c   7.97636557
_cell_angle_alpha   105.51049042
_cell_angle_beta   104.63534546
_cell_angle_gamma   90.00000000
_symmetry_Int_Tables_number   1
_chemical_formula_structural   BaPbAu
_chemical_formula_sum   'Ba1 Pb1 Au1'
_cell_volume   127.53454288
_cell_formula_units_Z   1
loop_
 _symmetry_equiv_pos_site_id
 _symmetry_equiv_pos_as_xyz
  1  'x, y, z'
loop_
 _atom_site_type_symbol
 _atom_site_label
 _atom_site_symmetry_multiplicity
 _atom_site_fract_x
 _atom_site_fract_y
 _atom_site_fract_z
 _atom_site_occupancy
  Ba  Ba0  1  0.14338600  0.14338600  0.28677201  1
  Pb  Pb1  1  0.85661402  0.85661401  0.71322802  1
  Au  Au2  1  0.50000001  0.50000001  0.00000000  1
