# generated using pymatgen
data_YPO4
_symmetry_space_group_name_H-M   'P 1'
_cell_length_a   5.78268909
_cell_length_b   5.78268909
_cell_length_c   5.78268909
_cell_angle_alpha   105.94149017
_cell_angle_beta   105.94149017
_cell_angle_gamma   116.78789520
_symmetry_Int_Tables_number   1
_chemical_formula_structural   YPO4
_chemical_formula_sum   'Y2 P2 O8'
_cell_volume   147.01375349
_cell_formula_units_Z   2
loop_
 _symmetry_equiv_pos_site_id
 _symmetry_equiv_pos_as_xyz
  1  'x, y, z'
loop_
 _atom_site_type_symbol
 _atom_site_label
 _atom_site_symmetry_multiplicity
 _atom_site_fract_x
 _atom_site_fract_y
 _atom_site_fract_z
 _atom_site_occupancy
  Y  Y0  1  0.00000000  0.00000000  0.00000000  1
  Y  Y1  1  0.75000006  0.25000003  0.50000008  1
  P  P2  1  0.25000009  0.75000008  0.50000010  1
  P  P3  1  0.50000007  0.50000005  0.00000007  1
  O  O4  1  0.66018008  0.48581805  0.82563811  1
  O  O5  1  0.23581810  0.91018009  0.32563811  1
  O  O6  1  0.58454212  0.91018009  0.67436214  1
  O  O7  1  0.66018012  0.83454209  0.17436212  1
  O  O8  1  0.51418206  0.33982004  0.17436207  1
  O  O9  1  0.08982008  0.76418208  0.67436210  1
  O  O10  1  0.08982005  0.41545804  0.32563805  1
  O  O11  1  0.16545804  0.33982004  0.82563807  1
