# generated using pymatgen
data_Li2V3O8
_symmetry_space_group_name_H-M   'P 1'
_cell_length_a   5.83028126
_cell_length_b   5.85470390
_cell_length_c   5.86298847
_cell_angle_alpha   60.04673004
_cell_angle_beta   62.42887878
_cell_angle_gamma   90.00000000
_symmetry_Int_Tables_number   1
_chemical_formula_structural   Li2V3O8
_chemical_formula_sum   'Li2 V3 O8'
_cell_volume   146.58476636
_cell_formula_units_Z   1
loop_
 _symmetry_equiv_pos_site_id
 _symmetry_equiv_pos_as_xyz
  1  'x, y, z'
loop_
 _atom_site_type_symbol
 _atom_site_label
 _atom_site_symmetry_multiplicity
 _atom_site_fract_x
 _atom_site_fract_y
 _atom_site_fract_z
 _atom_site_occupancy
  Li  Li0  1  0.00000000  0.00000000  0.00000000  1
  Li  Li1  1  0.49999999  0.50000001  0.00000001  1
  V  V2  1  -0.00000001  0.50000001  0.49999999  1
  V  V3  1  0.99999999  0.00000000  0.50000000  1
  V  V4  1  -0.00000001  0.50000001  0.00000000  1
  O  O5  1  0.77624399  0.74627601  0.95286999  1
  O  O6  1  0.19990599  0.72631301  0.54737399  1
  O  O7  1  0.79996998  0.76243401  0.47513200  1
  O  O8  1  0.77624399  0.30085400  0.95286998  1
  O  O9  1  0.80009399  0.27368700  0.45262600  1
  O  O10  1  0.22375600  0.25372400  0.04713000  1
  O  O11  1  0.22375599  0.69914601  0.04713001  1
  O  O12  1  0.20003000  0.23756600  0.52486799  1
