# generated using pymatgen
data_LiCuF3
_symmetry_space_group_name_H-M   'P 1'
_cell_length_a   6.06056404
_cell_length_b   6.79788494
_cell_length_c   6.79788494
_cell_angle_alpha   87.05384827
_cell_angle_beta   87.76999664
_cell_angle_gamma   87.76999664
_symmetry_Int_Tables_number   1
_chemical_formula_structural   LiCuF3
_chemical_formula_sum   'Li4 Cu4 F12'
_cell_volume   279.29294003
_cell_formula_units_Z   4
loop_
 _symmetry_equiv_pos_site_id
 _symmetry_equiv_pos_as_xyz
  1  'x, y, z'
loop_
 _atom_site_type_symbol
 _atom_site_label
 _atom_site_symmetry_multiplicity
 _atom_site_fract_x
 _atom_site_fract_y
 _atom_site_fract_z
 _atom_site_occupancy
  Li  Li0  1  0.19456198  0.27139600  0.09772998  1
  Li  Li1  1  0.69456197  0.09773000  0.27139597  1
  Li  Li2  1  0.30543795  0.90227001  0.72860395  1
  Li  Li3  1  0.80543794  0.72860401  0.90226994  1
  Cu  Cu4  1  0.24999995  0.78981401  0.21018595  1
  Cu  Cu5  1  0.74999995  0.59065101  0.40934895  1
  Cu  Cu6  1  0.24999997  0.40934901  0.59065098  1
  Cu  Cu7  1  0.74999997  0.21018600  0.78981397  1
  F  F8  1  0.89526596  0.19803300  0.07475695  1
  F  F9  1  0.64312595  0.62229501  0.12786895  1
  F  F10  1  0.39526598  0.07475700  0.19803298  1
  F  F11  1  0.16428097  0.47633901  0.29408397  1
  F  F12  1  0.85687393  0.87213101  0.37770493  1
  F  F13  1  0.66428096  0.29408400  0.47633896  1
  F  F14  1  0.33571896  0.70591601  0.52366096  1
  F  F15  1  0.14312599  0.12786900  0.62229499  1
  F  F16  1  0.83571895  0.52366101  0.70591595  1
  F  F17  1  0.60473394  0.92524301  0.80196694  1
  F  F18  1  0.35687397  0.37770500  0.87213098  1
  F  F19  1  0.10473396  0.80196701  0.92524297  1
