# generated using pymatgen
data_Li2MnCoO4
_symmetry_space_group_name_H-M   'P 1'
_cell_length_a   3.04396582
_cell_length_b   6.36433935
_cell_length_c   8.48151207
_cell_angle_alpha   94.91478729
_cell_angle_beta   89.98178101
_cell_angle_gamma   89.99643707
_symmetry_Int_Tables_number   1
_chemical_formula_structural   Li2MnCoO4
_chemical_formula_sum   'Li4 Mn2 Co2 O8'
_cell_volume   163.70675930
_cell_formula_units_Z   2
loop_
 _symmetry_equiv_pos_site_id
 _symmetry_equiv_pos_as_xyz
  1  'x, y, z'
loop_
 _atom_site_type_symbol
 _atom_site_label
 _atom_site_symmetry_multiplicity
 _atom_site_fract_x
 _atom_site_fract_y
 _atom_site_fract_z
 _atom_site_occupancy
  Li  Li0  1  0.99971300  0.00028600  0.50045398  1
  Li  Li1  1  0.49964806  0.74968098  0.24958301  1
  Li  Li2  1  0.99959504  0.50026899  0.00051201  1
  Li  Li3  1  0.49959202  0.24978499  0.74957198  1
  Mn  Mn4  1  0.00079304  0.50089699  0.50003099  1
  Mn  Mn5  1  0.50069002  0.24907099  0.24996600  1
  Co  Co6  1  0.00084500  0.00097900  0.00010400  1
  Co  Co7  1  0.50071306  0.74908598  0.74989099  1
  O  O8  1  0.04360604  0.53250299  0.72861099  1
  O  O9  1  0.45537502  0.28383999  0.47803099  1
  O  O10  1  0.04372900  0.03246500  0.22866899  1
  O  O11  1  0.45547606  0.78391298  0.97800098  1
  O  O12  1  0.95579403  0.46625099  0.27176200  1
  O  O13  1  0.54409102  0.21738899  0.02157100  1
  O  O14  1  0.95597407  0.96633398  0.77176899  1
  O  O15  1  0.54436705  0.71725198  0.52147100  1
