# generated using pymatgen
data_KCeAsS4
_symmetry_space_group_name_H-M   'P 1'
_cell_length_a   6.54213095
_cell_length_b   6.71187782
_cell_length_c   8.70463848
_cell_angle_alpha   90.00000000
_cell_angle_beta   72.67936707
_cell_angle_gamma   90.00000000
_symmetry_Int_Tables_number   1
_chemical_formula_structural   KCeAsS4
_chemical_formula_sum   'K2 Ce2 As2 S8'
_cell_volume   364.88822671
_cell_formula_units_Z   2
loop_
 _symmetry_equiv_pos_site_id
 _symmetry_equiv_pos_as_xyz
  1  'x, y, z'
loop_
 _atom_site_type_symbol
 _atom_site_label
 _atom_site_symmetry_multiplicity
 _atom_site_fract_x
 _atom_site_fract_y
 _atom_site_fract_z
 _atom_site_occupancy
  K  K0  1  0.26682700  0.00912900  0.93462104  1
  K  K1  1  0.73317299  0.50912901  0.06537903  1
  Ce  Ce2  1  0.77158299  0.49089001  0.55090305  1
  Ce  Ce3  1  0.22841700  0.99089003  0.44909702  1
  As  As4  1  0.22521700  0.52585601  0.67451703  1
  As  As5  1  0.77478299  0.02585600  0.32548304  1
  S  S6  1  0.43059300  0.52786101  0.83369605  1
  S  S7  1  0.97496899  0.76367302  0.71936407  1
  S  S8  1  0.01771800  0.25508501  0.70143002  1
  S  S9  1  0.56596599  0.09450500  0.57308804  1
  S  S10  1  0.43403400  0.59450502  0.42691203  1
  S  S11  1  0.98228199  0.75508502  0.29857005  1
  S  S12  1  0.02503100  0.26367301  0.28063601  1
  S  S13  1  0.56940699  0.02786100  0.16630403  1
