# generated using pymatgen
data_InCu(PS3)2
_symmetry_space_group_name_H-M   'P 1'
_cell_length_a   5.70352983
_cell_length_b   5.70352983
_cell_length_c   5.70353031
_cell_angle_alpha   60.10421371
_cell_angle_beta   60.10421371
_cell_angle_gamma   60.10421753
_symmetry_Int_Tables_number   1
_chemical_formula_structural   InCu(PS3)2
_chemical_formula_sum   'In1 Cu1 P2 S6'
_cell_volume   131.50445435
_cell_formula_units_Z   1
loop_
 _symmetry_equiv_pos_site_id
 _symmetry_equiv_pos_as_xyz
  1  'x, y, z'
loop_
 _atom_site_type_symbol
 _atom_site_label
 _atom_site_symmetry_multiplicity
 _atom_site_fract_x
 _atom_site_fract_y
 _atom_site_fract_z
 _atom_site_occupancy
  In  In0  1  0.46493000  0.46493000  0.46492996  1
  Cu  Cu1  1  0.96493000  0.96493001  0.96492992  1
  P  P2  1  0.21561000  0.21561000  0.21560998  1
  P  P3  1  0.71561000  0.71561001  0.71560994  1
  S  S4  1  0.89267001  0.00061000  0.44446996  1
  S  S5  1  0.50061000  0.39267000  0.94446996  1
  S  S6  1  0.39267000  0.94447001  0.50060995  1
  S  S7  1  0.94447000  0.50061000  0.39266994  1
  S  S8  1  0.00061000  0.44447000  0.89266997  1
  S  S9  1  0.44447000  0.89267001  0.00060995  1
