# generated using pymatgen
data_Na3Sr2Mn3O8
_symmetry_space_group_name_H-M   'P 1'
_cell_length_a   3.87468791
_cell_length_b   3.92132592
_cell_length_c   16.54793930
_cell_angle_alpha   91.08980560
_cell_angle_beta   90.00000000
_cell_angle_gamma   90.00000000
_symmetry_Int_Tables_number   1
_chemical_formula_structural   Na3Sr2Mn3O8
_chemical_formula_sum   'Na3 Sr2 Mn3 O8'
_cell_volume   251.38248865
_cell_formula_units_Z   1
loop_
 _symmetry_equiv_pos_site_id
 _symmetry_equiv_pos_as_xyz
  1  'x, y, z'
loop_
 _atom_site_type_symbol
 _atom_site_label
 _atom_site_symmetry_multiplicity
 _atom_site_fract_x
 _atom_site_fract_y
 _atom_site_fract_z
 _atom_site_occupancy
  Sr  Sr0  1  1.00000002  0.01103000  0.22330400  1
  Sr  Sr1  1  0.00000000  0.98897002  0.77669601  1
  Na  Na2  1  0.00000000  0.00000000  0.00000000  1
  Na  Na3  1  0.50000001  0.50162101  0.09797600  1
  Na  Na4  1  0.50000001  0.49837901  0.90202400  1
  Mn  Mn5  1  0.00000000  0.00000000  0.50000000  1
  Mn  Mn6  1  0.50000001  0.50875301  0.39172700  1
  Mn  Mn7  1  0.50000001  0.49124701  0.60827300  1
  O  O8  1  0.50000001  0.51203401  0.25823000  1
  O  O9  1  0.50000001  0.48796601  0.74177000  1
  O  O10  1  0.00000000  0.12537700  0.39239000  1
  O  O11  1  1.00000002  0.87462302  0.60761001  1
  O  O12  1  1.00000002  0.50180701  0.08702600  1
  O  O13  1  0.50000001  0.99952302  0.91209301  1
  O  O14  1  0.00000000  0.49819301  0.91297400  1
  O  O15  1  0.50000001  0.00047700  0.08790700  1
