# generated using pymatgen
data_Li3Cr2O5
_symmetry_space_group_name_H-M   'P 1'
_cell_length_a   2.99330211
_cell_length_b   2.99330211
_cell_length_c   10.81121063
_cell_angle_alpha   97.95730591
_cell_angle_beta   97.95730591
_cell_angle_gamma   90.00000000
_symmetry_Int_Tables_number   1
_chemical_formula_structural   Li3Cr2O5
_chemical_formula_sum   'Li3 Cr2 O5'
_cell_volume   94.99238337
_cell_formula_units_Z   1
loop_
 _symmetry_equiv_pos_site_id
 _symmetry_equiv_pos_as_xyz
  1  'x, y, z'
loop_
 _atom_site_type_symbol
 _atom_site_label
 _atom_site_symmetry_multiplicity
 _atom_site_fract_x
 _atom_site_fract_y
 _atom_site_fract_z
 _atom_site_occupancy
  Li  Li0  1  0.00000000  0.00000000  0.00000000  1
  Li  Li1  1  0.40021600  0.40021599  0.80043199  1
  Li  Li2  1  0.79986799  0.79986798  0.59973601  1
  Cr  Cr3  1  0.20013200  0.20013199  0.40026400  1
  Cr  Cr4  1  0.59978399  0.59978398  0.19956802  1
  O  O5  1  0.49999999  0.49999999  0.00000002  1
  O  O6  1  0.69984999  0.69984998  0.39970001  1
  O  O7  1  0.10105900  0.10105900  0.20211800  1
  O  O8  1  0.89894099  0.89894098  0.79788201  1
  O  O9  1  0.30015000  0.30014999  0.60029999  1
