# generated using pymatgen
data_YAsO4
_symmetry_space_group_name_H-M   'P 1'
_cell_length_a   5.95236492
_cell_length_b   5.95236492
_cell_length_c   5.95236492
_cell_angle_alpha   106.48982239
_cell_angle_beta   106.48982239
_cell_angle_gamma   115.61424255
_symmetry_Int_Tables_number   1
_chemical_formula_structural   YAsO4
_chemical_formula_sum   'Y2 As2 O8'
_cell_volume   160.93344725
_cell_formula_units_Z   2
loop_
 _symmetry_equiv_pos_site_id
 _symmetry_equiv_pos_as_xyz
  1  'x, y, z'
loop_
 _atom_site_type_symbol
 _atom_site_label
 _atom_site_symmetry_multiplicity
 _atom_site_fract_x
 _atom_site_fract_y
 _atom_site_fract_z
 _atom_site_occupancy
  Y  Y0  1  0.00000000  0.00000000  0.00000000  1
  Y  Y1  1  0.75000000  0.25000000  0.49999999  1
  As  As2  1  0.24999997  0.74999999  0.49999998  1
  As  As3  1  0.49999998  0.50000000  1.00000000  1
  O  O4  1  0.67823497  0.86009799  0.18186197  1
  O  O5  1  0.61009796  0.92823499  0.68186298  1
  O  O6  1  0.24637296  0.92823599  0.31813797  1
  O  O7  1  0.67823499  0.49637200  0.81813699  1
  O  O8  1  0.13990199  0.32176500  0.81813701  1
  O  O9  1  0.07176498  0.38990200  0.31813799  1
  O  O10  1  0.07176496  0.75362799  0.68186299  1
  O  O11  1  0.50362699  0.32176400  0.18186199  1
