# generated using pymatgen
data_ZrCo2
_symmetry_space_group_name_H-M   'P 1'
_cell_length_a   4.87953329
_cell_length_b   4.87953329
_cell_length_c   4.87953329
_cell_angle_alpha   60.00000000
_cell_angle_beta   60.00000000
_cell_angle_gamma   60.00000000
_symmetry_Int_Tables_number   1
_chemical_formula_structural   ZrCo2
_chemical_formula_sum   'Zr2 Co4'
_cell_volume   82.15232486
_cell_formula_units_Z   2
loop_
 _symmetry_equiv_pos_site_id
 _symmetry_equiv_pos_as_xyz
  1  'x, y, z'
loop_
 _atom_site_type_symbol
 _atom_site_label
 _atom_site_symmetry_multiplicity
 _atom_site_fract_x
 _atom_site_fract_y
 _atom_site_fract_z
 _atom_site_occupancy
  Zr  Zr0  1  0.74999998  0.74999998  0.74999998  1
  Zr  Zr1  1  0.00000000  0.00000000  0.00000000  1
  Co  Co2  1  0.37499999  0.87499998  0.37499999  1
  Co  Co3  1  0.37499999  0.37499999  0.37499999  1
  Co  Co4  1  0.37499999  0.37499999  0.87499998  1
  Co  Co5  1  0.87499998  0.37499999  0.37499999  1
