# generated using pymatgen
data_NaLaS2
_symmetry_space_group_name_H-M   'P 1'
_cell_length_a   5.71443987
_cell_length_b   5.71443987
_cell_length_c   7.35836744
_cell_angle_alpha   112.84847260
_cell_angle_beta   112.84847260
_cell_angle_gamma   90.00000000
_symmetry_Int_Tables_number   1
_chemical_formula_structural   NaLaS2
_chemical_formula_sum   'Na2 La2 S4'
_cell_volume   200.81564115
_cell_formula_units_Z   2
loop_
 _symmetry_equiv_pos_site_id
 _symmetry_equiv_pos_as_xyz
  1  'x, y, z'
loop_
 _atom_site_type_symbol
 _atom_site_label
 _atom_site_symmetry_multiplicity
 _atom_site_fract_x
 _atom_site_fract_y
 _atom_site_fract_z
 _atom_site_occupancy
  Na  Na0  1  0.00000000  0.00000000  0.00000000  1
  Na  Na1  1  0.75000000  0.25000000  0.49999997  1
  La  La2  1  0.49999999  0.50000000  -0.00000002  1
  La  La3  1  0.24999998  0.75000001  0.49999997  1
  S  S4  1  0.76602399  0.76602401  0.53204796  1
  S  S5  1  0.23397600  0.23397600  0.46795198  1
  S  S6  1  0.98397600  0.48397600  0.96795196  1
  S  S7  1  0.51602401  0.01602400  0.03204799  1
