# generated using pymatgen
data_Cs2CuF6
_symmetry_space_group_name_H-M   'P 1'
_cell_length_a   6.29687405
_cell_length_b   7.41198015
_cell_length_c   8.19897461
_cell_angle_alpha   90.00000000
_cell_angle_beta   112.58190155
_cell_angle_gamma   90.00000000
_symmetry_Int_Tables_number   1
_chemical_formula_structural   Cs2CuF6
_chemical_formula_sum   'Cs4 Cu2 F12'
_cell_volume   353.32671564
_cell_formula_units_Z   2
loop_
 _symmetry_equiv_pos_site_id
 _symmetry_equiv_pos_as_xyz
  1  'x, y, z'
loop_
 _atom_site_type_symbol
 _atom_site_label
 _atom_site_symmetry_multiplicity
 _atom_site_fract_x
 _atom_site_fract_y
 _atom_site_fract_z
 _atom_site_occupancy
  Cs  Cs0  1  0.04893200  0.24999999  0.09786400  1
  Cs  Cs1  1  0.95106797  0.74999998  0.90213597  1
  Cs  Cs2  1  0.73123298  0.24999999  0.46246597  1
  Cs  Cs3  1  0.26876699  0.74999998  0.53753400  1
  Cu  Cu4  1  0.38480899  0.24999999  0.76961800  1
  Cu  Cu5  1  0.61519098  0.74999998  0.23038197  1
  F  F6  1  0.26086299  0.24999999  0.52172600  1
  F  F7  1  0.73913697  0.74999998  0.47827397  1
  F  F8  1  0.50507798  0.24999999  0.01015597  1
  F  F9  1  0.49492198  0.74999998  0.98984400  1
  F  F10  1  0.59979198  0.42942399  0.76323099  1
  F  F11  1  0.83656097  0.57057599  0.23676896  1
  F  F12  1  0.83656097  0.92942398  0.23676896  1
  F  F13  1  0.59979198  0.07057600  0.76323099  1
  F  F14  1  0.16343899  0.42942399  0.76323101  1
  F  F15  1  0.40020799  0.57057599  0.23676898  1
  F  F16  1  0.16343899  0.07057600  0.76323101  1
  F  F17  1  0.40020799  0.92942398  0.23676898  1
