# generated using pymatgen
data_Li2CuF6
_symmetry_space_group_name_H-M   'P 1'
_cell_length_a   4.67194080
_cell_length_b   4.67194080
_cell_length_c   9.06660557
_cell_angle_alpha   90.00000000
_cell_angle_beta   90.00000000
_cell_angle_gamma   90.00000000
_symmetry_Int_Tables_number   1
_chemical_formula_structural   Li2CuF6
_chemical_formula_sum   'Li4 Cu2 F12'
_cell_volume   197.89707963
_cell_formula_units_Z   2
loop_
 _symmetry_equiv_pos_site_id
 _symmetry_equiv_pos_as_xyz
  1  'x, y, z'
loop_
 _atom_site_type_symbol
 _atom_site_label
 _atom_site_symmetry_multiplicity
 _atom_site_fract_x
 _atom_site_fract_y
 _atom_site_fract_z
 _atom_site_occupancy
  Li  Li0  1  0.50000002  0.50000002  0.00000000  1
  Li  Li1  1  0.00000000  0.00000000  0.50000002  1
  Li  Li2  1  0.50000002  0.50000002  0.66869003  1
  Li  Li3  1  0.50000002  0.50000002  0.33131002  1
  Cu  Cu4  1  0.00000000  0.00000000  0.83131004  1
  Cu  Cu5  1  0.00000000  0.00000000  0.16869001  1
  F  F6  1  0.68971903  0.31028101  0.50000002  1
  F  F7  1  0.69764003  0.30236001  0.82851704  1
  F  F8  1  0.69764003  0.30236001  0.17148301  1
  F  F9  1  0.80236003  0.80236003  0.67148303  1
  F  F10  1  0.80236003  0.80236003  0.32851702  1
  F  F11  1  0.81028103  0.81028103  0.00000000  1
  F  F12  1  0.18971901  0.18971901  -0.00000000  1
  F  F13  1  0.19764001  0.19764001  0.67148303  1
  F  F14  1  0.19764001  0.19764001  0.32851702  1
  F  F15  1  0.30236001  0.69764003  0.17148301  1
  F  F16  1  0.30236001  0.69764003  0.82851704  1
  F  F17  1  0.31028101  0.68971903  0.50000002  1
