# generated using pymatgen
data_Sc(Ni2Ge)4
_symmetry_space_group_name_H-M   'P 1'
_cell_length_a   5.08836508
_cell_length_b   5.08836603
_cell_length_c   7.87705421
_cell_angle_alpha   90.00000000
_cell_angle_beta   90.00000000
_cell_angle_gamma   120.00000763
_symmetry_Int_Tables_number   1
_chemical_formula_structural   Sc(Ni2Ge)4
_chemical_formula_sum   'Sc1 Ni8 Ge4'
_cell_volume   176.62453884
_cell_formula_units_Z   1
loop_
 _symmetry_equiv_pos_site_id
 _symmetry_equiv_pos_as_xyz
  1  'x, y, z'
loop_
 _atom_site_type_symbol
 _atom_site_label
 _atom_site_symmetry_multiplicity
 _atom_site_fract_x
 _atom_site_fract_y
 _atom_site_fract_z
 _atom_site_occupancy
  Sc  Sc0  1  0.00000000  0.00000000  0.00000000  1
  Ni  Ni1  1  0.50000002  0.00000000  0.25059399  1
  Ni  Ni2  1  0.50000003  0.49999998  0.25059399  1
  Ni  Ni3  1  0.00000000  0.49999998  0.25059399  1
  Ni  Ni4  1  0.50000002  0.00000000  0.74940598  1
  Ni  Ni5  1  0.50000003  0.49999998  0.74940598  1
  Ni  Ni6  1  0.00000000  0.49999998  0.74940598  1
  Ni  Ni7  1  0.33333335  0.66666664  -0.00000000  1
  Ge  Ge8  1  0.66666670  0.33333332  -0.00000000  1
  Ni  Ni9  1  0.33333335  0.66666664  0.49999999  1
  Ge  Ge10  1  0.66666670  0.33333332  0.49999999  1
  Ge  Ge11  1  0.00000000  0.00000000  0.34483299  1
  Ge  Ge12  1  0.00000000  0.00000000  0.65516698  1
