# generated using pymatgen
data_SmCoNi4
_symmetry_space_group_name_H-M   'P 1'
_cell_length_a   3.95973492
_cell_length_b   5.08785582
_cell_length_c   5.08785629
_cell_angle_alpha   60.00000381
_cell_angle_beta   90.00000000
_cell_angle_gamma   90.00000000
_symmetry_Int_Tables_number   1
_chemical_formula_structural   SmCoNi4
_chemical_formula_sum   'Sm1 Co1 Ni4'
_cell_volume   88.77003540
_cell_formula_units_Z   1
loop_
 _symmetry_equiv_pos_site_id
 _symmetry_equiv_pos_as_xyz
  1  'x, y, z'
loop_
 _atom_site_type_symbol
 _atom_site_label
 _atom_site_symmetry_multiplicity
 _atom_site_fract_x
 _atom_site_fract_y
 _atom_site_fract_z
 _atom_site_occupancy
  Sm  Sm0  1  0.00000000  0.00000000  0.00000000  1
  Ni  Ni1  1  0.00000000  0.66666668  0.66666670  1
  Co  Co2  1  1.00000002  0.33333334  0.33333335  1
  Ni  Ni3  1  0.50000001  0.50000001  0.00000001  1
  Ni  Ni4  1  0.50000001  0.00000000  0.50000001  1
  Ni  Ni5  1  0.50000001  0.50000001  0.50000002  1
