# generated using pymatgen
data_Li6MnO8
_symmetry_space_group_name_H-M   'P 1'
_cell_length_a   5.91350555
_cell_length_b   5.91350555
_cell_length_c   5.94459915
_cell_angle_alpha   60.17287064
_cell_angle_beta   60.17287064
_cell_angle_gamma   60.00000381
_symmetry_Int_Tables_number   1
_chemical_formula_structural   Li6MnO8
_chemical_formula_sum   'Li6 Mn1 O8'
_cell_volume   147.37623747
_cell_formula_units_Z   1
loop_
 _symmetry_equiv_pos_site_id
 _symmetry_equiv_pos_as_xyz
  1  'x, y, z'
loop_
 _atom_site_type_symbol
 _atom_site_label
 _atom_site_symmetry_multiplicity
 _atom_site_fract_x
 _atom_site_fract_y
 _atom_site_fract_z
 _atom_site_occupancy
  Li  Li0  1  -0.00000002  0.50000000  0.50000003  1
  Li  Li1  1  0.50000000  0.00000000  0.50000002  1
  Li  Li2  1  0.00000000  0.00000000  0.50000001  1
  Li  Li3  1  0.49999998  0.50000000  0.00000002  1
  Li  Li4  1  0.50000000  0.00000000  0.00000001  1
  Li  Li5  1  -0.00000002  0.50000000  0.00000001  1
  Mn  Mn6  1  0.00000000  0.00000000  0.00000000  1
  O  O7  1  0.23959897  0.77246801  0.21546503  1
  O  O8  1  0.77246799  0.23959900  0.21546502  1
  O  O9  1  0.77246797  0.77246801  0.21546504  1
  O  O10  1  0.25721899  0.25721900  0.22834302  1
  O  O11  1  0.74278097  0.74278101  0.77165705  1
  O  O12  1  0.22753199  0.22753200  0.78453503  1
  O  O13  1  0.22753198  0.76040101  0.78453504  1
  O  O14  1  0.76040099  0.22753200  0.78453504  1
