# generated using pymatgen
data_Li2CuF6
_symmetry_space_group_name_H-M   'P 1'
_cell_length_a   4.71778202
_cell_length_b   5.64215136
_cell_length_c   7.55760145
_cell_angle_alpha   85.00566101
_cell_angle_beta   89.99832916
_cell_angle_gamma   89.99992371
_symmetry_Int_Tables_number   1
_chemical_formula_structural   Li2CuF6
_chemical_formula_sum   'Li4 Cu2 F12'
_cell_volume   200.40777523
_cell_formula_units_Z   2
loop_
 _symmetry_equiv_pos_site_id
 _symmetry_equiv_pos_as_xyz
  1  'x, y, z'
loop_
 _atom_site_type_symbol
 _atom_site_label
 _atom_site_symmetry_multiplicity
 _atom_site_fract_x
 _atom_site_fract_y
 _atom_site_fract_z
 _atom_site_occupancy
  Li  Li0  1  0.53468801  0.17977300  0.32313400  1
  Li  Li1  1  0.46531803  0.48688601  0.01020301  1
  Li  Li2  1  0.50002706  0.83328301  0.66666669  1
  Li  Li3  1  0.96532405  0.67975001  0.32312801  1
  Cu  Cu4  1  0.00001602  0.33337600  0.66666668  1
  Cu  Cu5  1  0.03469007  0.98686701  0.01020004  1
  F  F6  1  0.81196804  0.63665701  0.55772501  1
  F  F7  1  0.79689107  0.97443301  0.22449503  1
  F  F8  1  0.70308303  0.47436701  0.22451501  1
  F  F9  1  0.68802201  0.13666700  0.55767099  1
  F  F10  1  0.31196904  0.53002301  0.77558702  1
  F  F11  1  0.29684701  0.19223800  0.10884800  1
  F  F12  1  0.18802100  0.03001200  0.77564200  1
  F  F13  1  0.20313005  0.69230201  0.10882703  1
  F  F14  1  0.79586402  0.29048900  0.90875700  1
  F  F15  1  0.70413706  0.79046201  0.90876302  1
  F  F16  1  0.29580106  0.87619501  0.42460603  1
  F  F17  1  0.20420303  0.37621901  0.42460701  1
