# generated using pymatgen
data_Ca3Ag2
_symmetry_space_group_name_H-M   'P 1'
_cell_length_a   7.92578506
_cell_length_b   8.54442692
_cell_length_c   8.54442692
_cell_angle_alpha   90.00000000
_cell_angle_beta   90.00000000
_cell_angle_gamma   90.00000000
_symmetry_Int_Tables_number   1
_chemical_formula_structural   Ca3Ag2
_chemical_formula_sum   'Ca12 Ag8'
_cell_volume   578.63962391
_cell_formula_units_Z   4
loop_
 _symmetry_equiv_pos_site_id
 _symmetry_equiv_pos_as_xyz
  1  'x, y, z'
loop_
 _atom_site_type_symbol
 _atom_site_label
 _atom_site_symmetry_multiplicity
 _atom_site_fract_x
 _atom_site_fract_y
 _atom_site_fract_z
 _atom_site_occupancy
  Ca  Ca0  1  0.00000000  0.70627501  0.29372500  1
  Ca  Ca1  1  -0.00000000  0.29372500  0.70627501  1
  Ca  Ca2  1  0.50000000  0.20627500  0.20627500  1
  Ca  Ca3  1  0.25000000  1.00000001  0.50000000  1
  Ca  Ca4  1  0.74999999  0.50000000  0.00000000  1
  Ca  Ca5  1  0.00000000  0.14147000  0.14147000  1
  Ca  Ca6  1  0.50000000  0.35853000  0.64147001  1
  Ca  Ca7  1  0.50000000  0.64147001  0.35853000  1
  Ca  Ca8  1  0.00000000  0.85853001  0.85853001  1
  Ca  Ca9  1  0.25000000  0.50000000  0.00000000  1
  Ca  Ca10  1  0.50000000  0.79372501  0.79372501  1
  Ca  Ca11  1  0.74999999  1.00000001  0.50000000  1
  Ag  Ag12  1  0.30619700  0.87315201  0.12684800  1
  Ag  Ag13  1  0.80619699  0.37315200  0.37315200  1
  Ag  Ag14  1  0.19380300  0.37315200  0.37315200  1
  Ag  Ag15  1  0.69380299  0.87315201  0.12684800  1
  Ag  Ag16  1  0.30619700  0.12684800  0.87315201  1
  Ag  Ag17  1  0.80619699  0.62684801  0.62684801  1
  Ag  Ag18  1  0.19380300  0.62684801  0.62684801  1
  Ag  Ag19  1  0.69380299  0.12684800  0.87315201  1
