# generated using pymatgen
data_YGaPt
_symmetry_space_group_name_H-M   'P 1'
_cell_length_a   4.28893614
_cell_length_b   7.25914907
_cell_length_c   7.83991194
_cell_angle_alpha   90.00000000
_cell_angle_beta   90.00000000
_cell_angle_gamma   90.00000000
_symmetry_Int_Tables_number   1
_chemical_formula_structural   YGaPt
_chemical_formula_sum   'Y4 Ga4 Pt4'
_cell_volume   244.08802836
_cell_formula_units_Z   4
loop_
 _symmetry_equiv_pos_site_id
 _symmetry_equiv_pos_as_xyz
  1  'x, y, z'
loop_
 _atom_site_type_symbol
 _atom_site_label
 _atom_site_symmetry_multiplicity
 _atom_site_fract_x
 _atom_site_fract_y
 _atom_site_fract_z
 _atom_site_occupancy
  Y  Y0  1  0.24999999  0.02259400  0.67749101  1
  Y  Y1  1  0.24999999  0.52259399  0.82250901  1
  Y  Y2  1  0.74999998  0.97740599  0.32250900  1
  Y  Y3  1  0.74999998  0.47740600  0.17749100  1
  Ga  Ga4  1  0.24999999  0.14395400  0.06682000  1
  Ga  Ga5  1  0.24999999  0.64395399  0.43318000  1
  Ga  Ga6  1  0.74999998  0.85604599  0.93318001  1
  Ga  Ga7  1  0.74999998  0.35604600  0.56682000  1
  Pt  Pt8  1  0.24999999  0.28903700  0.38523200  1
  Pt  Pt9  1  0.24999999  0.78903699  0.11476800  1
  Pt  Pt10  1  0.74999998  0.71096299  0.61476800  1
  Pt  Pt11  1  0.74999998  0.21096300  0.88523201  1
