# generated using pymatgen
data_La2Ga3Au
_symmetry_space_group_name_H-M   'P 1'
_cell_length_a   4.31940794
_cell_length_b   4.31940794
_cell_length_c   6.97662115
_cell_angle_alpha   90.00000000
_cell_angle_beta   90.00000000
_cell_angle_gamma   90.00000000
_symmetry_Int_Tables_number   1
_chemical_formula_structural   La2Ga3Au
_chemical_formula_sum   'La2 Ga3 Au1'
_cell_volume   130.16480881
_cell_formula_units_Z   1
loop_
 _symmetry_equiv_pos_site_id
 _symmetry_equiv_pos_as_xyz
  1  'x, y, z'
loop_
 _atom_site_type_symbol
 _atom_site_label
 _atom_site_symmetry_multiplicity
 _atom_site_fract_x
 _atom_site_fract_y
 _atom_site_fract_z
 _atom_site_occupancy
  La  La0  1  -0.00000000  0.50000001  0.68472699  1
  La  La1  1  0.50000001  0.00000000  0.31527299  1
  Ga  Ga2  1  -0.00000000  0.50000001  0.18955600  1
  Ga  Ga3  1  0.50000001  0.00000000  0.81044398  1
  Ga  Ga4  1  0.50000001  0.50000001  -0.00000000  1
  Au  Au5  1  0.00000000  0.00000000  0.00000000  1
