# generated using pymatgen
data_KBeN2O5
_symmetry_space_group_name_H-M   'P 1'
_cell_length_a   4.47235823
_cell_length_b   4.47235823
_cell_length_c   7.29378748
_cell_angle_alpha   72.14633942
_cell_angle_beta   72.14633942
_cell_angle_gamma   59.99999619
_symmetry_Int_Tables_number   1
_chemical_formula_structural   KBeN2O5
_chemical_formula_sum   'K1 Be1 N2 O5'
_cell_volume   118.16249603
_cell_formula_units_Z   1
loop_
 _symmetry_equiv_pos_site_id
 _symmetry_equiv_pos_as_xyz
  1  'x, y, z'
loop_
 _atom_site_type_symbol
 _atom_site_label
 _atom_site_symmetry_multiplicity
 _atom_site_fract_x
 _atom_site_fract_y
 _atom_site_fract_z
 _atom_site_occupancy
  K  K0  1  0.00000000  0.00000000  0.00000000  1
  Be  Be1  1  0.80555603  0.80555601  0.58333205  1
  N  N2  1  0.19444401  0.19444400  0.41666801  1
  N  N3  1  0.50000002  0.50000001  0.50000003  1
  O  O4  1  0.80874802  0.19125200  0.50000003  1
  O  O5  1  0.19125201  0.50000001  0.50000002  1
  O  O6  1  0.50000003  0.80874801  0.50000004  1
  O  O7  1  0.72993803  0.72993801  0.81018604  1
  O  O8  1  0.27006201  0.27006200  0.18981402  1
