# generated using pymatgen
data_La2B2C3
_symmetry_space_group_name_H-M   'P 1'
_cell_length_a   3.39054394
_cell_length_b   3.70541096
_cell_length_c   6.85868120
_cell_angle_alpha   90.00000000
_cell_angle_beta   104.31021118
_cell_angle_gamma   90.00000000
_symmetry_Int_Tables_number   1
_chemical_formula_structural   La2B2C3
_chemical_formula_sum   'La2 B2 C3'
_cell_volume   83.49442275
_cell_formula_units_Z   1
loop_
 _symmetry_equiv_pos_site_id
 _symmetry_equiv_pos_as_xyz
  1  'x, y, z'
loop_
 _atom_site_type_symbol
 _atom_site_label
 _atom_site_symmetry_multiplicity
 _atom_site_fract_x
 _atom_site_fract_y
 _atom_site_fract_z
 _atom_site_occupancy
  La  La0  1  0.86297701  1.00000001  0.72595400  1
  La  La1  1  0.13702300  1.00000001  0.27404600  1
  B  B2  1  0.71678901  0.50000001  0.43357800  1
  B  B3  1  0.28321100  0.50000001  0.56642200  1
  C  C4  1  0.39941101  0.50000001  0.79882201  1
  C  C5  1  0.50000001  0.50000001  -0.00000000  1
  C  C6  1  0.60058901  0.50000001  0.20117800  1
