# generated using pymatgen
data_Sr4Fe3O13
_symmetry_space_group_name_H-M   'P 1'
_cell_length_a   5.66175365
_cell_length_b   5.66175079
_cell_length_c   9.80644894
_cell_angle_alpha   73.22131348
_cell_angle_beta   73.22157288
_cell_angle_gamma   60.00000763
_symmetry_Int_Tables_number   1
_chemical_formula_structural   Sr4Fe3O13
_chemical_formula_sum   'Sr4 Fe3 O13'
_cell_volume   256.66591575
_cell_formula_units_Z   1
loop_
 _symmetry_equiv_pos_site_id
 _symmetry_equiv_pos_as_xyz
  1  'x, y, z'
loop_
 _atom_site_type_symbol
 _atom_site_label
 _atom_site_symmetry_multiplicity
 _atom_site_fract_x
 _atom_site_fract_y
 _atom_site_fract_z
 _atom_site_occupancy
  Sr  Sr0  1  0.37500000  0.37500102  0.87499696  1
  Sr  Sr1  1  0.87499900  0.87499904  0.37500297  1
  Sr  Sr2  1  0.12499900  0.12499901  0.62500297  1
  Sr  Sr3  1  0.62500100  0.62500103  0.12499799  1
  Fe  Fe4  1  0.75000000  0.75000004  0.74999896  1
  Fe  Fe5  1  0.25000000  0.25000001  0.25000099  1
  Fe  Fe6  1  0.50000000  0.50000002  0.49999997  1
  O  O7  1  0.00000000  0.00000000  0.00000000  1
  O  O8  1  0.62649501  0.12051501  0.62649498  1
  O  O9  1  0.12649500  0.62051503  0.12649298  1
  O  O10  1  0.62649400  0.62649503  0.62649597  1
  O  O11  1  0.12649500  0.12649701  0.12649299  1
  O  O12  1  0.12051500  0.62649503  0.62649496  1
  O  O13  1  0.62051601  0.12649601  0.12649200  1
  O  O14  1  0.87350500  0.87350404  0.87350595  1
  O  O15  1  0.37350600  0.37350502  0.37350498  1
  O  O16  1  0.37948500  0.87350404  0.87350594  1
  O  O17  1  0.87948401  0.37350502  0.37350599  1
  O  O18  1  0.87350501  0.37948502  0.87350597  1
  O  O19  1  0.37350500  0.87948404  0.37350596  1
