# generated using pymatgen
data_Zr6FeSb2
_symmetry_space_group_name_H-M   'P 1'
_cell_length_a   3.67053199
_cell_length_b   7.82420397
_cell_length_c   7.82420349
_cell_angle_alpha   120.00000000
_cell_angle_beta   90.00000000
_cell_angle_gamma   90.00000000
_symmetry_Int_Tables_number   1
_chemical_formula_structural   Zr6FeSb2
_chemical_formula_sum   'Zr6 Fe1 Sb2'
_cell_volume   194.59870482
_cell_formula_units_Z   1
loop_
 _symmetry_equiv_pos_site_id
 _symmetry_equiv_pos_as_xyz
  1  'x, y, z'
loop_
 _atom_site_type_symbol
 _atom_site_label
 _atom_site_symmetry_multiplicity
 _atom_site_fract_x
 _atom_site_fract_y
 _atom_site_fract_z
 _atom_site_occupancy
  Zr  Zr0  1  0.50000000  0.76543499  -0.00000002  1
  Zr  Zr1  1  0.50000000  0.23456500  0.23456500  1
  Zr  Zr2  1  0.50000000  0.99999999  0.76543498  1
  Zr  Zr3  1  -0.00000000  0.38643300  -0.00000001  1
  Zr  Zr4  1  -0.00000000  0.61356699  0.61356699  1
  Zr  Zr5  1  1.00000000  0.99999999  0.38643298  1
  Fe  Fe6  1  0.00000000  0.00000000  0.00000000  1
  Sb  Sb7  1  0.50000000  0.33333333  0.66666667  1
  Sb  Sb8  1  0.50000000  0.66666666  0.33333332  1
