# generated using pymatgen
data_HfAlNi4
_symmetry_space_group_name_H-M   'P 1'
_cell_length_a   4.92642593
_cell_length_b   4.92642498
_cell_length_c   7.99647093
_cell_angle_alpha   90.00000000
_cell_angle_beta   90.00000000
_cell_angle_gamma   120.00000763
_symmetry_Int_Tables_number   1
_chemical_formula_structural   HfAlNi4
_chemical_formula_sum   'Hf2 Al2 Ni8'
_cell_volume   168.07100326
_cell_formula_units_Z   2
loop_
 _symmetry_equiv_pos_site_id
 _symmetry_equiv_pos_as_xyz
  1  'x, y, z'
loop_
 _atom_site_type_symbol
 _atom_site_label
 _atom_site_symmetry_multiplicity
 _atom_site_fract_x
 _atom_site_fract_y
 _atom_site_fract_z
 _atom_site_occupancy
  Hf  Hf0  1  0.66666669  0.33333334  0.56030001  1
  Hf  Hf1  1  0.66666669  0.33333334  0.93739001  1
  Al  Al2  1  0.33333336  0.66666669  0.06481100  1
  Al  Al3  1  0.33333336  0.66666669  0.43735100  1
  Ni  Ni4  1  0.00000000  0.00000000  0.49918900  1
  Ni  Ni5  1  0.00000000  0.00000000  0.00028500  1
  Ni  Ni6  1  0.83220402  0.16779601  0.25239100  1
  Ni  Ni7  1  0.83220403  0.66440802  0.25239100  1
  Ni  Ni8  1  0.33559201  0.16779601  0.25239100  1
  Ni  Ni9  1  0.16842103  0.83157903  0.74783201  1
  Ni  Ni10  1  0.16842101  0.33684201  0.74783201  1
  Ni  Ni11  1  0.66315803  0.83157903  0.74783201  1
