# generated using pymatgen
data_Y2MnGa2Sb
_symmetry_space_group_name_H-M   'P 1'
_cell_length_a   4.15718603
_cell_length_b   9.18986130
_cell_length_c   10.40116119
_cell_angle_alpha   112.38034058
_cell_angle_beta   90.00000000
_cell_angle_gamma   103.07247162
_symmetry_Int_Tables_number   1
_chemical_formula_structural   Y2MnGa2Sb
_chemical_formula_sum   'Y4 Mn2 Ga4 Sb2'
_cell_volume   356.27279235
_cell_formula_units_Z   2
loop_
 _symmetry_equiv_pos_site_id
 _symmetry_equiv_pos_as_xyz
  1  'x, y, z'
loop_
 _atom_site_type_symbol
 _atom_site_label
 _atom_site_symmetry_multiplicity
 _atom_site_fract_x
 _atom_site_fract_y
 _atom_site_fract_z
 _atom_site_occupancy
  Y  Y0  1  0.00000000  0.00000000  0.00000000  1
  Y  Y1  1  0.71173904  0.42347802  0.63834501  1
  Y  Y2  1  0.28826106  0.57652203  0.36165502  1
  Y  Y3  1  0.00000000  0.00000000  0.49999999  1
  Mn  Mn4  1  0.72294305  0.44588602  0.91791001  1
  Mn  Mn5  1  0.27705706  0.55411403  0.08209003  1
  Ga  Ga6  1  0.42847710  0.85695404  0.29019904  1
  Ga  Ga7  1  0.85979308  0.71958604  0.57909603  1
  Sb  Sb8  1  0.29733207  0.59466403  0.85419902  1
  Ga  Ga9  1  0.14020703  0.28041401  0.42090401  1
  Ga  Ga10  1  0.57152301  0.14304601  0.70980100  1
  Sb  Sb11  1  0.70266804  0.40533602  0.14580102  1
