# generated using pymatgen
data_MoW(SeS)2
_symmetry_space_group_name_H-M   'P 1'
_cell_length_a   3.25283790
_cell_length_b   3.25283861
_cell_length_c   36.88341522
_cell_angle_alpha   90.00000000
_cell_angle_beta   90.00000000
_cell_angle_gamma   119.99999237
_symmetry_Int_Tables_number   1
_chemical_formula_structural   MoW(SeS)2
_chemical_formula_sum   'Mo2 W2 Se4 S4'
_cell_volume   337.97667593
_cell_formula_units_Z   2
loop_
 _symmetry_equiv_pos_site_id
 _symmetry_equiv_pos_as_xyz
  1  'x, y, z'
loop_
 _atom_site_type_symbol
 _atom_site_label
 _atom_site_symmetry_multiplicity
 _atom_site_fract_x
 _atom_site_fract_y
 _atom_site_fract_z
 _atom_site_occupancy
  Mo  Mo0  1  0.00000000  0.00000000  0.90609004  1
  Mo  Mo1  1  0.00000000  0.00000000  0.53034303  1
  W  W2  1  0.66666668  0.33333332  0.71820403  1
  W  W3  1  0.66666668  0.33333332  0.34245502  1
  Se  Se4  1  0.66666668  0.33333332  0.95213505  1
  Se  Se5  1  0.66666668  0.33333332  0.57667103  1
  Se  Se6  1  0.66666668  0.33333332  0.86004304  1
  Se  Se7  1  0.66666668  0.33333332  0.48398702  1
  S  S8  1  0.00000000  0.00000000  0.67615103  1
  S  S9  1  0.00000000  0.00000000  0.30039101  1
  S  S10  1  0.00000000  0.00000000  0.76025604  1
  S  S11  1  0.00000000  0.00000000  0.38452502  1
