# generated using pymatgen
data_BiI3
_symmetry_space_group_name_H-M   'P 1'
_cell_length_a   6.75313616
_cell_length_b   8.36081314
_cell_length_c   9.21777630
_cell_angle_alpha   115.99765015
_cell_angle_beta   101.41702271
_cell_angle_gamma   100.77899170
_symmetry_Int_Tables_number   1
_chemical_formula_structural   BiI3
_chemical_formula_sum   'Bi3 I9'
_cell_volume   435.82880168
_cell_formula_units_Z   3
loop_
 _symmetry_equiv_pos_site_id
 _symmetry_equiv_pos_as_xyz
  1  'x, y, z'
loop_
 _atom_site_type_symbol
 _atom_site_label
 _atom_site_symmetry_multiplicity
 _atom_site_fract_x
 _atom_site_fract_y
 _atom_site_fract_z
 _atom_site_occupancy
  Bi  Bi0  1  0.75022102  0.99969303  0.00030804  1
  Bi  Bi1  1  0.24977899  0.00030700  0.99969196  1
  Bi  Bi2  1  0.12233101  0.32247201  0.17787601  1
  I  I3  1  0.02283103  0.87959603  0.18586605  1
  I  I4  1  0.38570202  0.84968903  0.70461602  1
  I  I5  1  0.61429799  0.15031100  0.29538398  1
  I  I6  1  0.87766900  0.67752802  0.82212399  1
  I  I7  1  0.53959799  0.24261001  0.93641897  1
  I  I8  1  0.46040202  0.75739002  0.06358103  1
  I  I9  1  0.97716898  0.12040400  0.81413395  1
  I  I10  1  0.24563501  0.40297301  0.56465000  1
  I  I11  1  0.75436500  0.59702702  0.43535000  1
