# generated using pymatgen
data_SrGa2Co2C
_symmetry_space_group_name_H-M   'P 1'
_cell_length_a   4.20729113
_cell_length_b   4.20729113
_cell_length_c   5.57532215
_cell_angle_alpha   90.00000000
_cell_angle_beta   90.00000000
_cell_angle_gamma   90.00000000
_symmetry_Int_Tables_number   1
_chemical_formula_structural   SrGa2Co2C
_chemical_formula_sum   'Sr1 Ga2 Co2 C1'
_cell_volume   98.69044231
_cell_formula_units_Z   1
loop_
 _symmetry_equiv_pos_site_id
 _symmetry_equiv_pos_as_xyz
  1  'x, y, z'
loop_
 _atom_site_type_symbol
 _atom_site_label
 _atom_site_symmetry_multiplicity
 _atom_site_fract_x
 _atom_site_fract_y
 _atom_site_fract_z
 _atom_site_occupancy
  Sr  Sr0  1  0.00000000  0.00000000  0.49999999  1
  Ga  Ga1  1  0.49999998  0.49999998  0.74047598  1
  Ga  Ga2  1  0.49999998  0.49999998  0.25952399  1
  C  C3  1  0.00000000  0.00000000  0.00000000  1
  Co  Co4  1  0.49999998  0.00000000  0.00000000  1
  Co  Co5  1  0.00000000  0.49999998  0.00000000  1
