# generated using pymatgen
data_Cr5Mo9P2
_symmetry_space_group_name_H-M   'P 1'
_cell_length_a   4.66502523
_cell_length_b   4.70032120
_cell_length_c   9.41577148
_cell_angle_alpha   89.70266724
_cell_angle_beta   90.00000000
_cell_angle_gamma   90.00000000
_symmetry_Int_Tables_number   1
_chemical_formula_structural   Cr5Mo9P2
_chemical_formula_sum   'Cr5 Mo9 P2'
_cell_volume   206.45794293
_cell_formula_units_Z   1
loop_
 _symmetry_equiv_pos_site_id
 _symmetry_equiv_pos_as_xyz
  1  'x, y, z'
loop_
 _atom_site_type_symbol
 _atom_site_label
 _atom_site_symmetry_multiplicity
 _atom_site_fract_x
 _atom_site_fract_y
 _atom_site_fract_z
 _atom_site_occupancy
  Cr  Cr0  1  0.49999997  0.74976797  0.50062300  1
  Cr  Cr1  1  0.75042896  0.00222700  0.24775701  1
  Cr  Cr2  1  0.74968696  0.99868396  0.75112701  1
  Cr  Cr3  1  0.00000000  0.49670798  0.12141400  1
  Mo  Mo4  1  0.00000000  0.49721798  0.62564101  1
  Cr  Cr5  1  0.49999997  0.25736199  0.00172100  1
  Mo  Mo6  1  0.49999997  0.24797499  0.50048101  1
  Mo  Mo7  1  0.24957099  0.00222700  0.24775701  1
  Mo  Mo8  1  0.25031299  0.99868396  0.75112701  1
  Mo  Mo9  1  0.49999997  0.50155098  0.24907300  1
  Mo  Mo10  1  0.49999997  0.50094798  0.75382902  1
  Mo  Mo11  1  0.00000000  0.99531596  0.99885001  1
  Mo  Mo12  1  -0.00000000  0.99965196  0.49917200  1
  Mo  Mo13  1  0.00000000  0.49926098  0.37339400  1
  P  P14  1  0.00000000  0.50043598  0.87589202  1
  P  P15  1  0.49999997  0.75198197  0.00214199  1
