# generated using pymatgen
data_CeGa4Ni
_symmetry_space_group_name_H-M   'P 1'
_cell_length_a   4.01709223
_cell_length_b   5.37164593
_cell_length_c   5.37164545
_cell_angle_alpha   120.00000763
_cell_angle_beta   90.00000000
_cell_angle_gamma   90.00000000
_symmetry_Int_Tables_number   1
_chemical_formula_structural   CeGa4Ni
_chemical_formula_sum   'Ce1 Ga4 Ni1'
_cell_volume   100.38229470
_cell_formula_units_Z   1
loop_
 _symmetry_equiv_pos_site_id
 _symmetry_equiv_pos_as_xyz
  1  'x, y, z'
loop_
 _atom_site_type_symbol
 _atom_site_label
 _atom_site_symmetry_multiplicity
 _atom_site_fract_x
 _atom_site_fract_y
 _atom_site_fract_z
 _atom_site_occupancy
  Ce  Ce0  1  0.00000000  0.00000000  0.00000000  1
  Ga  Ga1  1  0.49999997  0.50000002  0.50000001  1
  Ga  Ga2  1  0.49999997  0.50000002  0.00000003  1
  Ga  Ga3  1  0.49999997  0.00000000  0.49999998  1
  Ga  Ga4  1  -0.00000000  0.33333335  0.66666666  1
  Ni  Ni5  1  -0.00000000  0.66666669  0.33333336  1
