# generated using pymatgen
data_K3Ba2In2I9
_symmetry_space_group_name_H-M   'P 1'
_cell_length_a   8.98325443
_cell_length_b   9.26665974
_cell_length_c   8.98325443
_cell_angle_alpha   61.00663757
_cell_angle_beta   90.00000000
_cell_angle_gamma   118.99336243
_symmetry_Int_Tables_number   1
_chemical_formula_structural   K3Ba2In2I9
_chemical_formula_sum   'K3 Ba2 In2 I9'
_cell_volume   544.47252100
_cell_formula_units_Z   1
loop_
 _symmetry_equiv_pos_site_id
 _symmetry_equiv_pos_as_xyz
  1  'x, y, z'
loop_
 _atom_site_type_symbol
 _atom_site_label
 _atom_site_symmetry_multiplicity
 _atom_site_fract_x
 _atom_site_fract_y
 _atom_site_fract_z
 _atom_site_occupancy
  Ba  Ba0  1  0.98868596  0.68408003  0.80468796  1
  K  K1  1  0.80468796  0.31592002  0.69539397  1
  K  K2  1  0.00000000  0.00000000  0.00000000  1
  K  K3  1  0.69539497  0.68408103  0.51123097  1
  I  I4  1  0.51123198  0.31591902  0.98868595  1
  Ba  Ba5  1  0.48876798  0.68408103  0.01131400  1
  In  In6  1  0.30460499  0.31591902  0.48876897  1
  In  In7  1  0.19531199  0.68408003  0.30460598  1
  I  I8  1  0.01131400  0.31592002  0.19531199  1
  I  I9  1  0.49999998  1.00000005  0.49999997  1
  I  I10  1  0.73887897  0.47775802  0.26112099  1
  I  I11  1  0.82635296  0.00000000  0.65197097  1
  I  I12  1  0.65197097  0.00000000  0.17364699  1
  I  I13  1  0.26112099  0.52224202  0.73887896  1
  I  I14  1  0.34802899  1.00000005  0.82635296  1
  I  I15  1  0.17364700  1.00000005  0.34802898  1
