# generated using pymatgen
data_La2Ni7
_symmetry_space_group_name_H-M   'P 1'
_cell_length_a   4.99831295
_cell_length_b   4.99831295
_cell_length_c   12.60408783
_cell_angle_alpha   78.56352234
_cell_angle_beta   78.56352234
_cell_angle_gamma   60.00000381
_symmetry_Int_Tables_number   1
_chemical_formula_structural   La2Ni7
_chemical_formula_sum   'La4 Ni14'
_cell_volume   265.45856595
_cell_formula_units_Z   2
loop_
 _symmetry_equiv_pos_site_id
 _symmetry_equiv_pos_as_xyz
  1  'x, y, z'
loop_
 _atom_site_type_symbol
 _atom_site_label
 _atom_site_symmetry_multiplicity
 _atom_site_fract_x
 _atom_site_fract_y
 _atom_site_fract_z
 _atom_site_occupancy
  La  La0  1  0.05090200  0.05090200  0.84729502  1
  La  La1  1  0.94909799  0.94909796  0.15270501  1
  La  La2  1  0.14727000  0.14726999  0.55818902  1
  La  La3  1  0.85272999  0.85272997  0.44181101  1
  Ni  Ni4  1  0.50000000  0.49999998  0.50000002  1
  Ni  Ni5  1  0.27834500  0.27834499  0.16496601  1
  Ni  Ni6  1  0.72165500  0.72165497  0.83503403  1
  Ni  Ni7  1  0.38785700  0.38785698  0.83642903  1
  Ni  Ni8  1  0.61214300  0.61214298  0.16357101  1
  Ni  Ni9  1  0.50000001  0.00000000  -0.00000000  1
  Ni  Ni10  1  -0.00000001  0.49999998  0.00000000  1
  Ni  Ni11  1  0.50000000  0.49999998  0.00000000  1
  Ni  Ni12  1  0.60806700  0.60806698  0.67428002  1
  Ni  Ni13  1  0.60806701  0.10958600  0.67428002  1
  Ni  Ni14  1  0.10958599  0.60806698  0.67428002  1
  Ni  Ni15  1  0.39193300  0.39193298  0.32572001  1
  Ni  Ni16  1  0.39193299  0.89041396  0.32572001  1
  Ni  Ni17  1  0.89041400  0.39193298  0.32572001  1
