# generated using pymatgen
data_NCl4
_symmetry_space_group_name_H-M   'P 1'
_cell_length_a   3.62938499
_cell_length_b   6.17234516
_cell_length_c   6.17234516
_cell_angle_alpha   94.53813171
_cell_angle_beta   90.00000000
_cell_angle_gamma   90.00000000
_symmetry_Int_Tables_number   1
_chemical_formula_structural   NCl4
_chemical_formula_sum   'N1 Cl4'
_cell_volume   137.83824998
_cell_formula_units_Z   1
loop_
 _symmetry_equiv_pos_site_id
 _symmetry_equiv_pos_as_xyz
  1  'x, y, z'
loop_
 _atom_site_type_symbol
 _atom_site_label
 _atom_site_symmetry_multiplicity
 _atom_site_fract_x
 _atom_site_fract_y
 _atom_site_fract_z
 _atom_site_occupancy
  N  N0  1  0.00000000  0.00000000  0.00000000  1
  Cl  Cl1  1  -0.00000000  0.27138700  0.27138700  1
  Cl  Cl2  1  0.50000000  0.82749700  0.17250299  1
  Cl  Cl3  1  0.50000000  0.17250300  0.82749700  1
  Cl  Cl4  1  1.00000000  0.72861300  0.72861299  1
