# generated using pymatgen
data_LaZnH3
_symmetry_space_group_name_H-M   'P 1'
_cell_length_a   4.41130018
_cell_length_b   4.41130018
_cell_length_c   8.56631660
_cell_angle_alpha   90.00000000
_cell_angle_beta   90.00000000
_cell_angle_gamma   120.00000000
_symmetry_Int_Tables_number   1
_chemical_formula_structural   LaZnH3
_chemical_formula_sum   'La2 Zn2 H6'
_cell_volume   144.36369090
_cell_formula_units_Z   2
loop_
 _symmetry_equiv_pos_site_id
 _symmetry_equiv_pos_as_xyz
  1  'x, y, z'
loop_
 _atom_site_type_symbol
 _atom_site_label
 _atom_site_symmetry_multiplicity
 _atom_site_fract_x
 _atom_site_fract_y
 _atom_site_fract_z
 _atom_site_occupancy
  La  La0  1  0.00000000  0.00000000  0.00000000  1
  La  La1  1  0.00000000  0.00000000  0.50000002  1
  Zn  Zn2  1  0.33333333  0.66666666  0.75000003  1
  Zn  Zn3  1  0.66666665  0.33333333  0.25000001  1
  H  H4  1  0.66666665  0.33333333  0.75000003  1
  H  H5  1  0.33333333  0.66666666  0.25000001  1
  H  H6  1  0.66666665  0.33333333  0.06353200  1
  H  H7  1  0.33333333  0.66666666  0.93646804  1
  H  H8  1  0.66666665  0.33333333  0.43646802  1
  H  H9  1  0.33333333  0.66666666  0.56353203  1
