# generated using pymatgen
data_La
_symmetry_space_group_name_H-M   'P 1'
_cell_length_a   3.66768336
_cell_length_b   3.66768336
_cell_length_c   9.29596424
_cell_angle_alpha   78.62247467
_cell_angle_beta   78.62247467
_cell_angle_gamma   60.00001144
_symmetry_Int_Tables_number   1
_chemical_formula_structural   La
_chemical_formula_sum   La3
_cell_volume   105.44802402
_cell_formula_units_Z   3
loop_
 _symmetry_equiv_pos_site_id
 _symmetry_equiv_pos_as_xyz
  1  'x, y, z'
loop_
 _atom_site_type_symbol
 _atom_site_label
 _atom_site_symmetry_multiplicity
 _atom_site_fract_x
 _atom_site_fract_y
 _atom_site_fract_z
 _atom_site_occupancy
  La  La0  1  0.77507803  0.77507800  0.67476604  1
  La  La1  1  0.22492201  0.22492200  0.32523402  1
  La  La2  1  0.00000000  0.00000000  0.00000000  1
