# generated using pymatgen
data_Ti10AlGe5
_symmetry_space_group_name_H-M   'P 1'
_cell_length_a   5.17555380
_cell_length_b   7.64984179
_cell_length_c   7.64984226
_cell_angle_alpha   120.00000000
_cell_angle_beta   90.00000000
_cell_angle_gamma   90.00000000
_symmetry_Int_Tables_number   1
_chemical_formula_structural   Ti10AlGe5
_chemical_formula_sum   'Ti10 Al1 Ge5'
_cell_volume   262.29643769
_cell_formula_units_Z   1
loop_
 _symmetry_equiv_pos_site_id
 _symmetry_equiv_pos_as_xyz
  1  'x, y, z'
loop_
 _atom_site_type_symbol
 _atom_site_label
 _atom_site_symmetry_multiplicity
 _atom_site_fract_x
 _atom_site_fract_y
 _atom_site_fract_z
 _atom_site_occupancy
  Ti  Ti0  1  0.25000001  0.75390304  0.75390304  1
  Ti  Ti1  1  0.75000003  0.24609701  0.24609701  1
  Ti  Ti2  1  0.25000001  0.00000000  0.24609701  1
  Ti  Ti3  1  0.75000003  0.00000000  0.75390302  1
  Ti  Ti4  1  0.25000001  0.24609701  1.00000003  1
  Ti  Ti5  1  0.75000003  0.75390304  1.00000005  1
  Ti  Ti6  1  0.50000002  0.66666670  0.33333337  1
  Ti  Ti7  1  0.50000002  0.33333335  0.66666669  1
  Ti  Ti8  1  1.00000004  0.33333335  0.66666669  1
  Ti  Ti9  1  1.00000004  0.66666670  0.33333337  1
  Ge  Ge10  1  0.25000001  0.40536902  0.40536902  1
  Ge  Ge11  1  0.75000003  0.59463103  0.59463104  1
  Al  Al12  1  0.25000001  0.00000000  0.59463101  1
  Ge  Ge13  1  0.75000003  0.00000000  0.40536901  1
  Ge  Ge14  1  0.25000001  0.59463103  1.00000004  1
  Ge  Ge15  1  0.75000003  0.40536902  1.00000004  1
