# generated using pymatgen
data_Li4Co3O8
_symmetry_space_group_name_H-M   'P 1'
_cell_length_a   4.91879892
_cell_length_b   5.09564018
_cell_length_c   5.78692913
_cell_angle_alpha   90.00000000
_cell_angle_beta   90.00000000
_cell_angle_gamma   108.18209076
_symmetry_Int_Tables_number   1
_chemical_formula_structural   Li4Co3O8
_chemical_formula_sum   'Li4 Co3 O8'
_cell_volume   137.80387308
_cell_formula_units_Z   1
loop_
 _symmetry_equiv_pos_site_id
 _symmetry_equiv_pos_as_xyz
  1  'x, y, z'
loop_
 _atom_site_type_symbol
 _atom_site_label
 _atom_site_symmetry_multiplicity
 _atom_site_fract_x
 _atom_site_fract_y
 _atom_site_fract_z
 _atom_site_occupancy
  Li  Li0  1  0.00000002  0.50000000  0.49999999  1
  Li  Li1  1  0.50000003  0.50000000  0.24078999  1
  Li  Li2  1  0.50000003  0.50000000  0.75920998  1
  Li  Li3  1  0.50000001  0.00000000  0.49999999  1
  Co  Co4  1  0.00000000  0.00000000  0.24731299  1
  Co  Co5  1  0.50000001  0.00000000  -0.00000000  1
  Co  Co6  1  0.00000000  0.00000000  0.75268698  1
  O  O7  1  0.78239304  0.77398000  0.49999999  1
  O  O8  1  0.21760701  0.22602000  0.49999999  1
  O  O9  1  0.74424802  0.20944500  0.23744199  1
  O  O10  1  0.25575204  0.79055500  0.23744199  1
  O  O11  1  0.24958101  0.20832800  -0.00000000  1
  O  O12  1  0.75041904  0.79167200  -0.00000000  1
  O  O13  1  0.74424802  0.20944500  0.76255798  1
  O  O14  1  0.25575204  0.79055500  0.76255798  1
