# generated using pymatgen
data_ScS
_symmetry_space_group_name_H-M   'P 1'
_cell_length_a   3.58305001
_cell_length_b   3.58305049
_cell_length_c   15.03327084
_cell_angle_alpha   90.00000000
_cell_angle_beta   90.00000000
_cell_angle_gamma   119.99999237
_symmetry_Int_Tables_number   1
_chemical_formula_structural   ScS
_chemical_formula_sum   'Sc4 S4'
_cell_volume   167.14367424
_cell_formula_units_Z   4
loop_
 _symmetry_equiv_pos_site_id
 _symmetry_equiv_pos_as_xyz
  1  'x, y, z'
loop_
 _atom_site_type_symbol
 _atom_site_label
 _atom_site_symmetry_multiplicity
 _atom_site_fract_x
 _atom_site_fract_y
 _atom_site_fract_z
 _atom_site_occupancy
  Sc  Sc0  1  0.00000000  0.00000000  0.00000000  1
  Sc  Sc1  1  0.00000000  0.00000000  0.50000001  1
  Sc  Sc2  1  0.00000000  0.00000000  0.75000001  1
  Sc  Sc3  1  0.00000000  0.00000000  0.25000000  1
  S  S4  1  0.66666665  0.33333334  0.85972201  1
  S  S5  1  0.66666665  0.33333334  0.64027801  1
  S  S6  1  0.33333330  0.66666667  0.35972200  1
  S  S7  1  0.33333330  0.66666667  0.14027800  1
