# generated using pymatgen
data_Ho4MgAl11
_symmetry_space_group_name_H-M   'P 1'
_cell_length_a   6.02633095
_cell_length_b   8.22888947
_cell_length_c   8.22888947
_cell_angle_alpha   119.65013885
_cell_angle_beta   90.00000000
_cell_angle_gamma   90.00000000
_symmetry_Int_Tables_number   1
_chemical_formula_structural   Ho4MgAl11
_chemical_formula_sum   'Ho4 Mg1 Al11'
_cell_volume   354.63890154
_cell_formula_units_Z   1
loop_
 _symmetry_equiv_pos_site_id
 _symmetry_equiv_pos_as_xyz
  1  'x, y, z'
loop_
 _atom_site_type_symbol
 _atom_site_label
 _atom_site_symmetry_multiplicity
 _atom_site_fract_x
 _atom_site_fract_y
 _atom_site_fract_z
 _atom_site_occupancy
  Ho  Ho0  1  0.50000000  0.99964093  0.24568395  1
  Ho  Ho1  1  0.50000000  0.24568398  0.99964094  1
  Ho  Ho2  1  1.00000001  0.24932698  0.24932698  1
  Ho  Ho3  1  1.00000001  0.99801393  0.75394192  1
  Mg  Mg4  1  -0.00000000  0.75394195  0.99801392  1
  Al  Al5  1  0.74925501  0.33551898  0.66743295  1
  Al  Al6  1  0.74925501  0.66743296  0.33551896  1
  Al  Al7  1  0.25074500  0.66743296  0.33551896  1
  Al  Al8  1  0.25074500  0.33551898  0.66743295  1
  Al  Al9  1  0.50000000  0.74911895  0.74911893  1
  Al  Al10  1  0.50000000  0.40414297  0.40414296  1
  Al  Al11  1  0.50000000  0.99282393  0.60393993  1
  Al  Al12  1  0.50000000  0.60393996  0.99282393  1
  Al  Al13  1  -0.00000000  0.60137796  0.60137795  1
  Al  Al14  1  1.00000001  0.99856893  0.39756494  1
  Al  Al15  1  -0.00000000  0.39756497  0.99856894  1
