# generated using pymatgen
data_YbSnPt
_symmetry_space_group_name_H-M   'P 1'
_cell_length_a   4.31269503
_cell_length_b   7.26632786
_cell_length_c   7.26632738
_cell_angle_alpha   120.00000000
_cell_angle_beta   90.00000000
_cell_angle_gamma   90.00000000
_symmetry_Int_Tables_number   1
_chemical_formula_structural   YbSnPt
_chemical_formula_sum   'Yb3 Sn3 Pt3'
_cell_volume   197.20109857
_cell_formula_units_Z   3
loop_
 _symmetry_equiv_pos_site_id
 _symmetry_equiv_pos_as_xyz
  1  'x, y, z'
loop_
 _atom_site_type_symbol
 _atom_site_label
 _atom_site_symmetry_multiplicity
 _atom_site_fract_x
 _atom_site_fract_y
 _atom_site_fract_z
 _atom_site_occupancy
  Yb  Yb0  1  0.50000000  0.00000000  0.58744601  1
  Yb  Yb1  1  0.50000000  0.58744600  0.99999998  1
  Yb  Yb2  1  0.50000000  0.41255400  0.41255398  1
  Sn  Sn3  1  0.00000000  0.00000000  0.25066700  1
  Sn  Sn4  1  -0.00000000  0.25066700  1.00000000  1
  Sn  Sn5  1  0.99999999  0.74933300  0.74933297  1
  Pt  Pt6  1  0.50000000  0.00000000  -0.00000000  1
  Pt  Pt7  1  -0.00000000  0.66666666  0.33333330  1
  Pt  Pt8  1  -0.00000000  0.33333333  0.66666666  1
