# generated using pymatgen
data_TiRu2
_symmetry_space_group_name_H-M   'P 1'
_cell_length_a   3.05073404
_cell_length_b   3.53113389
_cell_length_c   4.92863894
_cell_angle_alpha   110.99129486
_cell_angle_beta   108.02852631
_cell_angle_gamma   90.00000000
_symmetry_Int_Tables_number   1
_chemical_formula_structural   TiRu2
_chemical_formula_sum   'Ti1 Ru2'
_cell_volume   46.76764841
_cell_formula_units_Z   1
loop_
 _symmetry_equiv_pos_site_id
 _symmetry_equiv_pos_as_xyz
  1  'x, y, z'
loop_
 _atom_site_type_symbol
 _atom_site_label
 _atom_site_symmetry_multiplicity
 _atom_site_fract_x
 _atom_site_fract_y
 _atom_site_fract_z
 _atom_site_occupancy
  Ti  Ti0  1  0.00000000  0.00000000  0.00000000  1
  Ru  Ru1  1  0.34120399  0.34120401  0.68240800  1
  Ru  Ru2  1  0.65879597  0.65879603  0.31759200  1
