# generated using pymatgen
data_Mn2O3F
_symmetry_space_group_name_H-M   'P 1'
_cell_length_a   4.51288652
_cell_length_b   4.51288652
_cell_length_c   8.97458458
_cell_angle_alpha   90.00000000
_cell_angle_beta   90.00000000
_cell_angle_gamma   90.80731201
_symmetry_Int_Tables_number   1
_chemical_formula_structural   Mn2O3F
_chemical_formula_sum   'Mn6 O9 F3'
_cell_volume   182.75954528
_cell_formula_units_Z   3
loop_
 _symmetry_equiv_pos_site_id
 _symmetry_equiv_pos_as_xyz
  1  'x, y, z'
loop_
 _atom_site_type_symbol
 _atom_site_label
 _atom_site_symmetry_multiplicity
 _atom_site_fract_x
 _atom_site_fract_y
 _atom_site_fract_z
 _atom_site_occupancy
  Mn  Mn0  1  0.00729798  0.99270201  0.17442101  1
  Mn  Mn1  1  0.99903401  0.00096600  0.50000002  1
  Mn  Mn2  1  0.00729798  0.99270201  0.82557904  1
  Mn  Mn3  1  0.48061199  0.51938801  -0.00000000  1
  Mn  Mn4  1  0.50309799  0.49690200  0.33333335  1
  Mn  Mn5  1  0.50309799  0.49690200  0.66666670  1
  O  O6  1  0.19614098  0.80385901  0.33523802  1
  O  O7  1  0.19614098  0.80385901  0.66476203  1
  O  O8  1  0.19016898  0.80983101  -0.00000000  1
  O  O9  1  0.30565300  0.30514900  0.16628401  1
  O  O10  1  0.30602600  0.30594300  0.50000002  1
  O  O11  1  0.30565300  0.30514900  0.83371604  1
  O  O12  1  0.69485099  0.69434701  0.16628401  1
  O  O13  1  0.69405699  0.69397401  0.50000002  1
  F  F14  1  0.69485099  0.69434701  0.83371604  1
  O  O15  1  0.80756600  0.19243400  0.33441902  1
  F  F16  1  0.80756600  0.19243400  0.66558103  1
  F  F17  1  0.80088600  0.19911400  -0.00000000  1
