# generated using pymatgen
data_Na2Ti5Te6
_symmetry_space_group_name_H-M   'P 1'
_cell_length_a   7.57952690
_cell_length_b   7.87484407
_cell_length_c   7.93055630
_cell_angle_alpha   60.23211670
_cell_angle_beta   89.43582153
_cell_angle_gamma   88.86360168
_symmetry_Int_Tables_number   1
_chemical_formula_structural   Na2Ti5Te6
_chemical_formula_sum   'Na2 Ti5 Te6'
_cell_volume   410.81280512
_cell_formula_units_Z   1
loop_
 _symmetry_equiv_pos_site_id
 _symmetry_equiv_pos_as_xyz
  1  'x, y, z'
loop_
 _atom_site_type_symbol
 _atom_site_label
 _atom_site_symmetry_multiplicity
 _atom_site_fract_x
 _atom_site_fract_y
 _atom_site_fract_z
 _atom_site_occupancy
  Na  Na0  1  0.99999999  0.34828599  0.30342806  1
  Na  Na1  1  1.00000000  0.65171399  0.69657207  1
  Ti  Ti2  1  0.00000000  0.00000000  0.00000000  1
  Ti  Ti3  1  0.37594402  0.98651398  0.67935405  1
  Ti  Ti4  1  0.62405600  0.33413199  0.67935405  1
  Ti  Ti5  1  0.62405599  0.01348600  0.32064603  1
  Ti  Ti6  1  0.37594401  0.66586799  0.32064604  1
  Te  Te7  1  0.25870201  0.67789999  0.00000003  1
  Te  Te8  1  0.74129800  0.32209999  0.00000004  1
  Te  Te9  1  0.73749999  0.01579500  0.64910704  1
  Te  Te10  1  0.26250000  0.33509799  0.64910703  1
  Te  Te11  1  0.26250002  0.98420498  0.35089304  1
  Te  Te12  1  0.73750001  0.66490199  0.35089305  1
