# generated using pymatgen
data_La2Pt3Rh
_symmetry_space_group_name_H-M   'P 1'
_cell_length_a   6.38480997
_cell_length_b   6.38480997
_cell_length_c   6.38480997
_cell_angle_alpha   90.00000000
_cell_angle_beta   90.00000000
_cell_angle_gamma   90.00000000
_symmetry_Int_Tables_number   1
_chemical_formula_structural   La2Pt3Rh
_chemical_formula_sum   'La4 Pt6 Rh2'
_cell_volume   260.28187586
_cell_formula_units_Z   2
loop_
 _symmetry_equiv_pos_site_id
 _symmetry_equiv_pos_as_xyz
  1  'x, y, z'
loop_
 _atom_site_type_symbol
 _atom_site_label
 _atom_site_symmetry_multiplicity
 _atom_site_fract_x
 _atom_site_fract_y
 _atom_site_fract_z
 _atom_site_occupancy
  La  La0  1  0.62477600  0.37522400  0.87522400  1
  La  La1  1  0.37522400  0.87522400  0.62477600  1
  La  La2  1  0.12477600  0.12477600  0.12477600  1
  La  La3  1  0.87522400  0.62477600  0.37522400  1
  Pt  Pt4  1  0.16925500  0.33074500  0.66925500  1
  Pt  Pt5  1  0.66925500  0.16925500  0.33074500  1
  Rh  Rh6  1  0.33074500  0.66925500  0.16925500  1
  Pt  Pt7  1  0.83074500  0.83074500  0.83074500  1
  Pt  Pt8  1  0.57947800  0.92052200  0.07947800  1
  Pt  Pt9  1  0.07947800  0.57947800  0.92052200  1
  Pt  Pt10  1  0.42052200  0.42052200  0.42052200  1
  Rh  Rh11  1  0.92052200  0.07947800  0.57947800  1
