# generated using pymatgen
data_TlCr7Se10
_symmetry_space_group_name_H-M   'P 1'
_cell_length_a   3.70914197
_cell_length_b   10.35330009
_cell_length_c   11.41747475
_cell_angle_alpha   71.40207672
_cell_angle_beta   80.65187073
_cell_angle_gamma   79.68099976
_symmetry_Int_Tables_number   1
_chemical_formula_structural   TlCr7Se10
_chemical_formula_sum   'Tl1 Cr7 Se10'
_cell_volume   406.21947153
_cell_formula_units_Z   1
loop_
 _symmetry_equiv_pos_site_id
 _symmetry_equiv_pos_as_xyz
  1  'x, y, z'
loop_
 _atom_site_type_symbol
 _atom_site_label
 _atom_site_symmetry_multiplicity
 _atom_site_fract_x
 _atom_site_fract_y
 _atom_site_fract_z
 _atom_site_occupancy
  Tl  Tl0  1  0.26070903  0.65053902  0.82804300  1
  Cr  Cr1  1  0.73929103  0.34946101  0.17195699  1
  Cr  Cr2  1  0.50000001  0.00000000  0.99999997  1
  Cr  Cr3  1  0.50000003  0.50000001  0.50000000  1
  Cr  Cr4  1  0.16441501  0.05934700  0.61182298  1
  Cr  Cr5  1  0.83558506  0.94065302  0.38817701  1
  Cr  Cr6  1  0.98508703  0.25770301  0.77212297  1
  Cr  Cr7  1  0.01491303  0.74229702  0.22787702  1
  Se  Se8  1  0.07860705  0.99342102  0.84936501  1
  Se  Se9  1  0.92139302  0.00657900  0.15063498  1
  Se  Se10  1  0.40870902  0.26384201  0.91873998  1
  Se  Se11  1  0.59129104  0.73615802  0.08126001  1
  Se  Se12  1  0.57657302  0.24039101  0.60646298  1
  Se  Se13  1  0.42342704  0.75960902  0.39353701  1
  Se  Se14  1  0.74569005  0.88875002  0.61987000  1
  Se  Se15  1  0.25431001  0.11125000  0.38012999  1
  Se  Se16  1  0.91859404  0.50900201  0.65380999  1
  Se  Se17  1  0.08140602  0.49099801  0.34619001  1
