# generated using pymatgen
data_DyAl7Cu5
_symmetry_space_group_name_H-M   'P 1'
_cell_length_a   5.41109800
_cell_length_b   6.75945902
_cell_length_c   6.75945902
_cell_angle_alpha   80.78097534
_cell_angle_beta   66.40549469
_cell_angle_gamma   66.40549469
_symmetry_Int_Tables_number   1
_chemical_formula_structural   DyAl7Cu5
_chemical_formula_sum   'Dy1 Al7 Cu5'
_cell_volume   207.62540858
_cell_formula_units_Z   1
loop_
 _symmetry_equiv_pos_site_id
 _symmetry_equiv_pos_as_xyz
  1  'x, y, z'
loop_
 _atom_site_type_symbol
 _atom_site_label
 _atom_site_symmetry_multiplicity
 _atom_site_fract_x
 _atom_site_fract_y
 _atom_site_fract_z
 _atom_site_occupancy
  Dy  Dy0  1  0.00000000  0.00000000  0.00000000  1
  Al  Al1  1  0.50000000  0.49999998  0.00000004  1
  Al  Al2  1  0.00000001  0.49999998  0.00000003  1
  Al  Al3  1  0.00000000  0.00000000  0.49999999  1
  Al  Al4  1  0.49999999  0.00000000  0.50000001  1
  Al  Al5  1  0.99999999  0.35169799  0.64830204  1
  Al  Al6  1  0.99999999  0.64830198  0.35169806  1
  Al  Al7  1  0.35169800  0.64830198  0.64830204  1
  Cu  Cu8  1  0.64830200  0.35169799  0.35169803  1
  Cu  Cu9  1  0.50000000  0.78155798  0.21844206  1
  Cu  Cu10  1  0.50000000  0.21844199  0.78155801  1
  Cu  Cu11  1  0.28155800  0.21844199  0.21844202  1
  Cu  Cu12  1  0.71844200  0.78155798  0.78155805  1
