# generated using pymatgen
data_Ba2Ge
_symmetry_space_group_name_H-M   'P 1'
_cell_length_a   5.39473295
_cell_length_b   8.95617485
_cell_length_c   9.83708000
_cell_angle_alpha   90.00000000
_cell_angle_beta   90.00000000
_cell_angle_gamma   90.00000000
_symmetry_Int_Tables_number   1
_chemical_formula_structural   Ba2Ge
_chemical_formula_sum   'Ba8 Ge4'
_cell_volume   475.29004532
_cell_formula_units_Z   4
loop_
 _symmetry_equiv_pos_site_id
 _symmetry_equiv_pos_as_xyz
  1  'x, y, z'
loop_
 _atom_site_type_symbol
 _atom_site_label
 _atom_site_symmetry_multiplicity
 _atom_site_fract_x
 _atom_site_fract_y
 _atom_site_fract_z
 _atom_site_occupancy
  Ba  Ba0  1  0.25000000  0.52131401  0.31763700  1
  Ba  Ba1  1  0.25000000  0.02131400  0.18236300  1
  Ba  Ba2  1  0.75000001  0.47868601  0.68236300  1
  Ba  Ba3  1  0.75000001  0.97868602  0.81763700  1
  Ba  Ba4  1  0.25000000  0.64474401  0.92968800  1
  Ba  Ba5  1  0.25000000  0.14474400  0.57031200  1
  Ba  Ba6  1  0.75000001  0.35525601  0.07031200  1
  Ba  Ba7  1  0.75000001  0.85525601  0.42968800  1
  Ge  Ge8  1  0.25000000  0.27439700  0.89197700  1
  Ge  Ge9  1  0.25000000  0.77439701  0.60802300  1
  Ge  Ge10  1  0.75000001  0.72560301  0.10802300  1
  Ge  Ge11  1  0.75000001  0.22560300  0.39197700  1
