# generated using pymatgen
data_Mn3Co2Si3
_symmetry_space_group_name_H-M   'P 1'
_cell_length_a   4.68986893
_cell_length_b   6.71464920
_cell_length_c   6.71464920
_cell_angle_alpha   119.43457031
_cell_angle_beta   90.00000000
_cell_angle_gamma   90.00000000
_symmetry_Int_Tables_number   1
_chemical_formula_structural   Mn3Co2Si3
_chemical_formula_sum   'Mn6 Co4 Si6'
_cell_volume   184.15535759
_cell_formula_units_Z   2
loop_
 _symmetry_equiv_pos_site_id
 _symmetry_equiv_pos_as_xyz
  1  'x, y, z'
loop_
 _atom_site_type_symbol
 _atom_site_label
 _atom_site_symmetry_multiplicity
 _atom_site_fract_x
 _atom_site_fract_y
 _atom_site_fract_z
 _atom_site_occupancy
  Mn  Mn0  1  1.00000002  0.22976601  0.00100001  1
  Mn  Mn1  1  -0.00000000  0.00100000  0.22976600  1
  Mn  Mn2  1  0.75037701  0.66707102  0.33059303  1
  Mn  Mn3  1  0.75037701  0.33059301  0.66707102  1
  Mn  Mn4  1  0.24962300  0.33059301  0.66707102  1
  Mn  Mn5  1  0.24962300  0.66707102  0.33059303  1
  Co  Co6  1  1.00000002  0.76283102  0.76283103  1
  Co  Co7  1  0.50000001  0.76059302  0.99980204  1
  Co  Co8  1  0.50000001  0.99980203  0.76059304  1
  Co  Co9  1  0.50000001  0.24682101  0.24682101  1
  Si  Si10  1  1.00000002  0.59811002  0.99581203  1
  Si  Si11  1  1.00000002  0.99581203  0.59811004  1
  Si  Si12  1  -0.00000000  0.40744401  0.40744402  1
  Si  Si13  1  0.50000001  0.39482701  0.00012001  1
  Si  Si14  1  0.50000001  0.00012000  0.39482700  1
  Si  Si15  1  0.50000001  0.60625202  0.60625203  1
