# generated using pymatgen
data_TbAg2
_symmetry_space_group_name_H-M   'P 1'
_cell_length_a   3.62264991
_cell_length_b   4.84649611
_cell_length_c   4.84649611
_cell_angle_alpha   120.00000000
_cell_angle_beta   90.00000000
_cell_angle_gamma   90.00000000
_symmetry_Int_Tables_number   1
_chemical_formula_structural   TbAg2
_chemical_formula_sum   'Tb1 Ag2'
_cell_volume   73.69070879
_cell_formula_units_Z   1
loop_
 _symmetry_equiv_pos_site_id
 _symmetry_equiv_pos_as_xyz
  1  'x, y, z'
loop_
 _atom_site_type_symbol
 _atom_site_label
 _atom_site_symmetry_multiplicity
 _atom_site_fract_x
 _atom_site_fract_y
 _atom_site_fract_z
 _atom_site_occupancy
  Tb  Tb0  1  0.00000000  0.00000000  0.00000000  1
  Ag  Ag1  1  0.50000001  0.66666667  0.33333337  1
  Ag  Ag2  1  0.50000001  0.33333333  0.66666671  1
