# generated using pymatgen
data_TbEr7
_symmetry_space_group_name_H-M   'P 1'
_cell_length_a   5.63643503
_cell_length_b   6.87767601
_cell_length_c   6.87767696
_cell_angle_alpha   60.00000381
_cell_angle_beta   90.00000000
_cell_angle_gamma   90.00000000
_symmetry_Int_Tables_number   1
_chemical_formula_structural   TbEr7
_chemical_formula_sum   'Tb1 Er7'
_cell_volume   230.89718649
_cell_formula_units_Z   1
loop_
 _symmetry_equiv_pos_site_id
 _symmetry_equiv_pos_as_xyz
  1  'x, y, z'
loop_
 _atom_site_type_symbol
 _atom_site_label
 _atom_site_symmetry_multiplicity
 _atom_site_fract_x
 _atom_site_fract_y
 _atom_site_fract_z
 _atom_site_occupancy
  Er  Er0  1  0.75000000  0.66666666  0.66666665  1
  Er  Er1  1  0.25000000  0.33333333  0.33333332  1
  Er  Er2  1  0.75000000  0.66289300  0.16855400  1
  Tb  Tb3  1  0.75000000  0.16855300  0.16855400  1
  Er  Er4  1  0.75000000  0.16855300  0.66289398  1
  Er  Er5  1  0.25000000  0.83144700  0.33710599  1
  Er  Er6  1  0.25000000  0.83144700  0.83144598  1
  Er  Er7  1  0.25000000  0.33710700  0.83144598  1
