# generated using pymatgen
data_SmInPt
_symmetry_space_group_name_H-M   'P 1'
_cell_length_a   4.04890013
_cell_length_b   7.58214188
_cell_length_c   7.58214140
_cell_angle_alpha   120.00000000
_cell_angle_beta   90.00000000
_cell_angle_gamma   90.00000000
_symmetry_Int_Tables_number   1
_chemical_formula_structural   SmInPt
_chemical_formula_sum   'Sm3 In3 Pt3'
_cell_volume   201.58187572
_cell_formula_units_Z   3
loop_
 _symmetry_equiv_pos_site_id
 _symmetry_equiv_pos_as_xyz
  1  'x, y, z'
loop_
 _atom_site_type_symbol
 _atom_site_label
 _atom_site_symmetry_multiplicity
 _atom_site_fract_x
 _atom_site_fract_y
 _atom_site_fract_z
 _atom_site_occupancy
  Sm  Sm0  1  -0.00000000  0.40808500  -0.00000002  1
  Sm  Sm1  1  -0.00000000  0.59191500  0.59191498  1
  Sm  Sm2  1  -0.00000000  0.99999999  0.40808496  1
  In  In3  1  0.49999998  0.99999999  0.74639896  1
  In  In4  1  0.49999998  0.74639900  -0.00000003  1
  In  In5  1  0.49999998  0.25360100  0.25360099  1
  Pt  Pt6  1  0.00000000  0.00000000  0.00000000  1
  Pt  Pt7  1  0.49999998  0.33333333  0.66666666  1
  Pt  Pt8  1  0.49999998  0.66666666  0.33333331  1
