# generated using pymatgen
data_Zr3(NiGe2)2
_symmetry_space_group_name_H-M   'P 1'
_cell_length_a   3.64181495
_cell_length_b   6.56636620
_cell_length_c   6.56636620
_cell_angle_alpha   120.00000000
_cell_angle_beta   90.00000000
_cell_angle_gamma   90.00000000
_symmetry_Int_Tables_number   1
_chemical_formula_structural   Zr3(NiGe2)2
_chemical_formula_sum   'Zr3 Ni2 Ge4'
_cell_volume   135.98741043
_cell_formula_units_Z   1
loop_
 _symmetry_equiv_pos_site_id
 _symmetry_equiv_pos_as_xyz
  1  'x, y, z'
loop_
 _atom_site_type_symbol
 _atom_site_label
 _atom_site_symmetry_multiplicity
 _atom_site_fract_x
 _atom_site_fract_y
 _atom_site_fract_z
 _atom_site_occupancy
  Zr  Zr0  1  0.50000001  0.58950799  0.00000001  1
  Zr  Zr1  1  0.50000001  0.41049199  0.41049201  1
  Zr  Zr2  1  0.50000001  0.99999998  0.58950802  1
  Ge  Ge3  1  1.00000001  0.33333333  0.66666667  1
  Ni  Ni4  1  -0.00000000  0.66666665  0.33333335  1
  Ge  Ge5  1  0.50000001  0.00000000  -0.00000000  1
  Ge  Ge6  1  -0.00000000  0.99999998  0.24409602  1
  Ni  Ni7  1  1.00000001  0.75590398  0.75590402  1
  Ge  Ge8  1  -0.00000000  0.24409600  0.00000001  1
