# generated using pymatgen
data_Al4C3
_symmetry_space_group_name_H-M   'P 1'
_cell_length_a   3.42882800
_cell_length_b   3.42882776
_cell_length_c   17.30045509
_cell_angle_alpha   90.00000000
_cell_angle_beta   90.00000000
_cell_angle_gamma   120.00000000
_symmetry_Int_Tables_number   1
_chemical_formula_structural   Al4C3
_chemical_formula_sum   'Al8 C6'
_cell_volume   176.14873539
_cell_formula_units_Z   2
loop_
 _symmetry_equiv_pos_site_id
 _symmetry_equiv_pos_as_xyz
  1  'x, y, z'
loop_
 _atom_site_type_symbol
 _atom_site_label
 _atom_site_symmetry_multiplicity
 _atom_site_fract_x
 _atom_site_fract_y
 _atom_site_fract_z
 _atom_site_occupancy
  Al  Al0  1  0.00000000  0.00000000  0.00000000  1
  Al  Al1  1  0.00000000  0.00000000  0.50000000  1
  Al  Al2  1  0.66666666  0.33333334  0.86674400  1
  Al  Al3  1  0.33333332  0.66666668  0.75000000  1
  Al  Al4  1  0.66666666  0.33333334  0.63325600  1
  Al  Al5  1  0.33333332  0.66666668  0.36674400  1
  Al  Al6  1  0.66666666  0.33333334  0.25000000  1
  Al  Al7  1  0.33333332  0.66666668  0.13325600  1
  C  C8  1  0.33333332  0.66666668  0.90760700  1
  C  C9  1  0.66666666  0.33333334  0.75000000  1
  C  C10  1  0.33333332  0.66666668  0.59239300  1
  C  C11  1  0.66666666  0.33333334  0.40760700  1
  C  C12  1  0.33333332  0.66666668  0.25000000  1
  C  C13  1  0.66666666  0.33333334  0.09239300  1
