# generated using pymatgen
data_MnOF
_symmetry_space_group_name_H-M   'P 1'
_cell_length_a   4.70213318
_cell_length_b   5.63157797
_cell_length_c   7.77386999
_cell_angle_alpha   86.16240692
_cell_angle_beta   89.24663544
_cell_angle_gamma   88.98076630
_symmetry_Int_Tables_number   1
_chemical_formula_structural   MnOF
_chemical_formula_sum   'Mn6 O6 F6'
_cell_volume   205.34659108
_cell_formula_units_Z   6
loop_
 _symmetry_equiv_pos_site_id
 _symmetry_equiv_pos_as_xyz
  1  'x, y, z'
loop_
 _atom_site_type_symbol
 _atom_site_label
 _atom_site_symmetry_multiplicity
 _atom_site_fract_x
 _atom_site_fract_y
 _atom_site_fract_z
 _atom_site_occupancy
  Mn  Mn0  1  0.50811601  0.49587800  0.99848700  1
  Mn  Mn1  1  0.49768399  0.16641200  0.33346299  1
  Mn  Mn2  1  0.50946702  0.82748701  0.66294301  1
  Mn  Mn3  1  0.99535900  0.66692101  0.33792799  1
  Mn  Mn4  1  0.98812898  0.34028300  0.67111699  1
  Mn  Mn5  1  0.99730996  0.00564400  0.99731199  1
  O  O6  1  0.80357100  0.63141701  0.56498900  1
  O  O7  1  0.80425899  0.29670300  0.89963499  1
  O  O8  1  0.80361002  0.96499501  0.23181300  1
  O  O9  1  0.69601702  0.79915201  0.89925600  1
  O  O10  1  0.69608600  0.46423000  0.23315099  1
  O  O11  1  0.69727398  0.13096400  0.56476399  1
  F  F12  1  0.30349803  0.86815701  0.43374201  1
  F  F13  1  0.30278402  0.53595700  0.76858301  1
  F  F14  1  0.30286600  0.20255500  0.10082800  1
  F  F15  1  0.20193199  0.03430400  0.76350000  1
  F  F16  1  0.19658401  0.36748400  0.43763000  1
  F  F17  1  0.19545003  0.70145601  0.10085801  1
