# generated using pymatgen
data_Li2Co2NF7
_symmetry_space_group_name_H-M   'P 1'
_cell_length_a   5.27688217
_cell_length_b   5.36340618
_cell_length_c   5.95165348
_cell_angle_alpha   116.33262634
_cell_angle_beta   90.00000000
_cell_angle_gamma   90.00000000
_symmetry_Int_Tables_number   1
_chemical_formula_structural   Li2Co2NF7
_chemical_formula_sum   'Li2 Co2 N1 F7'
_cell_volume   150.96529860
_cell_formula_units_Z   1
loop_
 _symmetry_equiv_pos_site_id
 _symmetry_equiv_pos_as_xyz
  1  'x, y, z'
loop_
 _atom_site_type_symbol
 _atom_site_label
 _atom_site_symmetry_multiplicity
 _atom_site_fract_x
 _atom_site_fract_y
 _atom_site_fract_z
 _atom_site_occupancy
  Li  Li0  1  0.73754398  0.72986097  0.47627299  1
  Li  Li1  1  0.23754399  0.27013899  0.52372699  1
  Co  Co2  1  0.95652497  0.26945199  0.00102500  1
  Co  Co3  1  0.45652499  0.73054797  0.99897498  1
  N  N4  1  0.20518899  0.51177198  0.95417098  1
  F  F5  1  0.70518898  0.48822798  0.04582900  1
  F  F6  1  0.44770899  0.93398597  0.35887799  1
  F  F7  1  0.26411699  0.03439300  0.97865898  1
  F  F8  1  0.02021600  0.42868399  0.36059799  1
  F  F9  1  0.52021598  0.57131598  0.63940199  1
  F  F10  1  0.76411698  0.96560697  0.02134100  1
  F  F11  1  0.94770897  0.06601400  0.64112199  1
