# generated using pymatgen
data_Ba2YTm3(RuO2)2
_symmetry_space_group_name_H-M   'P 1'
_cell_length_a   4.12824297
_cell_length_b   5.66298819
_cell_length_c   10.08263493
_cell_angle_alpha   90.00000000
_cell_angle_beta   90.00000000
_cell_angle_gamma   90.00000000
_symmetry_Int_Tables_number   1
_chemical_formula_structural   Ba2YTm3(RuO2)2
_chemical_formula_sum   'Ba2 Y1 Tm3 Ru2 O4'
_cell_volume   235.71376674
_cell_formula_units_Z   1
loop_
 _symmetry_equiv_pos_site_id
 _symmetry_equiv_pos_as_xyz
  1  'x, y, z'
loop_
 _atom_site_type_symbol
 _atom_site_label
 _atom_site_symmetry_multiplicity
 _atom_site_fract_x
 _atom_site_fract_y
 _atom_site_fract_z
 _atom_site_occupancy
  Ba  Ba0  1  0.50000000  0.49999998  -0.00000000  1
  Ba  Ba1  1  0.00000000  0.00000000  0.50000000  1
  Tm  Tm2  1  0.50000000  0.07761200  0.22985700  1
  Tm  Tm3  1  0.00000000  0.57761198  0.27014300  1
  Y  Y4  1  0.50000000  0.92238797  0.77014301  1
  Tm  Tm5  1  0.00000000  0.42238799  0.72985701  1
  Ru  Ru6  1  0.00000000  0.00000000  0.00000000  1
  Ru  Ru7  1  0.50000000  0.49999998  0.50000000  1
  O  O8  1  0.50000000  0.72726198  0.34265300  1
  O  O9  1  0.50000000  0.27273799  0.65734700  1
  O  O10  1  0.00000000  0.77273797  0.84265301  1
  O  O11  1  0.00000000  0.22726199  0.15734700  1
