# generated using pymatgen
data_Sr3AlGe7
_symmetry_space_group_name_H-M   'P 1'
_cell_length_a   6.62886858
_cell_length_b   6.62886858
_cell_length_c   6.62886858
_cell_angle_alpha   109.47122192
_cell_angle_beta   109.47122192
_cell_angle_gamma   109.47122192
_symmetry_Int_Tables_number   1
_chemical_formula_structural   Sr3AlGe7
_chemical_formula_sum   'Sr3 Al1 Ge7'
_cell_volume   224.23134173
_cell_formula_units_Z   1
loop_
 _symmetry_equiv_pos_site_id
 _symmetry_equiv_pos_as_xyz
  1  'x, y, z'
loop_
 _atom_site_type_symbol
 _atom_site_label
 _atom_site_symmetry_multiplicity
 _atom_site_fract_x
 _atom_site_fract_y
 _atom_site_fract_z
 _atom_site_occupancy
  Sr  Sr0  1  0.50000000  0.00000000  0.50000000  1
  Sr  Sr1  1  0.50000003  0.50000001  0.00000004  1
  Sr  Sr2  1  0.00000003  0.50000001  0.50000002  1
  Al  Al3  1  1.00000006  1.00000002  0.62529507  1
  Ge  Ge4  1  0.00000004  0.62529502  0.00000003  1
  Ge  Ge5  1  0.37470502  0.37470501  0.37470502  1
  Ge  Ge6  1  0.62529500  0.00000000  0.00000001  1
  Ge  Ge7  1  0.00000000  0.00000000  0.26849500  1
  Ge  Ge8  1  0.00000002  0.26849501  0.00000001  1
  Ge  Ge9  1  0.73150504  0.73150502  0.73150505  1
  Ge  Ge10  1  0.26849500  0.00000000  0.00000001  1
