# generated using pymatgen
data_YGaPt
_symmetry_space_group_name_H-M   'P 1'
_cell_length_a   4.50704098
_cell_length_b   7.10557508
_cell_length_c   7.77873421
_cell_angle_alpha   90.00000000
_cell_angle_beta   90.00000000
_cell_angle_gamma   90.00000000
_symmetry_Int_Tables_number   1
_chemical_formula_structural   YGaPt
_chemical_formula_sum   'Y4 Ga4 Pt4'
_cell_volume   249.11488146
_cell_formula_units_Z   4
loop_
 _symmetry_equiv_pos_site_id
 _symmetry_equiv_pos_as_xyz
  1  'x, y, z'
loop_
 _atom_site_type_symbol
 _atom_site_label
 _atom_site_symmetry_multiplicity
 _atom_site_fract_x
 _atom_site_fract_y
 _atom_site_fract_z
 _atom_site_occupancy
  Y  Y0  1  0.25000000  0.01756800  0.29750499  1
  Y  Y1  1  0.25000000  0.51756799  0.20249499  1
  Y  Y2  1  0.75000000  0.98243199  0.70249498  1
  Y  Y3  1  0.75000000  0.48243199  0.79750498  1
  Ga  Ga4  1  0.25000000  0.68281199  0.57963198  1
  Ga  Ga5  1  0.25000000  0.18281200  0.92036798  1
  Ga  Ga6  1  0.75000000  0.31718800  0.42036799  1
  Ga  Ga7  1  0.75000000  0.81718799  0.07963200  1
  Pt  Pt8  1  0.25000000  0.28729400  0.59061798  1
  Pt  Pt9  1  0.25000000  0.78729399  0.90938198  1
  Pt  Pt10  1  0.75000000  0.71270599  0.40938199  1
  Pt  Pt11  1  0.75000000  0.21270600  0.09061800  1
