# generated using pymatgen
data_Li2BrO2
_symmetry_space_group_name_H-M   'P 1'
_cell_length_a   3.42998862
_cell_length_b   3.42993355
_cell_length_c   6.41381407
_cell_angle_alpha   89.99649048
_cell_angle_beta   89.99445343
_cell_angle_gamma   119.99776459
_symmetry_Int_Tables_number   1
_chemical_formula_structural   Li2BrO2
_chemical_formula_sum   'Li2 Br1 O2'
_cell_volume   65.34843026
_cell_formula_units_Z   1
loop_
 _symmetry_equiv_pos_site_id
 _symmetry_equiv_pos_as_xyz
  1  'x, y, z'
loop_
 _atom_site_type_symbol
 _atom_site_label
 _atom_site_symmetry_multiplicity
 _atom_site_fract_x
 _atom_site_fract_y
 _atom_site_fract_z
 _atom_site_occupancy
  Li  Li0  1  0.33333334  0.66666666  0.31337201  1
  Li  Li1  1  0.66662102  0.33328766  0.68662401  1
  Br  Br2  1  0.00000000  0.00000000  0.00000600  1
  O  O3  1  0.33333334  0.66666666  0.63292101  1
  O  O4  1  0.66666669  0.33333333  0.36707701  1
