# generated using pymatgen
data_CdIn2SnSe4
_symmetry_space_group_name_H-M   'P 1'
_cell_length_a   6.27882385
_cell_length_b   6.27882385
_cell_length_c   7.86093473
_cell_angle_alpha   113.53872681
_cell_angle_beta   113.53872681
_cell_angle_gamma   90.00000000
_symmetry_Int_Tables_number   1
_chemical_formula_structural   CdIn2SnSe4
_chemical_formula_sum   'Cd1 In2 Sn1 Se4'
_cell_volume   255.74505206
_cell_formula_units_Z   1
loop_
 _symmetry_equiv_pos_site_id
 _symmetry_equiv_pos_as_xyz
  1  'x, y, z'
loop_
 _atom_site_type_symbol
 _atom_site_label
 _atom_site_symmetry_multiplicity
 _atom_site_fract_x
 _atom_site_fract_y
 _atom_site_fract_z
 _atom_site_occupancy
  Cd  Cd0  1  0.00000000  0.00000000  0.00000000  1
  In  In1  1  0.25000004  0.75000004  0.50000005  1
  In  In2  1  0.75000004  0.25000001  0.50000004  1
  Sn  Sn3  1  0.50000004  0.50000002  0.00000004  1
  Se  Se4  1  0.37483803  0.37483802  0.23933903  1
  Se  Se5  1  0.86450107  0.86450104  0.23933907  1
  Se  Se6  1  0.13549903  0.62516203  0.76066104  1
  Se  Se7  1  0.62516203  0.13549901  0.76066103  1
