# generated using pymatgen
data_TiBMo
_symmetry_space_group_name_H-M   'P 1'
_cell_length_a   3.05598307
_cell_length_b   3.29574203
_cell_length_c   6.84661913
_cell_angle_alpha   103.92691040
_cell_angle_beta   90.00000000
_cell_angle_gamma   90.00000000
_symmetry_Int_Tables_number   1
_chemical_formula_structural   TiBMo
_chemical_formula_sum   'Ti2 B2 Mo2'
_cell_volume   66.93021146
_cell_formula_units_Z   2
loop_
 _symmetry_equiv_pos_site_id
 _symmetry_equiv_pos_as_xyz
  1  'x, y, z'
loop_
 _atom_site_type_symbol
 _atom_site_label
 _atom_site_symmetry_multiplicity
 _atom_site_fract_x
 _atom_site_fract_y
 _atom_site_fract_z
 _atom_site_occupancy
  Ti  Ti0  1  0.24999999  0.09853900  0.19707801  1
  Ti  Ti1  1  0.74999998  0.90146100  0.80292203  1
  B  B2  1  0.24999999  0.29608900  0.59217802  1
  Mo  Mo3  1  0.74999998  0.70391100  0.40782202  1
  Mo  Mo4  1  0.24999999  0.46491400  0.92982803  1
  B  B5  1  0.74999998  0.53508600  0.07017201  1
