# generated using pymatgen
data_Cu3TeS4
_symmetry_space_group_name_H-M   'P 1'
_cell_length_a   5.38419104
_cell_length_b   5.46691799
_cell_length_c   5.46691799
_cell_angle_alpha   90.00000000
_cell_angle_beta   90.00000000
_cell_angle_gamma   90.00000000
_symmetry_Int_Tables_number   1
_chemical_formula_structural   Cu3TeS4
_chemical_formula_sum   'Cu3 Te1 S4'
_cell_volume   160.91835303
_cell_formula_units_Z   1
loop_
 _symmetry_equiv_pos_site_id
 _symmetry_equiv_pos_as_xyz
  1  'x, y, z'
loop_
 _atom_site_type_symbol
 _atom_site_label
 _atom_site_symmetry_multiplicity
 _atom_site_fract_x
 _atom_site_fract_y
 _atom_site_fract_z
 _atom_site_occupancy
  Cu  Cu0  1  0.00000000  0.50000000  0.50000000  1
  Cu  Cu1  1  0.50000000  0.50000000  -0.00000000  1
  Cu  Cu2  1  0.50000000  0.00000000  0.50000000  1
  Te  Te3  1  0.00000000  0.00000000  0.00000000  1
  S  S4  1  0.26367700  0.26447200  0.26447200  1
  S  S5  1  0.73632300  0.73552800  0.26447200  1
  S  S6  1  0.73632300  0.26447200  0.73552800  1
  S  S7  1  0.26367700  0.73552800  0.73552800  1
