# generated using pymatgen
data_Sr2FeRuO6
_symmetry_space_group_name_H-M   'P 1'
_cell_length_a   5.57009506
_cell_length_b   5.57009506
_cell_length_c   7.83156776
_cell_angle_alpha   89.53694153
_cell_angle_beta   89.53694153
_cell_angle_gamma   88.89271545
_symmetry_Int_Tables_number   1
_chemical_formula_structural   Sr2FeRuO6
_chemical_formula_sum   'Sr4 Fe2 Ru2 O12'
_cell_volume   242.92095952
_cell_formula_units_Z   2
loop_
 _symmetry_equiv_pos_site_id
 _symmetry_equiv_pos_as_xyz
  1  'x, y, z'
loop_
 _atom_site_type_symbol
 _atom_site_label
 _atom_site_symmetry_multiplicity
 _atom_site_fract_x
 _atom_site_fract_y
 _atom_site_fract_z
 _atom_site_occupancy
  Sr  Sr0  1  0.17097298  0.17097300  0.42421899  1
  Sr  Sr1  1  0.74674093  0.74674098  0.99659395  1
  Sr  Sr2  1  0.74605393  0.74605398  0.49845395  1
  Sr  Sr3  1  0.25012598  0.25012599  0.98682799  1
  Fe  Fe4  1  0.24966694  0.74142898  0.25183996  1
  Fe  Fe5  1  0.25150494  0.75135598  0.74077197  1
  Ru  Ru6  1  0.74142896  0.24966699  0.25183996  1
  Ru  Ru7  1  0.75135596  0.25150499  0.74077197  1
  O  O8  1  0.99976491  0.99976497  0.19631792  1
  O  O9  1  0.00274800  0.00274800  0.80666701  1
  O  O10  1  0.49959592  0.99769197  0.24260994  1
  O  O11  1  0.51344492  0.99153397  0.75936295  1
  O  O12  1  0.19779894  0.81156898  0.49738097  1
  O  O13  1  0.30060795  0.69574098  0.99827897  1
  O  O14  1  0.99769194  0.49959599  0.24260994  1
  O  O15  1  0.99153394  0.51344499  0.75936295  1
  O  O16  1  0.50831495  0.50831499  0.29500796  1
  O  O17  1  0.50723895  0.50723899  0.70532497  1
  O  O18  1  0.69574096  0.30060799  0.99827897  1
  O  O19  1  0.81156896  0.19779899  0.49738097  1
