# generated using pymatgen
data_MnV2O6
_symmetry_space_group_name_H-M   'P 1'
_cell_length_a   5.11201715
_cell_length_b   5.11201715
_cell_length_c   10.03486347
_cell_angle_alpha   89.65586090
_cell_angle_beta   89.65586090
_cell_angle_gamma   119.06822205
_symmetry_Int_Tables_number   1
_chemical_formula_structural   MnV2O6
_chemical_formula_sum   'Mn2 V4 O12'
_cell_volume   229.19113394
_cell_formula_units_Z   2
loop_
 _symmetry_equiv_pos_site_id
 _symmetry_equiv_pos_as_xyz
  1  'x, y, z'
loop_
 _atom_site_type_symbol
 _atom_site_label
 _atom_site_symmetry_multiplicity
 _atom_site_fract_x
 _atom_site_fract_y
 _atom_site_fract_z
 _atom_site_occupancy
  Mn  Mn0  1  0.00000000  0.00000000  0.00000000  1
  Mn  Mn1  1  0.00000000  0.00000000  0.49999998  1
  V  V2  1  0.67327299  0.32672700  0.24999996  1
  V  V3  1  0.32672698  0.67327299  0.74999995  1
  V  V4  1  0.33222598  0.66777399  0.24999997  1
  V  V5  1  0.66777399  0.33222600  0.74999995  1
  O  O6  1  0.36614597  0.99772399  0.14153496  1
  O  O7  1  0.99373300  0.37044400  0.14218596  1
  O  O8  1  0.63111398  0.63333199  0.14385196  1
  O  O9  1  0.36666799  0.36888600  0.35614797  1
  O  O10  1  0.62955600  0.00626700  0.35781397  1
  O  O11  1  0.00227598  0.63385399  0.35846497  1
  O  O12  1  0.99772400  0.36614600  0.64153494  1
  O  O13  1  0.37044397  0.99373299  0.64218594  1
  O  O14  1  0.63333198  0.63111399  0.64385194  1
  O  O15  1  0.36888599  0.36666800  0.85614795  1
  O  O16  1  0.00626698  0.62955599  0.85781395  1
  O  O17  1  0.63385400  0.00227600  0.85846495  1
