# generated using pymatgen
data_HfAl7
_symmetry_space_group_name_H-M   'P 1'
_cell_length_a   5.67067814
_cell_length_b   5.67067766
_cell_length_c   9.30004215
_cell_angle_alpha   90.00000000
_cell_angle_beta   90.00000000
_cell_angle_gamma   120.00000000
_symmetry_Int_Tables_number   1
_chemical_formula_structural   HfAl7
_chemical_formula_sum   'Hf2 Al14'
_cell_volume   258.99149826
_cell_formula_units_Z   2
loop_
 _symmetry_equiv_pos_site_id
 _symmetry_equiv_pos_as_xyz
  1  'x, y, z'
loop_
 _atom_site_type_symbol
 _atom_site_label
 _atom_site_symmetry_multiplicity
 _atom_site_fract_x
 _atom_site_fract_y
 _atom_site_fract_z
 _atom_site_occupancy
  Hf  Hf0  1  0.33333331  0.66666668  0.25000000  1
  Hf  Hf1  1  0.66666664  0.33333334  0.74999999  1
  Al  Al2  1  0.00000000  0.00000000  0.49999999  1
  Al  Al3  1  0.00000000  0.00000000  0.00000000  1
  Al  Al4  1  0.83120598  0.16879400  0.25000000  1
  Al  Al5  1  0.16879399  0.33758801  0.74999999  1
  Al  Al6  1  0.66241197  0.83120601  0.74999999  1
  Al  Al7  1  0.33758799  0.16879400  0.25000000  1
  Al  Al8  1  0.49999998  0.50000001  -0.00000000  1
  Al  Al9  1  0.49999999  0.00000000  0.49999999  1
  Al  Al10  1  -0.00000001  0.50000001  0.49999999  1
  Al  Al11  1  -0.00000001  0.50000001  -0.00000000  1
  Al  Al12  1  0.49999999  0.00000000  0.00000000  1
  Al  Al13  1  0.49999998  0.50000001  0.49999999  1
  Al  Al14  1  0.16879398  0.83120601  0.74999999  1
  Al  Al15  1  0.83120597  0.66241201  0.25000000  1
