# generated using pymatgen
data_Ti11AlIr6
_symmetry_space_group_name_H-M   'P 1'
_cell_length_a   6.94632006
_cell_length_b   7.20419788
_cell_length_c   7.20419741
_cell_angle_alpha   120.00000000
_cell_angle_beta   90.00000000
_cell_angle_gamma   90.00000000
_symmetry_Int_Tables_number   1
_chemical_formula_structural   Ti11AlIr6
_chemical_formula_sum   'Ti11 Al1 Ir6'
_cell_volume   312.21708145
_cell_formula_units_Z   1
loop_
 _symmetry_equiv_pos_site_id
 _symmetry_equiv_pos_as_xyz
  1  'x, y, z'
loop_
 _atom_site_type_symbol
 _atom_site_label
 _atom_site_symmetry_multiplicity
 _atom_site_fract_x
 _atom_site_fract_y
 _atom_site_fract_z
 _atom_site_occupancy
  Ti  Ti0  1  0.74999999  0.38799000  0.97943601  1
  Ti  Ti1  1  0.25000000  0.97943600  0.38798997  1
  Ti  Ti2  1  0.74999999  0.59144600  0.61200999  1
  Ti  Ti3  1  0.74999999  0.02056400  0.40855401  1
  Ti  Ti4  1  0.25000000  0.61201000  0.59144599  1
  Ti  Ti5  1  0.25000000  0.40855400  0.02056398  1
  Ti  Ti6  1  0.50000000  0.73162700  1.00000000  1
  Ti  Ti7  1  0.50000000  0.26837300  0.26837300  1
  Ti  Ti8  1  0.50000000  0.00000000  0.73162702  1
  Ti  Ti9  1  0.99999999  0.26837300  0.26837300  1
  Al  Al10  1  -0.00000000  0.73162700  1.00000000  1
  Ti  Ti11  1  0.00000000  0.00000000  0.73162702  1
  Ir  Ir12  1  0.53063800  0.66666666  0.33333332  1
  Ir  Ir13  1  0.25000000  0.00000000  -0.00000000  1
  Ir  Ir14  1  0.74999999  0.00000000  -0.00000000  1
  Ir  Ir15  1  0.96936199  0.66666666  0.33333332  1
  Ir  Ir16  1  0.46936200  0.33333333  0.66666667  1
  Ir  Ir17  1  0.03063800  0.33333333  0.66666667  1
