# generated using pymatgen
data_Ba3Mg2WO9
_symmetry_space_group_name_H-M   'P 1'
_cell_length_a   5.87142801
_cell_length_b   5.87142754
_cell_length_c   7.21180677
_cell_angle_alpha   90.00000000
_cell_angle_beta   90.00000000
_cell_angle_gamma   120.00000763
_symmetry_Int_Tables_number   1
_chemical_formula_structural   Ba3Mg2WO9
_chemical_formula_sum   'Ba3 Mg2 W1 O9'
_cell_volume   215.30897145
_cell_formula_units_Z   1
loop_
 _symmetry_equiv_pos_site_id
 _symmetry_equiv_pos_as_xyz
  1  'x, y, z'
loop_
 _atom_site_type_symbol
 _atom_site_label
 _atom_site_symmetry_multiplicity
 _atom_site_fract_x
 _atom_site_fract_y
 _atom_site_fract_z
 _atom_site_occupancy
  Ba  Ba0  1  0.33333338  0.66666666  0.66554702  1
  Ba  Ba1  1  0.66666669  0.33333333  0.33445301  1
  Ba  Ba2  1  0.00000000  0.00000000  0.00000000  1
  Mg  Mg3  1  0.66666669  0.33333333  0.82273503  1
  W  W4  1  0.33333338  0.66666666  0.17726501  1
  Mg  Mg5  1  0.00000000  0.00000000  0.50000002  1
  O  O6  1  0.17199003  0.34398000  0.32449001  1
  O  O7  1  0.17199006  0.82801000  0.32449001  1
  O  O8  1  0.65602006  0.82801000  0.32449001  1
  O  O9  1  0.34398001  0.17199000  0.67551002  1
  O  O10  1  0.82801001  0.17199000  0.67551002  1
  O  O11  1  0.82801005  0.65602000  0.67551002  1
  O  O12  1  0.50000004  0.50000000  1.00000003  1
  O  O13  1  1.00000003  0.50000000  -0.00000000  1
  O  O14  1  0.50000000  0.00000000  -0.00000000  1
