# generated using pymatgen
data_LiMnO2
_symmetry_space_group_name_H-M   'P 1'
_cell_length_a   5.99346209
_cell_length_b   5.99346209
_cell_length_c   6.01180840
_cell_angle_alpha   92.96294403
_cell_angle_beta   118.28758240
_cell_angle_gamma   118.21644592
_symmetry_Int_Tables_number   1
_chemical_formula_structural   LiMnO2
_chemical_formula_sum   'Li4 Mn4 O8'
_cell_volume   156.62862594
_cell_formula_units_Z   4
loop_
 _symmetry_equiv_pos_site_id
 _symmetry_equiv_pos_as_xyz
  1  'x, y, z'
loop_
 _atom_site_type_symbol
 _atom_site_label
 _atom_site_symmetry_multiplicity
 _atom_site_fract_x
 _atom_site_fract_y
 _atom_site_fract_z
 _atom_site_occupancy
  Li  Li0  1  0.50000001  0.50000001  0.49999999  1
  Li  Li1  1  0.49999998  0.00000000  0.49999995  1
  Li  Li2  1  0.00000000  0.00000000  0.49999999  1
  Li  Li3  1  0.00000004  0.50000001  0.50000002  1
  Mn  Mn4  1  0.00000000  0.00000000  0.00000000  1
  Mn  Mn5  1  0.00000004  0.50000001  0.00000003  1
  Mn  Mn6  1  0.49999998  0.00000000  -0.00000004  1
  Mn  Mn7  1  0.50000001  0.50000001  -0.00000000  1
  O  O8  1  0.45754703  0.73890102  0.19644801  1
  O  O9  1  0.49832699  0.23009701  0.24247197  1
  O  O10  1  0.01237505  0.74414502  0.24247204  1
  O  O11  1  0.01891202  0.25447901  0.27339101  1
  O  O12  1  0.98108801  0.74552102  0.72660896  1
  O  O13  1  0.98762497  0.25585501  0.75752793  1
  O  O14  1  0.50167303  0.76990302  0.75752800  1
  O  O15  1  0.54245399  0.26109901  0.80355296  1
