# generated using pymatgen
data_Li3CoO4
_symmetry_space_group_name_H-M   'P 1'
_cell_length_a   5.01484013
_cell_length_b   5.09477854
_cell_length_c   6.03952980
_cell_angle_alpha   91.18280792
_cell_angle_beta   92.03907776
_cell_angle_gamma   107.18032074
_symmetry_Int_Tables_number   1
_chemical_formula_structural   Li3CoO4
_chemical_formula_sum   'Li6 Co2 O8'
_cell_volume   147.24997780
_cell_formula_units_Z   2
loop_
 _symmetry_equiv_pos_site_id
 _symmetry_equiv_pos_as_xyz
  1  'x, y, z'
loop_
 _atom_site_type_symbol
 _atom_site_label
 _atom_site_symmetry_multiplicity
 _atom_site_fract_x
 _atom_site_fract_y
 _atom_site_fract_z
 _atom_site_occupancy
  Li  Li0  1  0.00000003  0.50000001  -0.00000001  1
  Li  Li1  1  0.50006102  0.50035601  0.24753800  1
  Li  Li2  1  0.00000003  0.50000001  0.49999999  1
  Li  Li3  1  0.49993902  0.49964401  0.75246201  1
  Li  Li4  1  0.49999999  0.00000000  0.50000002  1
  Li  Li5  1  0.00090807  0.99976103  0.75310698  1
  Co  Co6  1  0.49999999  0.00000000  0.00000001  1
  Co  Co7  1  0.99909198  0.00023900  0.24689303  1
  O  O8  1  0.24854505  0.77033802  0.77477500  1
  O  O9  1  0.74914703  0.77780202  0.99420201  1
  O  O10  1  0.24861305  0.76982802  0.26618999  1
  O  O11  1  0.75346003  0.77333502  0.49378600  1
  O  O12  1  0.75145500  0.22966201  0.22522501  1
  O  O13  1  0.24654001  0.22666501  0.50621401  1
  O  O14  1  0.75138700  0.23017201  0.73381002  1
  O  O15  1  0.25085301  0.22219801  0.00579800  1
