# generated using pymatgen
data_YAsO4
_symmetry_space_group_name_H-M   'P 1'
_cell_length_a   5.90312195
_cell_length_b   5.90312195
_cell_length_c   5.90312195
_cell_angle_alpha   106.43443298
_cell_angle_beta   106.43443298
_cell_angle_gamma   115.73212433
_symmetry_Int_Tables_number   1
_chemical_formula_structural   YAsO4
_chemical_formula_sum   'Y2 As2 O8'
_cell_volume   156.91856588
_cell_formula_units_Z   2
loop_
 _symmetry_equiv_pos_site_id
 _symmetry_equiv_pos_as_xyz
  1  'x, y, z'
loop_
 _atom_site_type_symbol
 _atom_site_label
 _atom_site_symmetry_multiplicity
 _atom_site_fract_x
 _atom_site_fract_y
 _atom_site_fract_z
 _atom_site_occupancy
  Y  Y0  1  0.00000000  0.00000000  0.00000000  1
  Y  Y1  1  0.75000002  0.25000001  0.50000006  1
  As  As2  1  0.25000002  0.75000002  0.50000007  1
  As  As3  1  0.50000002  0.50000002  0.00000007  1
  O  O4  1  0.67846203  0.86642103  0.18795910  1
  O  O5  1  0.61642103  0.92846203  0.68795910  1
  O  O6  1  0.24050302  0.92846203  0.31204108  1
  O  O7  1  0.67846202  0.49050302  0.81204108  1
  O  O8  1  0.13357901  0.32153801  0.81204103  1
  O  O9  1  0.07153801  0.38357901  0.31204103  1
  O  O10  1  0.07153802  0.75949702  0.68795906  1
  O  O11  1  0.50949702  0.32153801  0.18795905  1
