# generated using pymatgen
data_GePt2
_symmetry_space_group_name_H-M   'P 1'
_cell_length_a   6.23738813
_cell_length_b   6.23738813
_cell_length_c   6.23738813
_cell_angle_alpha   90.00000000
_cell_angle_beta   90.00000000
_cell_angle_gamma   90.00000000
_symmetry_Int_Tables_number   1
_chemical_formula_structural   GePt2
_chemical_formula_sum   'Ge4 Pt8'
_cell_volume   242.66565231
_cell_formula_units_Z   4
loop_
 _symmetry_equiv_pos_site_id
 _symmetry_equiv_pos_as_xyz
  1  'x, y, z'
loop_
 _atom_site_type_symbol
 _atom_site_label
 _atom_site_symmetry_multiplicity
 _atom_site_fract_x
 _atom_site_fract_y
 _atom_site_fract_z
 _atom_site_occupancy
  Ge  Ge0  1  0.26567099  0.73432898  0.23432899  1
  Ge  Ge1  1  0.76567098  0.76567098  0.76567098  1
  Ge  Ge2  1  0.23432899  0.26567099  0.73432898  1
  Ge  Ge3  1  0.73432898  0.23432899  0.26567099  1
  Pt  Pt4  1  0.38299999  0.88299998  0.61699999  1
  Pt  Pt5  1  0.88299998  0.61699999  0.38299999  1
  Pt  Pt6  1  0.61699999  0.38299999  0.88299998  1
  Pt  Pt7  1  0.11700000  0.11700000  0.11700000  1
  Pt  Pt8  1  0.37878499  0.37878499  0.37878499  1
  Pt  Pt9  1  0.62121499  0.87878498  0.12121500  1
  Pt  Pt10  1  0.87878498  0.12121500  0.62121499  1
  Pt  Pt11  1  0.12121500  0.62121499  0.87878498  1
