# generated using pymatgen
data_Sr2Ca2Cu2PbO12
_symmetry_space_group_name_H-M   'P 1'
_cell_length_a   3.91282606
_cell_length_b   3.91282606
_cell_length_c   16.02111435
_cell_angle_alpha   90.00000000
_cell_angle_beta   90.00000000
_cell_angle_gamma   90.00000000
_symmetry_Int_Tables_number   1
_chemical_formula_structural   Sr2Ca2Cu2PbO12
_chemical_formula_sum   'Sr2 Ca2 Cu2 Pb1 O12'
_cell_volume   245.28658965
_cell_formula_units_Z   1
loop_
 _symmetry_equiv_pos_site_id
 _symmetry_equiv_pos_as_xyz
  1  'x, y, z'
loop_
 _atom_site_type_symbol
 _atom_site_label
 _atom_site_symmetry_multiplicity
 _atom_site_fract_x
 _atom_site_fract_y
 _atom_site_fract_z
 _atom_site_occupancy
  Sr  Sr0  1  0.49999999  0.49999999  0.26827699  1
  Sr  Sr1  1  0.49999999  0.49999999  0.73172298  1
  Ca  Ca2  1  0.49999999  0.49999999  0.00000000  1
  Ca  Ca3  1  0.49999999  0.49999999  0.49999999  1
  Cu  Cu4  1  0.00000000  0.00000000  0.12574900  1
  Cu  Cu5  1  0.00000000  0.00000000  0.87425098  1
  Pb  Pb6  1  0.00000000  0.00000000  0.39800599  1
  O  O7  1  0.00000000  0.00000000  0.60199399  1
  O  O8  1  0.00000000  0.00000000  0.24255599  1
  O  O9  1  0.00000000  0.00000000  0.75744398  1
  O  O10  1  0.00000000  0.49999999  0.11250700  1
  O  O11  1  0.00000000  0.49999999  0.88749298  1
  O  O12  1  0.49999999  0.00000000  0.11250700  1
  O  O13  1  0.49999999  0.00000000  0.88749298  1
  O  O14  1  0.00000000  0.00000000  0.00000000  1
  O  O15  1  0.00000000  0.49999999  0.40992299  1
  O  O16  1  0.00000000  0.49999999  0.59007699  1
  O  O17  1  0.49999999  0.00000000  0.40992299  1
  O  O18  1  0.49999999  0.00000000  0.59007699  1
