# generated using pymatgen
data_LiCoO2
_symmetry_space_group_name_H-M   'P 1'
_cell_length_a   5.03826094
_cell_length_b   5.47084999
_cell_length_c   6.43020964
_cell_angle_alpha   90.00000000
_cell_angle_beta   89.95674896
_cell_angle_gamma   90.00000000
_symmetry_Int_Tables_number   1
_chemical_formula_structural   LiCoO2
_chemical_formula_sum   'Li4 Co4 O8'
_cell_volume   177.23948165
_cell_formula_units_Z   4
loop_
 _symmetry_equiv_pos_site_id
 _symmetry_equiv_pos_as_xyz
  1  'x, y, z'
loop_
 _atom_site_type_symbol
 _atom_site_label
 _atom_site_symmetry_multiplicity
 _atom_site_fract_x
 _atom_site_fract_y
 _atom_site_fract_z
 _atom_site_occupancy
  Li  Li0  1  0.49680401  0.67092000  0.74942202  1
  Li  Li1  1  0.99760401  0.83410700  0.50228402  1
  Li  Li2  1  0.99680401  0.32908000  0.24942201  1
  Li  Li3  1  0.49760401  0.16589300  0.00228400  1
  Co  Co4  1  0.00403800  0.83092200  0.00017800  1
  Co  Co5  1  0.50403801  0.16907800  0.50017802  1
  Co  Co6  1  0.00148600  0.33114500  0.75296702  1
  Co  Co7  1  0.50148601  0.66885500  0.25296701  1
  O  O8  1  0.90074201  0.14238800  0.99024003  1
  O  O9  1  0.89872701  0.66593600  0.77425202  1
  O  O10  1  0.38034600  0.31592100  0.72920402  1
  O  O11  1  0.85859301  0.18075700  0.51104402  1
  O  O12  1  0.40074201  0.85761200  0.49024002  1
  O  O13  1  0.39872701  0.33406400  0.27425201  1
  O  O14  1  0.88034601  0.68407900  0.22920401  1
  O  O15  1  0.35859300  0.81924300  0.01104400  1
