# generated using pymatgen
data_KVSe3
_symmetry_space_group_name_H-M   'P 1'
_cell_length_a   4.06626081
_cell_length_b   9.52606392
_cell_length_c   15.07700253
_cell_angle_alpha   90.00000000
_cell_angle_beta   90.00000000
_cell_angle_gamma   90.00000000
_symmetry_Int_Tables_number   1
_chemical_formula_structural   KVSe3
_chemical_formula_sum   'K4 V4 Se12'
_cell_volume   584.01463475
_cell_formula_units_Z   4
loop_
 _symmetry_equiv_pos_site_id
 _symmetry_equiv_pos_as_xyz
  1  'x, y, z'
loop_
 _atom_site_type_symbol
 _atom_site_label
 _atom_site_symmetry_multiplicity
 _atom_site_fract_x
 _atom_site_fract_y
 _atom_site_fract_z
 _atom_site_occupancy
  K  K0  1  0.75000003  0.54876600  0.82514903  1
  K  K1  1  0.75000003  0.04876600  0.67485102  1
  K  K2  1  0.25000001  0.45123400  0.17485101  1
  K  K3  1  0.25000001  0.95123401  0.32514901  1
  V  V4  1  0.75000003  0.33818500  0.45010901  1
  V  V5  1  0.25000001  0.16181500  0.95010903  1
  V  V6  1  0.25000001  0.66181501  0.54989102  1
  V  V7  1  0.75000003  0.83818501  0.04989100  1
  Se  Se8  1  0.75000003  0.23619400  0.29637901  1
  Se  Se9  1  0.75000003  0.31928900  0.00702700  1
  Se  Se10  1  0.25000001  0.26380600  0.79637903  1
  Se  Se11  1  0.25000001  0.51911800  0.40270201  1
  Se  Se12  1  0.25000001  0.76380601  0.70362102  1
  Se  Se13  1  0.75000003  0.98088201  0.90270203  1
  Se  Se14  1  0.25000001  0.01911800  0.09729800  1
  Se  Se15  1  0.75000003  0.73619401  0.20362101  1
  Se  Se16  1  0.25000001  0.18071100  0.50702702  1
  Se  Se17  1  0.75000003  0.81928901  0.49297302  1
  Se  Se18  1  0.25000001  0.68071101  0.99297303  1
  Se  Se19  1  0.75000003  0.48088200  0.59729802  1
