# generated using pymatgen
data_Sr4Ca3TeO11
_symmetry_space_group_name_H-M   'P 1'
_cell_length_a   5.00385427
_cell_length_b   7.12366056
_cell_length_c   9.28055286
_cell_angle_alpha   105.46219635
_cell_angle_beta   105.63975525
_cell_angle_gamma   90.00000763
_symmetry_Int_Tables_number   1
_chemical_formula_structural   Sr4Ca3TeO11
_chemical_formula_sum   'Sr4 Ca3 Te1 O11'
_cell_volume   306.11233862
_cell_formula_units_Z   1
loop_
 _symmetry_equiv_pos_site_id
 _symmetry_equiv_pos_as_xyz
  1  'x, y, z'
loop_
 _atom_site_type_symbol
 _atom_site_label
 _atom_site_symmetry_multiplicity
 _atom_site_fract_x
 _atom_site_fract_y
 _atom_site_fract_z
 _atom_site_occupancy
  Ca  Ca0  1  0.02949401  0.25773500  0.05898900  1
  Sr  Sr1  1  0.97050601  0.74226500  0.94101102  1
  Sr  Sr2  1  0.33394101  0.53057300  0.66788300  1
  Sr  Sr3  1  0.66605901  0.46942700  0.33211701  1
  Ca  Ca4  1  0.40723199  0.03519000  0.81446601  1
  Ca  Ca5  1  0.59276803  0.96481000  0.18553400  1
  Sr  Sr6  1  0.80061599  0.19188500  0.60123302  1
  Te  Te7  1  0.19938403  0.80811500  0.39876699  1
  O  O8  1  0.50000001  0.50000000  1.00000001  1
  O  O9  1  0.18778300  0.20653400  0.37556400  1
  O  O10  1  0.81221702  0.79346600  0.62443601  1
  O  O11  1  0.10436700  0.00397700  0.20873400  1
  O  O12  1  0.89563302  0.99602300  0.79126601  1
  O  O13  1  0.17737301  0.44246700  0.35474600  1
  O  O14  1  0.82262701  0.55753300  0.64525402  1
  O  O15  1  0.28031000  0.16846200  0.56062101  1
  O  O16  1  0.71969002  0.83153800  0.43937901  1
  O  O17  1  0.52963300  0.27155700  0.05926701  1
  O  O18  1  0.47036702  0.72844300  0.94073300  1
