# generated using pymatgen
data_ZrTi3Si2
_symmetry_space_group_name_H-M   'P 1'
_cell_length_a   3.72571206
_cell_length_b   3.72571206
_cell_length_c   7.68108034
_cell_angle_alpha   104.03562927
_cell_angle_beta   104.03562927
_cell_angle_gamma   90.00000000
_symmetry_Int_Tables_number   1
_chemical_formula_structural   ZrTi3Si2
_chemical_formula_sum   'Zr1 Ti3 Si2'
_cell_volume   100.15313193
_cell_formula_units_Z   1
loop_
 _symmetry_equiv_pos_site_id
 _symmetry_equiv_pos_as_xyz
  1  'x, y, z'
loop_
 _atom_site_type_symbol
 _atom_site_label
 _atom_site_symmetry_multiplicity
 _atom_site_fract_x
 _atom_site_fract_y
 _atom_site_fract_z
 _atom_site_occupancy
  Zr  Zr0  1  0.67678197  0.67678198  0.35356399  1
  Ti  Ti1  1  0.32321799  0.32321799  0.64643601  1
  Ti  Ti2  1  0.49999999  0.00000000  -0.00000001  1
  Ti  Ti3  1  -0.00000001  0.49999999  -0.00000001  1
  Si  Si4  1  0.12800000  0.12800000  0.25600000  1
  Si  Si5  1  0.87199997  0.87199998  0.74400000  1
