# generated using pymatgen
data_Li2MnVNiO6
_symmetry_space_group_name_H-M   'P 1'
_cell_length_a   5.06412506
_cell_length_b   5.06406593
_cell_length_c   5.08204746
_cell_angle_alpha   100.03759003
_cell_angle_beta   100.04163361
_cell_angle_gamma   119.74794006
_symmetry_Int_Tables_number   1
_chemical_formula_structural   Li2MnVNiO6
_chemical_formula_sum   'Li2 Mn1 V1 Ni1 O6'
_cell_volume   106.10930555
_cell_formula_units_Z   1
loop_
 _symmetry_equiv_pos_site_id
 _symmetry_equiv_pos_as_xyz
  1  'x, y, z'
loop_
 _atom_site_type_symbol
 _atom_site_label
 _atom_site_symmetry_multiplicity
 _atom_site_fract_x
 _atom_site_fract_y
 _atom_site_fract_z
 _atom_site_occupancy
  Li  Li0  1  0.50000098  0.00000600  0.00002098  1
  Li  Li1  1  0.15099298  0.34904199  0.00002399  1
  Mn  Mn2  1  0.84903293  0.65097599  0.00002096  1
  V  V3  1  0.33273298  0.16726000  0.49999900  1
  Ni  Ni4  1  0.66726793  0.83273799  0.49999799  1
  O  O5  1  0.70270896  0.20271400  0.73749300  1
  O  O6  1  0.29728795  0.79726399  0.26248100  1
  O  O7  1  0.46299395  0.58201199  0.73275501  1
  O  O8  1  0.91799895  0.03700300  0.26721997  1
  O  O9  1  0.53701496  0.41801099  0.26722399  1
  O  O10  1  0.08196596  0.96297398  0.73276303  1
