# generated using pymatgen
data_MnSe
_symmetry_space_group_name_H-M   'P 1'
_cell_length_a   6.59746313
_cell_length_b   7.62895298
_cell_length_c   8.50843906
_cell_angle_alpha   102.94647980
_cell_angle_beta   97.32494354
_cell_angle_gamma   106.79310608
_symmetry_Int_Tables_number   1
_chemical_formula_structural   MnSe
_chemical_formula_sum   'Mn10 Se10'
_cell_volume   390.98796885
_cell_formula_units_Z   10
loop_
 _symmetry_equiv_pos_site_id
 _symmetry_equiv_pos_as_xyz
  1  'x, y, z'
loop_
 _atom_site_type_symbol
 _atom_site_label
 _atom_site_symmetry_multiplicity
 _atom_site_fract_x
 _atom_site_fract_y
 _atom_site_fract_z
 _atom_site_occupancy
  Mn  Mn0  1  0.00000003  0.50000002  0.00000000  1
  Mn  Mn1  1  0.80111003  0.59939803  0.59981504  1
  Mn  Mn2  1  0.59810001  0.19988201  0.19841503  1
  Mn  Mn3  1  0.40190005  0.80011804  0.80158502  1
  Mn  Mn4  1  0.59931204  0.69867803  0.19866403  1
  Mn  Mn5  1  0.19889003  0.40060202  0.40018501  1
  Mn  Mn6  1  0.40068802  0.30132201  0.80133602  1
  Mn  Mn7  1  0.00000000  0.00000000  0.00000000  1
  Mn  Mn8  1  0.19918506  0.89870504  0.39872902  1
  Mn  Mn9  1  0.80081500  0.10129501  0.60127104  1
  Se  Se10  1  0.69785204  0.65135603  0.89906904  1
  Se  Se11  1  0.49959101  0.24944901  0.50050802  1
  Se  Se12  1  0.69789300  0.14710501  0.89846003  1
  Se  Se13  1  0.30210706  0.85289504  0.10154002  1
  Se  Se14  1  0.50040905  0.75055104  0.49949203  1
  Se  Se15  1  0.10089903  0.44890202  0.69708201  1
  Se  Se16  1  0.30214802  0.34864402  0.10093102  1
  Se  Se17  1  0.89999099  0.04959500  0.30021104  1
  Se  Se18  1  0.10000906  0.95040505  0.69978901  1
  Se  Se19  1  0.89910103  0.55109803  0.30291804  1
