# generated using pymatgen
data_Li5SbO8
_symmetry_space_group_name_H-M   'P 1'
_cell_length_a   5.88540173
_cell_length_b   5.88540173
_cell_length_c   5.91974449
_cell_angle_alpha   60.19172668
_cell_angle_beta   60.19172668
_cell_angle_gamma   60.00000381
_symmetry_Int_Tables_number   1
_chemical_formula_structural   Li5SbO8
_chemical_formula_sum   'Li5 Sb1 O8'
_cell_volume   145.40947421
_cell_formula_units_Z   1
loop_
 _symmetry_equiv_pos_site_id
 _symmetry_equiv_pos_as_xyz
  1  'x, y, z'
loop_
 _atom_site_type_symbol
 _atom_site_label
 _atom_site_symmetry_multiplicity
 _atom_site_fract_x
 _atom_site_fract_y
 _atom_site_fract_z
 _atom_site_occupancy
  Li  Li0  1  0.87825296  0.87825299  0.36524098  1
  Li  Li1  1  0.50009698  0.50009699  0.49970899  1
  Li  Li2  1  0.50116598  0.50116599  0.00274798  1
  Li  Li3  1  0.50116597  0.99491998  0.00274798  1
  Li  Li4  1  0.99491997  0.50116599  0.00274798  1
  Sb  Sb5  1  0.12288199  0.12288200  0.63135400  1
  O  O6  1  0.74035297  0.74035299  0.77894099  1
  O  O7  1  0.28956798  0.75123399  0.20796399  1
  O  O8  1  0.75123398  0.28956800  0.20796398  1
  O  O9  1  0.75123397  0.75123399  0.20796398  1
  O  O10  1  0.25007099  0.25007100  0.78930200  1
  O  O11  1  0.25007098  0.71055599  0.78930200  1
  O  O12  1  0.71055598  0.25007100  0.78930199  1
  O  O13  1  0.25842599  0.25842600  0.22472199  1
