# generated using pymatgen
data_CaTaO3
_symmetry_space_group_name_H-M   'P 1'
_cell_length_a   5.49157190
_cell_length_b   5.74559402
_cell_length_c   7.84384394
_cell_angle_alpha   90.00000000
_cell_angle_beta   90.00000000
_cell_angle_gamma   90.00000000
_symmetry_Int_Tables_number   1
_chemical_formula_structural   CaTaO3
_chemical_formula_sum   'Ca4 Ta4 O12'
_cell_volume   247.49165209
_cell_formula_units_Z   4
loop_
 _symmetry_equiv_pos_site_id
 _symmetry_equiv_pos_as_xyz
  1  'x, y, z'
loop_
 _atom_site_type_symbol
 _atom_site_label
 _atom_site_symmetry_multiplicity
 _atom_site_fract_x
 _atom_site_fract_y
 _atom_site_fract_z
 _atom_site_occupancy
  Ca  Ca0  1  0.98386602  0.05996100  0.25000000  1
  Ca  Ca1  1  0.48386601  0.44003900  0.75000001  1
  Ca  Ca2  1  0.51613401  0.55996100  0.25000000  1
  Ca  Ca3  1  0.01613400  0.94003900  0.75000001  1
  Ta  Ta4  1  0.50000001  0.00000000  0.00000000  1
  Ta  Ta5  1  0.00000000  0.50000000  0.00000000  1
  Ta  Ta6  1  0.00000000  0.50000000  0.50000000  1
  Ta  Ta7  1  0.50000001  0.00000000  0.50000000  1
  O  O8  1  0.09747900  0.47160800  0.25000000  1
  O  O9  1  0.59747901  0.02839200  0.75000001  1
  O  O10  1  0.40252101  0.97160800  0.25000000  1
  O  O11  1  0.90252102  0.52839200  0.75000001  1
  O  O12  1  0.70310201  0.29750200  0.05079300  1
  O  O13  1  0.20310200  0.20249800  0.94920701  1
  O  O14  1  0.79689801  0.79750200  0.44920700  1
  O  O15  1  0.29689801  0.70249800  0.55079300  1
  O  O16  1  0.29689801  0.70249800  0.94920701  1
  O  O17  1  0.79689801  0.79750200  0.05079300  1
  O  O18  1  0.20310200  0.20249800  0.55079300  1
  O  O19  1  0.70310201  0.29750200  0.44920700  1
