# generated using pymatgen
data_La5Y5(CuBi3)2
_symmetry_space_group_name_H-M   'P 1'
_cell_length_a   6.49483204
_cell_length_b   9.61604691
_cell_length_c   9.61615372
_cell_angle_alpha   120.00036621
_cell_angle_beta   90.00000000
_cell_angle_gamma   90.00000000
_symmetry_Int_Tables_number   1
_chemical_formula_structural   La5Y5(CuBi3)2
_chemical_formula_sum   'La5 Y5 Cu2 Bi6'
_cell_volume   520.10966426
_cell_formula_units_Z   1
loop_
 _symmetry_equiv_pos_site_id
 _symmetry_equiv_pos_as_xyz
  1  'x, y, z'
loop_
 _atom_site_type_symbol
 _atom_site_label
 _atom_site_symmetry_multiplicity
 _atom_site_fract_x
 _atom_site_fract_y
 _atom_site_fract_z
 _atom_site_occupancy
  La  La0  1  0.50000100  0.66691901  0.33345600  1
  La  La1  1  0.50000100  0.33308101  0.66653699  1
  La  La2  1  0.00000100  0.33308101  0.66654399  1
  Y  Y3  1  0.00000100  0.66691901  0.33346300  1
  La  La4  1  0.74999800  0.00000000  0.74261898  1
  La  La5  1  0.75000600  0.74284601  0.00023001  1
  Y  Y6  1  0.75000600  0.25715400  0.25738400  1
  Y  Y7  1  0.24999800  1.00000002  0.25738101  1
  Y  Y8  1  0.25000600  0.25715400  0.99976998  1
  Y  Y9  1  0.25000600  0.74284601  0.74261599  1
  Cu  Cu10  1  0.49995700  0.00000000  0.00000100  1
  Cu  Cu11  1  0.99995699  0.00000000  0.99999897  1
  Bi  Bi12  1  0.75001400  0.00000000  0.38473299  1
  Bi  Bi13  1  0.75000900  0.38461401  0.00004301  1
  Bi  Bi14  1  0.75000900  0.61538601  0.61542799  1
  Bi  Bi15  1  0.25001400  1.00000002  0.61526700  1
  Bi  Bi16  1  0.25000900  0.61538601  0.99995698  1
  Bi  Bi17  1  0.25000900  0.38461401  0.38457200  1
