# generated using pymatgen
data_NbMoW
_symmetry_space_group_name_H-M   'P 1'
_cell_length_a   2.80913448
_cell_length_b   2.80913448
_cell_length_c   6.96062231
_cell_angle_alpha   97.57750702
_cell_angle_beta   97.57750702
_cell_angle_gamma   110.27368164
_symmetry_Int_Tables_number   1
_chemical_formula_structural   NbMoW
_chemical_formula_sum   'Nb1 Mo1 W1'
_cell_volume   50.13525147
_cell_formula_units_Z   1
loop_
 _symmetry_equiv_pos_site_id
 _symmetry_equiv_pos_as_xyz
  1  'x, y, z'
loop_
 _atom_site_type_symbol
 _atom_site_label
 _atom_site_symmetry_multiplicity
 _atom_site_fract_x
 _atom_site_fract_y
 _atom_site_fract_z
 _atom_site_occupancy
  Nb  Nb0  1  0.66620702  0.66620703  0.33241402  1
  Mo  Mo1  1  0.99766903  0.99766904  0.99533804  1
  W  W2  1  0.33612501  0.33612501  0.67225002  1
