# generated using pymatgen
data_SrFeO3
_symmetry_space_group_name_H-M   'P 1'
_cell_length_a   5.64067221
_cell_length_b   5.64080381
_cell_length_c   8.04125118
_cell_angle_alpha   90.01995087
_cell_angle_beta   89.98023224
_cell_angle_gamma   89.76286316
_symmetry_Int_Tables_number   1
_chemical_formula_structural   SrFeO3
_chemical_formula_sum   'Sr4 Fe4 O12'
_cell_volume   255.85370718
_cell_formula_units_Z   4
loop_
 _symmetry_equiv_pos_site_id
 _symmetry_equiv_pos_as_xyz
  1  'x, y, z'
loop_
 _atom_site_type_symbol
 _atom_site_label
 _atom_site_symmetry_multiplicity
 _atom_site_fract_x
 _atom_site_fract_y
 _atom_site_fract_z
 _atom_site_occupancy
  Sr  Sr0  1  0.00013797  0.49990400  0.25011500  1
  Sr  Sr1  1  0.99986198  0.50009600  0.74988503  1
  Sr  Sr2  1  0.50011895  0.99989499  0.25010800  1
  Sr  Sr3  1  0.49988000  0.00010600  0.74989202  1
  Fe  Fe4  1  0.00000195  0.99999899  0.50000200  1
  Fe  Fe5  1  0.00000000  0.00000000  0.00000100  1
  Fe  Fe6  1  0.49999998  0.50000000  0.99999902  1
  Fe  Fe7  1  0.49999898  0.50000000  0.50000001  1
  O  O8  1  0.00001495  0.99992599  0.24999899  1
  O  O9  1  0.99998401  0.00007300  0.75000103  1
  O  O10  1  0.50014898  0.49986800  0.24999701  1
  O  O11  1  0.49985198  0.50013200  0.75000201  1
  O  O12  1  0.76287799  0.23713800  0.00032302  1
  O  O13  1  0.76274999  0.23721100  0.50010202  1
  O  O14  1  0.23712196  0.76286199  0.99967601  1
  O  O15  1  0.23724996  0.76278899  0.49989700  1
  O  O16  1  0.24984199  0.24984800  0.99999301  1
  O  O17  1  0.24993099  0.24989000  0.49999601  1
  O  O18  1  0.75015797  0.75015199  0.00000701  1
  O  O19  1  0.75006997  0.75010999  0.50000502  1
