# generated using pymatgen
data_Mn3WO6
_symmetry_space_group_name_H-M   'P 1'
_cell_length_a   5.21062994
_cell_length_b   5.40411663
_cell_length_c   7.93893957
_cell_angle_alpha   89.68244171
_cell_angle_beta   88.18527222
_cell_angle_gamma   89.49268341
_symmetry_Int_Tables_number   1
_chemical_formula_structural   Mn3WO6
_chemical_formula_sum   'Mn6 W2 O12'
_cell_volume   223.42744693
_cell_formula_units_Z   2
loop_
 _symmetry_equiv_pos_site_id
 _symmetry_equiv_pos_as_xyz
  1  'x, y, z'
loop_
 _atom_site_type_symbol
 _atom_site_label
 _atom_site_symmetry_multiplicity
 _atom_site_fract_x
 _atom_site_fract_y
 _atom_site_fract_z
 _atom_site_occupancy
  Mn  Mn0  1  0.99752598  0.49952202  0.99654302  1
  Mn  Mn1  1  0.50229395  0.99991704  0.50278498  1
  Mn  Mn2  1  0.99957898  0.50093502  0.50442401  1
  Mn  Mn3  1  0.50086001  0.00112800  0.99523203  1
  Mn  Mn4  1  0.51806298  0.44736002  0.76371001  1
  Mn  Mn5  1  0.02152000  0.06038200  0.26186200  1
  W  W6  1  0.47768098  0.55867702  0.23478299  1
  W  W7  1  0.98068496  0.94235104  0.73899899  1
  O  O8  1  0.80280200  0.19144901  0.92013802  1
  O  O9  1  0.30232799  0.30013801  0.41736400  1
  O  O10  1  0.20088196  0.80461503  0.08198297  1
  O  O11  1  0.69626797  0.70083903  0.58487100  1
  O  O12  1  0.12664997  0.56511702  0.76708499  1
  O  O13  1  0.62805096  0.93525604  0.26814798  1
  O  O14  1  0.87177999  0.43717702  0.23277200  1
  O  O15  1  0.37340500  0.06835700  0.73232702  1
  O  O16  1  0.30475599  0.30165101  0.05806499  1
  O  O17  1  0.81396500  0.19140501  0.55074902  1
  O  O18  1  0.68593197  0.69134903  0.94463400  1
  O  O19  1  0.19496996  0.80237703  0.44352698  1
