# generated using pymatgen
data_Tl4Sn5Te2Se9
_symmetry_space_group_name_H-M   'P 1'
_cell_length_a   10.04910183
_cell_length_b   10.12907410
_cell_length_c   10.12907410
_cell_angle_alpha   70.36940002
_cell_angle_beta   70.68863678
_cell_angle_gamma   109.31136322
_symmetry_Int_Tables_number   1
_chemical_formula_structural   Tl4Sn5Te2Se9
_chemical_formula_sum   'Tl4 Sn5 Te2 Se9'
_cell_volume   795.23937023
_cell_formula_units_Z   1
loop_
 _symmetry_equiv_pos_site_id
 _symmetry_equiv_pos_as_xyz
  1  'x, y, z'
loop_
 _atom_site_type_symbol
 _atom_site_label
 _atom_site_symmetry_multiplicity
 _atom_site_fract_x
 _atom_site_fract_y
 _atom_site_fract_z
 _atom_site_occupancy
  Sn  Sn0  1  0.18092000  0.01608300  0.76234500  1
  Tl  Tl1  1  0.16483698  0.22157198  0.01608302  1
  Tl  Tl2  1  0.94326494  0.76234494  0.22157209  1
  Tl  Tl3  1  0.44326493  0.77842794  0.23765507  1
  Sn  Sn4  1  0.66483691  0.98391692  0.77842809  1
  Tl  Tl5  1  0.68091999  0.23765498  0.98391703  1
  Sn  Sn6  1  0.81907991  0.98391692  0.23765511  1
  Te  Te7  1  0.83516293  0.77842794  0.98391708  1
  Te  Te8  1  0.05673498  0.23765498  0.77842801  1
  Sn  Sn9  1  0.55673499  0.22157198  0.76234503  1
  Sn  Sn10  1  0.33516300  0.01608300  0.22157201  1
  Se  Se11  1  0.31907993  0.76234494  0.01608307  1
  Se  Se12  1  0.25000000  0.00000000  0.00000001  1
  Se  Se13  1  0.75000001  0.00000000  1.00000001  1
  Se  Se14  1  0.24999993  0.74301294  0.74301306  1
  Se  Se15  1  0.50698696  0.51397396  0.74301305  1
  Se  Se16  1  0.99301294  0.74301294  0.51397409  1
  Se  Se17  1  0.49301296  0.48602596  0.25698705  1
  Se  Se18  1  0.00698697  0.25698698  0.48602601  1
  Se  Se19  1  0.74999999  0.25698698  0.25698705  1
