# generated using pymatgen
data_CaWO4
_symmetry_space_group_name_H-M   'P 1'
_cell_length_a   5.10378981
_cell_length_b   5.47014475
_cell_length_c   6.53750563
_cell_angle_alpha   112.87984467
_cell_angle_beta   111.01780701
_cell_angle_gamma   94.34397888
_symmetry_Int_Tables_number   1
_chemical_formula_structural   CaWO4
_chemical_formula_sum   'Ca2 W2 O8'
_cell_volume   151.97634299
_cell_formula_units_Z   2
loop_
 _symmetry_equiv_pos_site_id
 _symmetry_equiv_pos_as_xyz
  1  'x, y, z'
loop_
 _atom_site_type_symbol
 _atom_site_label
 _atom_site_symmetry_multiplicity
 _atom_site_fract_x
 _atom_site_fract_y
 _atom_site_fract_z
 _atom_site_occupancy
  Ca  Ca0  1  0.88007000  0.13007000  0.26013998  1
  Ca  Ca1  1  0.11993002  0.86993002  0.73985998  1
  W  W2  1  0.35270101  0.60270102  0.20540198  1
  W  W3  1  0.64729900  0.39729901  0.79459797  1
  O  O4  1  0.94082400  0.23764701  0.94342497  1
  O  O5  1  0.22463201  0.55037901  0.42622298  1
  O  O6  1  0.05917602  0.76235302  0.05657498  1
  O  O7  1  0.70159101  0.87584402  0.42622297  1
  O  O8  1  0.29840900  0.12415600  0.57377699  1
  O  O9  1  0.49739900  0.29422201  0.05657498  1
  O  O10  1  0.77536800  0.44962101  0.57377697  1
  O  O11  1  0.50260101  0.70577802  0.94342497  1
