# generated using pymatgen
data_La(GePt)3
_symmetry_space_group_name_H-M   'P 1'
_cell_length_a   4.37004995
_cell_length_b   4.37286615
_cell_length_c   7.28578854
_cell_angle_alpha   107.46334839
_cell_angle_beta   90.00000000
_cell_angle_gamma   90.00000000
_symmetry_Int_Tables_number   1
_chemical_formula_structural   La(GePt)3
_chemical_formula_sum   'La1 Ge3 Pt3'
_cell_volume   132.81164209
_cell_formula_units_Z   1
loop_
 _symmetry_equiv_pos_site_id
 _symmetry_equiv_pos_as_xyz
  1  'x, y, z'
loop_
 _atom_site_type_symbol
 _atom_site_label
 _atom_site_symmetry_multiplicity
 _atom_site_fract_x
 _atom_site_fract_y
 _atom_site_fract_z
 _atom_site_occupancy
  La  La0  1  0.00000000  0.00000000  0.00000000  1
  Ge  Ge1  1  0.50000001  0.41551399  0.83102799  1
  Ge  Ge2  1  0.50000001  0.58448599  0.16897202  1
  Ge  Ge3  1  0.50000001  0.82617699  0.65235401  1
  Pt  Pt4  1  0.00000000  0.67404199  0.34808401  1
  Pt  Pt5  1  0.50000001  0.17382300  0.34764600  1
  Pt  Pt6  1  -0.00000000  0.32595799  0.65191599  1
