# generated using pymatgen
data_Cs2LiPO4
_symmetry_space_group_name_H-M   'P 1'
_cell_length_a   6.06785393
_cell_length_b   6.97818136
_cell_length_c   8.32893181
_cell_angle_alpha   90.00000000
_cell_angle_beta   90.00000000
_cell_angle_gamma   115.77086639
_symmetry_Int_Tables_number   1
_chemical_formula_structural   Cs2LiPO4
_chemical_formula_sum   'Cs4 Li2 P2 O8'
_cell_volume   317.59208109
_cell_formula_units_Z   2
loop_
 _symmetry_equiv_pos_site_id
 _symmetry_equiv_pos_as_xyz
  1  'x, y, z'
loop_
 _atom_site_type_symbol
 _atom_site_label
 _atom_site_symmetry_multiplicity
 _atom_site_fract_x
 _atom_site_fract_y
 _atom_site_fract_z
 _atom_site_occupancy
  Cs  Cs0  1  0.06779299  0.13558600  0.14714900  1
  Cs  Cs1  1  0.93220694  0.86441398  0.64714901  1
  Cs  Cs2  1  0.60521099  0.21042199  0.50448801  1
  Cs  Cs3  1  0.39478894  0.78957798  0.00448800  1
  Li  Li4  1  0.79301696  0.58603398  0.23071001  1
  Li  Li5  1  0.20698297  0.41396599  0.73071002  1
  P  P6  1  0.69686398  0.39372799  0.94565002  1
  P  P7  1  0.30313596  0.60627198  0.44565001  1
  O  O8  1  0.89222899  0.31861699  0.84093602  1
  O  O9  1  0.10777095  0.68138298  0.34093601  1
  O  O10  1  0.63819299  0.27638599  0.13442500  1
  O  O11  1  0.36180695  0.72361398  0.63442501  1
  O  O12  1  0.42638798  0.31861699  0.84093602  1
  O  O13  1  0.57361195  0.68138298  0.34093601  1
  O  O14  1  0.16746598  0.33493199  0.48720501  1
  O  O15  1  0.83253396  0.66506798  0.98720502  1
