# generated using pymatgen
data_Ta(Mo3Se4)2
_symmetry_space_group_name_H-M   'P 1'
_cell_length_a   6.86148834
_cell_length_b   6.86148834
_cell_length_c   6.86148834
_cell_angle_alpha   89.51263428
_cell_angle_beta   89.51263428
_cell_angle_gamma   89.51263428
_symmetry_Int_Tables_number   1
_chemical_formula_structural   Ta(Mo3Se4)2
_chemical_formula_sum   'Ta1 Mo6 Se8'
_cell_volume   323.00416182
_cell_formula_units_Z   1
loop_
 _symmetry_equiv_pos_site_id
 _symmetry_equiv_pos_as_xyz
  1  'x, y, z'
loop_
 _atom_site_type_symbol
 _atom_site_label
 _atom_site_symmetry_multiplicity
 _atom_site_fract_x
 _atom_site_fract_y
 _atom_site_fract_z
 _atom_site_occupancy
  Ta  Ta0  1  0.00000000  0.00000000  0.00000000  1
  Mo  Mo1  1  0.42206699  0.23816800  0.55912703  1
  Mo  Mo2  1  0.23816800  0.55912699  0.42206704  1
  Mo  Mo3  1  0.55912699  0.42206699  0.23816806  1
  Mo  Mo4  1  0.57793299  0.76183199  0.44087308  1
  Mo  Mo5  1  0.76183199  0.44087299  0.57793307  1
  Mo  Mo6  1  0.44087300  0.57793299  0.76183205  1
  Se  Se7  1  0.24007500  0.24007500  0.24007503  1
  Se  Se8  1  0.75992499  0.75992499  0.75992508  1
  Se  Se9  1  0.37759600  0.74728599  0.12293907  1
  Se  Se10  1  0.74728599  0.12293900  0.37759605  1
  Se  Se11  1  0.12293900  0.37759600  0.74728602  1
  Se  Se12  1  0.62240399  0.25271400  0.87706104  1
  Se  Se13  1  0.25271400  0.87706099  0.62240406  1
  Se  Se14  1  0.87706099  0.62240399  0.25271409  1
