# generated using pymatgen
data_Li2Ti5O12
_symmetry_space_group_name_H-M   'P 1'
_cell_length_a   6.28967524
_cell_length_b   6.29036283
_cell_length_c   6.29008436
_cell_angle_alpha   109.41353607
_cell_angle_beta   109.40608215
_cell_angle_gamma   109.44024658
_symmetry_Int_Tables_number   1
_chemical_formula_structural   Li2Ti5O12
_chemical_formula_sum   'Li2 Ti5 O12'
_cell_volume   191.93759728
_cell_formula_units_Z   1
loop_
 _symmetry_equiv_pos_site_id
 _symmetry_equiv_pos_as_xyz
  1  'x, y, z'
loop_
 _atom_site_type_symbol
 _atom_site_label
 _atom_site_symmetry_multiplicity
 _atom_site_fract_x
 _atom_site_fract_y
 _atom_site_fract_z
 _atom_site_occupancy
  Li  Li0  1  0.99999901  0.50000503  0.00000307  1
  Li  Li1  1  0.50000399  0.00000400  0.00000303  1
  Ti  Ti2  1  0.99999804  0.99999907  0.50000709  1
  Ti  Ti3  1  0.49999702  0.49999303  0.49999505  1
  Ti  Ti4  1  0.99999701  0.50000103  0.49999608  1
  Ti  Ti5  1  0.49999902  0.49999903  0.00000004  1
  Ti  Ti6  1  0.50000105  0.99999807  0.49999306  1
  O  O7  1  0.68226504  0.81810405  0.50415707  1
  O  O8  1  0.31727005  0.82115005  0.13786504  1
  O  O9  1  0.68273100  0.17885401  0.86213405  1
  O  O10  1  0.86213603  0.68260205  0.17876607  1
  O  O11  1  0.82111299  0.13790501  0.31732205  1
  O  O12  1  0.17889305  0.86209606  0.68268204  1
  O  O13  1  0.50413503  0.68227705  0.81806206  1
  O  O14  1  0.81801702  0.50415403  0.68228007  1
  O  O15  1  0.31772901  0.18188401  0.49584103  1
  O  O16  1  0.49586601  0.31771902  0.18193904  1
  O  O17  1  0.13786302  0.31740002  0.82123402  1
  O  O18  1  0.18198003  0.49584903  0.31772103  1
