# generated using pymatgen
data_CaHo(NiO3)2
_symmetry_space_group_name_H-M   'P 1'
_cell_length_a   5.30081272
_cell_length_b   5.65136623
_cell_length_c   7.57779694
_cell_angle_alpha   90.00531769
_cell_angle_beta   89.72724915
_cell_angle_gamma   89.99812317
_symmetry_Int_Tables_number   1
_chemical_formula_structural   CaHo(NiO3)2
_chemical_formula_sum   'Ca2 Ho2 Ni4 O12'
_cell_volume   227.00423184
_cell_formula_units_Z   2
loop_
 _symmetry_equiv_pos_site_id
 _symmetry_equiv_pos_as_xyz
  1  'x, y, z'
loop_
 _atom_site_type_symbol
 _atom_site_label
 _atom_site_symmetry_multiplicity
 _atom_site_fract_x
 _atom_site_fract_y
 _atom_site_fract_z
 _atom_site_occupancy
  Ca  Ca0  1  0.02049600  0.07131300  0.75004501  1
  Ca  Ca1  1  0.52049399  0.42873398  0.25002901  1
  Ho  Ho2  1  0.97950398  0.92868696  0.24995602  1
  Ho  Ho3  1  0.47950699  0.57126598  0.74997101  1
  Ni  Ni4  1  0.99999799  0.49999798  0.49999903  1
  Ni  Ni5  1  0.49999800  0.00000100  0.00000001  1
  Ni  Ni6  1  0.50000000  0.00000000  0.50000002  1
  Ni  Ni7  1  -0.00000001  0.49999998  -0.00000001  1
  O  O8  1  0.89010899  0.46106998  0.74379603  1
  O  O9  1  0.39009900  0.03893700  0.24380101  1
  O  O10  1  0.10989199  0.53892998  0.25620300  1
  O  O11  1  0.60990098  0.96106296  0.75620001  1
  O  O12  1  0.70256399  0.68665597  0.44668402  1
  O  O13  1  0.20256998  0.81332297  0.94668100  1
  O  O14  1  0.29743699  0.31334399  0.55331601  1
  O  O15  1  0.79743000  0.18667699  0.05332002  1
  O  O16  1  0.81764300  0.20837099  0.44163803  1
  O  O17  1  0.31766199  0.29162499  0.94165602  1
  O  O18  1  0.18235698  0.79162897  0.55836200  1
  O  O19  1  0.68233799  0.70837597  0.05834501  1
