# generated using pymatgen
data_Li2In3
_symmetry_space_group_name_H-M   'P 1'
_cell_length_a   4.71595383
_cell_length_b   4.71595383
_cell_length_c   5.75942516
_cell_angle_alpha   90.00000000
_cell_angle_beta   90.00000000
_cell_angle_gamma   120.00000000
_symmetry_Int_Tables_number   1
_chemical_formula_structural   Li2In3
_chemical_formula_sum   'Li2 In3'
_cell_volume   110.92996090
_cell_formula_units_Z   1
loop_
 _symmetry_equiv_pos_site_id
 _symmetry_equiv_pos_as_xyz
  1  'x, y, z'
loop_
 _atom_site_type_symbol
 _atom_site_label
 _atom_site_symmetry_multiplicity
 _atom_site_fract_x
 _atom_site_fract_y
 _atom_site_fract_z
 _atom_site_occupancy
  Li  Li0  1  0.33333335  0.66666670  0.67392298  1
  Li  Li1  1  0.66666669  0.33333335  0.32607699  1
  In  In2  1  0.33333335  0.66666670  0.18466499  1
  In  In3  1  0.66666669  0.33333335  0.81533498  1
  In  In4  1  0.00000000  0.00000000  0.00000000  1
