# generated using pymatgen
data_LiGa2
_symmetry_space_group_name_H-M   'P 1'
_cell_length_a   3.84678411
_cell_length_b   3.84678340
_cell_length_c   6.16771221
_cell_angle_alpha   90.00000000
_cell_angle_beta   90.00000000
_cell_angle_gamma   120.00000763
_symmetry_Int_Tables_number   1
_chemical_formula_structural   LiGa2
_chemical_formula_sum   'Li1 Ga2'
_cell_volume   79.04060333
_cell_formula_units_Z   1
loop_
 _symmetry_equiv_pos_site_id
 _symmetry_equiv_pos_as_xyz
  1  'x, y, z'
loop_
 _atom_site_type_symbol
 _atom_site_label
 _atom_site_symmetry_multiplicity
 _atom_site_fract_x
 _atom_site_fract_y
 _atom_site_fract_z
 _atom_site_occupancy
  Li  Li0  1  0.00000000  0.00000000  0.49999998  1
  Ga  Ga1  1  0.33333336  0.66666669  0.75173897  1
  Ga  Ga2  1  0.66666666  0.33333334  0.24826099  1
