# generated using pymatgen
data_YbIn2
_symmetry_space_group_name_H-M   'P 1'
_cell_length_a   3.33286190
_cell_length_b   3.33286190
_cell_length_c   8.68535042
_cell_angle_alpha   78.93825531
_cell_angle_beta   78.93825531
_cell_angle_gamma   60.00000381
_symmetry_Int_Tables_number   1
_chemical_formula_structural   YbIn2
_chemical_formula_sum   'Yb1 In2'
_cell_volume   81.47488491
_cell_formula_units_Z   1
loop_
 _symmetry_equiv_pos_site_id
 _symmetry_equiv_pos_as_xyz
  1  'x, y, z'
loop_
 _atom_site_type_symbol
 _atom_site_label
 _atom_site_symmetry_multiplicity
 _atom_site_fract_x
 _atom_site_fract_y
 _atom_site_fract_z
 _atom_site_occupancy
  Yb  Yb0  1  0.00000000  0.00000000  0.00000000  1
  In  In1  1  0.77833597  0.77833598  0.66499198  1
  In  In2  1  0.22166399  0.22166399  0.33500799  1
