# generated using pymatgen
data_SmCo3
_symmetry_space_group_name_H-M   'P 1'
_cell_length_a   4.99245930
_cell_length_b   4.99245977
_cell_length_c   8.55407906
_cell_angle_alpha   73.03320312
_cell_angle_beta   73.03320312
_cell_angle_gamma   59.99999237
_symmetry_Int_Tables_number   1
_chemical_formula_structural   SmCo3
_chemical_formula_sum   'Sm3 Co9'
_cell_volume   173.84481524
_cell_formula_units_Z   3
loop_
 _symmetry_equiv_pos_site_id
 _symmetry_equiv_pos_as_xyz
  1  'x, y, z'
loop_
 _atom_site_type_symbol
 _atom_site_label
 _atom_site_symmetry_multiplicity
 _atom_site_fract_x
 _atom_site_fract_y
 _atom_site_fract_z
 _atom_site_occupancy
  Sm  Sm0  1  0.00448400  0.00448400  0.98654799  1
  Sm  Sm1  1  0.85688899  0.85689001  0.42933203  1
  Sm  Sm2  1  0.13886100  0.13886100  0.58341700  1
  Co  Co3  1  0.41708999  0.91879901  0.24702102  1
  Co  Co4  1  0.41708999  0.41709101  0.24702102  1
  Co  Co5  1  0.91879899  0.41709001  0.24702103  1
  Co  Co6  1  0.58238000  0.08388700  0.75135401  1
  Co  Co7  1  0.58237999  0.58237901  0.75135402  1
  Co  Co8  1  0.08388699  0.58238001  0.75135400  1
  Co  Co9  1  0.49899899  0.49900001  0.50300202  1
  Co  Co10  1  0.66666666  0.66666667  0.00002903  1
  Co  Co11  1  0.33248399  0.33248300  0.00254901  1
