# generated using pymatgen
data_Sr2FeRh4O9
_symmetry_space_group_name_H-M   'P 1'
_cell_length_a   3.03672290
_cell_length_b   7.85755014
_cell_length_c   9.33692074
_cell_angle_alpha   114.88374329
_cell_angle_beta   90.00000000
_cell_angle_gamma   90.00000000
_symmetry_Int_Tables_number   1
_chemical_formula_structural   Sr2FeRh4O9
_chemical_formula_sum   'Sr2 Fe1 Rh4 O9'
_cell_volume   202.10708421
_cell_formula_units_Z   1
loop_
 _symmetry_equiv_pos_site_id
 _symmetry_equiv_pos_as_xyz
  1  'x, y, z'
loop_
 _atom_site_type_symbol
 _atom_site_label
 _atom_site_symmetry_multiplicity
 _atom_site_fract_x
 _atom_site_fract_y
 _atom_site_fract_z
 _atom_site_occupancy
  Sr  Sr0  1  0.50000002  0.51161199  0.65814699  1
  Sr  Sr1  1  0.50000002  0.48838799  0.34185299  1
  Fe  Fe2  1  0.50000002  0.85346498  0.34185299  1
  Rh  Rh3  1  0.50000002  0.14653500  0.65814699  1
  Rh  Rh4  1  -0.00000000  0.82613398  0.99999998  1
  Rh  Rh5  1  -0.00000000  0.17386600  0.99999999  1
  Rh  Rh6  1  -0.00000000  0.79655298  0.59310598  1
  O  O7  1  -0.00000000  0.20344699  0.40689399  1
  O  O8  1  0.50000002  0.49999999  0.99999998  1
  O  O9  1  -0.00000000  0.70266398  0.75976298  1
  O  O10  1  -0.00000000  0.29733599  0.24023699  1
  O  O11  1  -0.00000000  0.94290098  0.24023699  1
  O  O12  1  -0.00000000  0.05709900  0.75976299  1
  O  O13  1  -0.00000000  0.67796098  0.35592199  1
  O  O14  1  -0.00000000  0.32203899  0.64407799  1
  O  O15  1  0.50000002  0.00000000  -0.00000000  1
