# generated using pymatgen
data_Sr3MnCoO7
_symmetry_space_group_name_H-M   'P 1'
_cell_length_a   3.95185590
_cell_length_b   3.95185590
_cell_length_c   10.60733891
_cell_angle_alpha   100.73572540
_cell_angle_beta   100.73572540
_cell_angle_gamma   90.00000000
_symmetry_Int_Tables_number   1
_chemical_formula_structural   Sr3MnCoO7
_chemical_formula_sum   'Sr3 Mn1 Co1 O7'
_cell_volume   159.80493451
_cell_formula_units_Z   1
loop_
 _symmetry_equiv_pos_site_id
 _symmetry_equiv_pos_as_xyz
  1  'x, y, z'
loop_
 _atom_site_type_symbol
 _atom_site_label
 _atom_site_symmetry_multiplicity
 _atom_site_fract_x
 _atom_site_fract_y
 _atom_site_fract_z
 _atom_site_occupancy
  Sr  Sr0  1  0.68615199  0.68615201  0.37230398  1
  Sr  Sr1  1  0.31897200  0.31897200  0.63794401  1
  Sr  Sr2  1  0.49318399  0.49318401  0.98636801  1
  Mn  Mn3  1  0.89996299  0.89996301  0.79992599  1
  Co  Co4  1  0.09684900  0.09684900  0.19369800  1
  O  O5  1  0.80598799  0.80598801  0.61197598  1
  O  O6  1  0.19538100  0.19538100  0.39076201  1
  O  O7  1  0.90420300  0.40420301  0.80840600  1
  O  O8  1  0.40420298  0.90420301  0.80840600  1
  O  O9  1  0.09763599  0.59763601  0.19527199  1
  O  O10  1  0.59763601  0.09763600  0.19527199  1
  O  O11  1  0.99983199  0.99983201  0.99966399  1
