# generated using pymatgen
data_SrLaFeO4
_symmetry_space_group_name_H-M   'P 1'
_cell_length_a   5.46101379
_cell_length_b   5.66909599
_cell_length_c   6.59220695
_cell_angle_alpha   90.00000000
_cell_angle_beta   114.46908569
_cell_angle_gamma   90.00000000
_symmetry_Int_Tables_number   1
_chemical_formula_structural   SrLaFeO4
_chemical_formula_sum   'Sr2 La2 Fe2 O8'
_cell_volume   185.75800508
_cell_formula_units_Z   2
loop_
 _symmetry_equiv_pos_site_id
 _symmetry_equiv_pos_as_xyz
  1  'x, y, z'
loop_
 _atom_site_type_symbol
 _atom_site_label
 _atom_site_symmetry_multiplicity
 _atom_site_fract_x
 _atom_site_fract_y
 _atom_site_fract_z
 _atom_site_occupancy
  Sr  Sr0  1  0.60366701  0.51960500  0.20733397  1
  Sr  Sr1  1  0.39633300  0.01960500  0.79266598  1
  La  La2  1  0.88946701  0.48099200  0.77893395  1
  La  La3  1  0.11053300  0.98099200  0.22106599  1
  Fe  Fe4  1  0.25287200  0.49697000  0.50574399  1
  Fe  Fe5  1  0.74712801  0.99697000  0.49425596  1
  O  O6  1  0.42023601  0.43093600  0.84047198  1
  O  O7  1  0.07502700  0.57028000  0.15005400  1
  O  O8  1  0.57976401  0.93093600  0.15952797  1
  O  O9  1  0.92497301  0.07028000  0.84994595  1
  O  O10  1  0.52021401  0.75060900  0.54322697  1
  O  O11  1  0.47978601  0.25060900  0.45677298  1
  O  O12  1  0.97698701  0.25060900  0.45677295  1
  O  O13  1  0.02301300  0.75060900  0.54322700  1
