# generated using pymatgen
data_LiTi2WO3
_symmetry_space_group_name_H-M   'P 1'
_cell_length_a   5.98307991
_cell_length_b   6.16945362
_cell_length_c   6.16945362
_cell_angle_alpha   60.56313324
_cell_angle_beta   60.99437714
_cell_angle_gamma   60.99437714
_symmetry_Int_Tables_number   1
_chemical_formula_structural   LiTi2WO3
_chemical_formula_sum   'Li2 Ti4 W2 O6'
_cell_volume   164.11111218
_cell_formula_units_Z   2
loop_
 _symmetry_equiv_pos_site_id
 _symmetry_equiv_pos_as_xyz
  1  'x, y, z'
loop_
 _atom_site_type_symbol
 _atom_site_label
 _atom_site_symmetry_multiplicity
 _atom_site_fract_x
 _atom_site_fract_y
 _atom_site_fract_z
 _atom_site_occupancy
  Li  Li0  1  0.84969301  0.90030703  0.40030699  1
  Li  Li1  1  0.15030700  0.09969300  0.59969301  1
  Ti  Ti2  1  0.50000001  0.50000002  -0.00000001  1
  Ti  Ti3  1  -0.00000000  0.50000002  -0.00000000  1
  Ti  Ti4  1  0.50000000  1.00000003  -0.00000001  1
  Ti  Ti5  1  0.50000001  0.50000002  0.50000000  1
  W  W6  1  0.26764900  0.25152201  0.21317900  1
  W  W7  1  0.26765000  0.71317802  0.75152201  1
  O  O8  1  0.72692901  0.24896701  0.74896701  1
  O  O9  1  0.27513700  0.24896801  0.74896702  1
  O  O10  1  0.72486301  0.75103203  0.25103299  1
  O  O11  1  0.73235001  0.28682201  0.24847799  1
  O  O12  1  0.27307100  0.75103303  0.25103300  1
  O  O13  1  0.73235101  0.74847803  0.78682101  1
