# generated using pymatgen
data_Cs2RuSF6
_symmetry_space_group_name_H-M   'P 1'
_cell_length_a   5.66442823
_cell_length_b   6.81155777
_cell_length_c   6.81155872
_cell_angle_alpha   60.00000381
_cell_angle_beta   90.00000000
_cell_angle_gamma   90.00000000
_symmetry_Int_Tables_number   1
_chemical_formula_structural   Cs2RuSF6
_chemical_formula_sum   'Cs2 Ru1 S1 F6'
_cell_volume   227.60388803
_cell_formula_units_Z   1
loop_
 _symmetry_equiv_pos_site_id
 _symmetry_equiv_pos_as_xyz
  1  'x, y, z'
loop_
 _atom_site_type_symbol
 _atom_site_label
 _atom_site_symmetry_multiplicity
 _atom_site_fract_x
 _atom_site_fract_y
 _atom_site_fract_z
 _atom_site_occupancy
  Cs  Cs0  1  0.24790499  0.33333334  0.33333333  1
  Cs  Cs1  1  0.75209497  0.66666668  0.66666667  1
  S  S2  1  0.49999998  0.00000000  0.00000000  1
  Ru  Ru3  1  0.00000000  0.00000000  0.00000000  1
  F  F4  1  0.75717097  0.16500000  0.66999999  1
  F  F5  1  0.75717097  0.67000002  0.16500001  1
  F  F6  1  0.75717097  0.16500000  0.16500000  1
  F  F7  1  0.24282899  0.83500002  0.33000001  1
  F  F8  1  0.24282899  0.33000001  0.83499999  1
  F  F9  1  0.24282899  0.83500002  0.83500000  1
