# generated using pymatgen
data_AuSe
_symmetry_space_group_name_H-M   'P 1'
_cell_length_a   5.20430279
_cell_length_b   7.56627655
_cell_length_c   7.73994398
_cell_angle_alpha   80.20380402
_cell_angle_beta   77.94522095
_cell_angle_gamma   73.53076172
_symmetry_Int_Tables_number   1
_chemical_formula_structural   AuSe
_chemical_formula_sum   'Au3 Se3'
_cell_volume   283.82101599
_cell_formula_units_Z   3
loop_
 _symmetry_equiv_pos_site_id
 _symmetry_equiv_pos_as_xyz
  1  'x, y, z'
loop_
 _atom_site_type_symbol
 _atom_site_label
 _atom_site_symmetry_multiplicity
 _atom_site_fract_x
 _atom_site_fract_y
 _atom_site_fract_z
 _atom_site_occupancy
  Au  Au0  1  0.41606002  0.03294100  0.87209698  1
  Au  Au1  1  0.58393998  0.96705900  0.12790297  1
  Se  Se2  1  0.55689401  0.32793200  0.77910997  1
  Au  Au3  1  0.44310599  0.67206800  0.22088998  1
  Se  Se4  1  0.79857000  0.80775500  0.71000796  1
  Se  Se5  1  0.20143000  0.19224500  0.28999199  1
