# generated using pymatgen
data_Na7V3O8
_symmetry_space_group_name_H-M   'P 1'
_cell_length_a   5.94184971
_cell_length_b   5.97619629
_cell_length_c   8.72718811
_cell_angle_alpha   71.63786316
_cell_angle_beta   79.17965698
_cell_angle_gamma   68.76651001
_symmetry_Int_Tables_number   1
_chemical_formula_structural   Na7V3O8
_chemical_formula_sum   'Na7 V3 O8'
_cell_volume   273.20212591
_cell_formula_units_Z   1
loop_
 _symmetry_equiv_pos_site_id
 _symmetry_equiv_pos_as_xyz
  1  'x, y, z'
loop_
 _atom_site_type_symbol
 _atom_site_label
 _atom_site_symmetry_multiplicity
 _atom_site_fract_x
 _atom_site_fract_y
 _atom_site_fract_z
 _atom_site_occupancy
  Na  Na0  1  0.79071968  0.56765713  0.16798403  1
  Na  Na1  1  0.20928025  0.43234291  0.83201599  1
  Na  Na2  1  0.72643840  0.21506855  0.97750787  1
  Na  Na3  1  0.27356153  0.78493149  0.02249216  1
  Na  Na4  1  0.72941937  0.48372096  0.57180301  1
  Na  Na5  1  0.27058056  0.51627908  0.42819701  1
  Na  Na6  1  0.23151296  0.95763470  0.61510475  1
  V  V7  1  0.76848697  0.04236534  0.38489527  1
  V  V8  1  0.72089864  0.84560256  0.75414903  1
  V  V9  1  0.27910129  0.15439749  0.24585099  1
  O  O10  1  0.96999084  0.70640651  0.61197983  1
  O  O11  1  0.03000909  0.29359353  0.38802019  1
  O  O12  1  0.91163157  0.82504278  0.91042365  1
  O  O13  1  0.08836836  0.17495726  0.08957637  1
  O  O14  1  0.52676185  0.63851318  0.80307656  1
  O  O15  1  0.47323808  0.36148687  0.19692346  1
  O  O16  1  0.48656707  0.83670050  0.34833789  1
  O  O17  1  0.51343286  0.16329955  0.65166214  1
