# generated using pymatgen
data_Sr2Pt4Pb2Au
_symmetry_space_group_name_H-M   'P 1'
_cell_length_a   4.63811779
_cell_length_b   6.50174522
_cell_length_c   15.69538593
_cell_angle_alpha   94.59304047
_cell_angle_beta   90.00000000
_cell_angle_gamma   110.89659882
_symmetry_Int_Tables_number   1
_chemical_formula_structural   Sr2Pt4Pb2Au
_chemical_formula_sum   'Sr4 Pt8 Pb4 Au2'
_cell_volume   440.54897514
_cell_formula_units_Z   2
loop_
 _symmetry_equiv_pos_site_id
 _symmetry_equiv_pos_as_xyz
  1  'x, y, z'
loop_
 _atom_site_type_symbol
 _atom_site_label
 _atom_site_symmetry_multiplicity
 _atom_site_fract_x
 _atom_site_fract_y
 _atom_site_fract_z
 _atom_site_occupancy
  Sr  Sr0  1  0.15780700  0.31561399  0.59014099  1
  Sr  Sr1  1  0.84219303  0.68438598  0.40985899  1
  Sr  Sr2  1  0.05889500  0.11779000  0.86539999  1
  Sr  Sr3  1  0.94110503  0.88220998  0.13459999  1
  Pb  Pb4  1  0.33773801  0.67547598  0.79455599  1
  Pb  Pb5  1  0.66226203  0.32452399  0.20544400  1
  Au  Au6  1  0.89343103  0.78686198  0.65417099  1
  Au  Au7  1  0.10656900  0.21313799  0.34582900  1
  Pb  Pb8  1  0.78048503  0.56096998  0.93117999  1
  Pb  Pb9  1  0.21951501  0.43902999  0.06882000  1
  Pt  Pt10  1  0.71976103  0.43952199  0.75421199  1
  Pt  Pt11  1  0.43956301  0.87912598  0.55720499  1
  Pt  Pt12  1  0.40110301  0.80220598  0.97023299  1
  Pt  Pt13  1  0.59889702  0.19779399  0.02976700  1
  Pt  Pt14  1  0.47645101  0.95290197  0.29563899  1
  Pt  Pt15  1  0.52354902  0.04709800  0.70436099  1
  Pt  Pt16  1  0.56043702  0.12087400  0.44279500  1
  Pt  Pt17  1  0.28023901  0.56047798  0.24578799  1
