# generated using pymatgen
data_Mn3VSe8
_symmetry_space_group_name_H-M   'P 1'
_cell_length_a   6.38744211
_cell_length_b   6.39114380
_cell_length_c   6.39122057
_cell_angle_alpha   89.83413696
_cell_angle_beta   90.00000000
_cell_angle_gamma   90.00000000
_symmetry_Int_Tables_number   1
_chemical_formula_structural   Mn3VSe8
_chemical_formula_sum   'Mn3 V1 Se8'
_cell_volume   260.90809423
_cell_formula_units_Z   1
loop_
 _symmetry_equiv_pos_site_id
 _symmetry_equiv_pos_as_xyz
  1  'x, y, z'
loop_
 _atom_site_type_symbol
 _atom_site_label
 _atom_site_symmetry_multiplicity
 _atom_site_fract_x
 _atom_site_fract_y
 _atom_site_fract_z
 _atom_site_occupancy
  Mn  Mn0  1  0.49999999  0.00000000  0.50000002  1
  Mn  Mn1  1  -0.00000000  0.50000002  0.50000004  1
  Mn  Mn2  1  0.49999999  0.50000002  0.00000003  1
  V  V3  1  0.00000000  0.00000000  0.00000000  1
  Se  Se4  1  0.89129998  0.60863302  0.89074306  1
  Se  Se5  1  0.39129999  0.89136703  0.10925705  1
  Se  Se6  1  0.10958200  0.10946100  0.60912803  1
  Se  Se7  1  0.60958199  0.39053901  0.39087203  1
  Se  Se8  1  0.10870000  0.39136701  0.10925703  1
  Se  Se9  1  0.60869999  0.10863300  0.89074304  1
  Se  Se10  1  0.89041798  0.89053903  0.39087206  1
  Se  Se11  1  0.39041799  0.60946102  0.60912805  1
