# generated using pymatgen
data_Al2FeGe6
_symmetry_space_group_name_H-M   'P 1'
_cell_length_a   4.62568188
_cell_length_b   4.66679001
_cell_length_c   6.44267321
_cell_angle_alpha   90.00000000
_cell_angle_beta   90.00000000
_cell_angle_gamma   119.70903778
_symmetry_Int_Tables_number   1
_chemical_formula_structural   Al2FeGe6
_chemical_formula_sum   'Al2 Fe1 Ge6'
_cell_volume   120.79713221
_cell_formula_units_Z   1
loop_
 _symmetry_equiv_pos_site_id
 _symmetry_equiv_pos_as_xyz
  1  'x, y, z'
loop_
 _atom_site_type_symbol
 _atom_site_label
 _atom_site_symmetry_multiplicity
 _atom_site_fract_x
 _atom_site_fract_y
 _atom_site_fract_z
 _atom_site_occupancy
  Al  Al0  1  0.50000000  0.49999999  0.33468899  1
  Al  Al1  1  -0.00000001  0.49999999  0.66531098  1
  Fe  Fe2  1  0.50000001  0.00000000  0.99999997  1
  Ge  Ge3  1  0.83488501  0.66976998  -0.00000000  1
  Ge  Ge4  1  0.83738302  0.15731200  0.32695899  1
  Ge  Ge5  1  0.31992901  0.15731200  0.67304098  1
  Ge  Ge6  1  0.16511500  0.33022999  -0.00000000  1
  Ge  Ge7  1  0.16261699  0.84268798  0.32695899  1
  Ge  Ge8  1  0.68007100  0.84268798  0.67304098  1
