# generated using pymatgen
data_Zr2Fe
_symmetry_space_group_name_H-M   'P 1'
_cell_length_a   5.20023012
_cell_length_b   5.32811546
_cell_length_c   5.32811546
_cell_angle_alpha   76.22303009
_cell_angle_beta   60.79085159
_cell_angle_gamma   60.79085159
_symmetry_Int_Tables_number   1
_chemical_formula_structural   Zr2Fe
_chemical_formula_sum   'Zr4 Fe2'
_cell_volume   112.47169715
_cell_formula_units_Z   2
loop_
 _symmetry_equiv_pos_site_id
 _symmetry_equiv_pos_as_xyz
  1  'x, y, z'
loop_
 _atom_site_type_symbol
 _atom_site_label
 _atom_site_symmetry_multiplicity
 _atom_site_fract_x
 _atom_site_fract_y
 _atom_site_fract_z
 _atom_site_occupancy
  Zr  Zr0  1  0.34297500  0.49999999  0.81404994  1
  Zr  Zr1  1  0.15702600  0.18594900  0.49999997  1
  Zr  Zr2  1  0.65702499  0.49999999  0.18594995  1
  Zr  Zr3  1  0.84297399  0.81405098  0.49999991  1
  Fe  Fe4  1  0.74999999  0.00000000  -0.00000002  1
  Fe  Fe5  1  0.25000000  0.00000000  0.99999996  1
