# generated using pymatgen
data_NdGa3
_symmetry_space_group_name_H-M   'P 1'
_cell_length_a   4.52445078
_cell_length_b   6.59461212
_cell_length_c   6.59461260
_cell_angle_alpha   120.00000000
_cell_angle_beta   90.00000000
_cell_angle_gamma   90.00000000
_symmetry_Int_Tables_number   1
_chemical_formula_structural   NdGa3
_chemical_formula_sum   'Nd2 Ga6'
_cell_volume   170.40213981
_cell_formula_units_Z   2
loop_
 _symmetry_equiv_pos_site_id
 _symmetry_equiv_pos_as_xyz
  1  'x, y, z'
loop_
 _atom_site_type_symbol
 _atom_site_label
 _atom_site_symmetry_multiplicity
 _atom_site_fract_x
 _atom_site_fract_y
 _atom_site_fract_z
 _atom_site_occupancy
  Nd  Nd0  1  -0.00000000  0.66666667  0.33333335  1
  Nd  Nd1  1  0.50000002  0.33333333  0.66666666  1
  Ga  Ga2  1  0.50000002  0.28228700  0.14114301  1
  Ga  Ga3  1  0.50000002  0.85885600  0.71771202  1
  Ga  Ga4  1  0.50000002  0.85885600  0.14114303  1
  Ga  Ga5  1  -0.00000000  0.71642100  0.85821001  1
  Ga  Ga6  1  -0.00000000  0.14178900  0.28357800  1
  Ga  Ga7  1  -0.00000000  0.14178900  0.85820998  1
