# generated using pymatgen
data_VSe2
_symmetry_space_group_name_H-M   'P 1'
_cell_length_a   3.27083898
_cell_length_b   5.74183702
_cell_length_c   6.47423029
_cell_angle_alpha   89.86441040
_cell_angle_beta   90.00000000
_cell_angle_gamma   90.00000000
_symmetry_Int_Tables_number   1
_chemical_formula_structural   VSe2
_chemical_formula_sum   'V2 Se4'
_cell_volume   121.58974645
_cell_formula_units_Z   2
loop_
 _symmetry_equiv_pos_site_id
 _symmetry_equiv_pos_as_xyz
  1  'x, y, z'
loop_
 _atom_site_type_symbol
 _atom_site_label
 _atom_site_symmetry_multiplicity
 _atom_site_fract_x
 _atom_site_fract_y
 _atom_site_fract_z
 _atom_site_occupancy
  V  V0  1  0.00000000  0.00000000  0.00000000  1
  V  V1  1  0.50000000  0.50000000  0.49999998  1
  Se  Se2  1  0.50000000  0.30450600  0.14381199  1
  Se  Se3  1  0.50000000  0.69549400  0.85618796  1
  Se  Se4  1  0.00000000  0.80492500  0.35446097  1
  Se  Se5  1  0.00000000  0.19507500  0.64553898  1
