# generated using pymatgen
data_LiCuF4
_symmetry_space_group_name_H-M   'P 1'
_cell_length_a   4.77535391
_cell_length_b   4.77535391
_cell_length_c   9.43008804
_cell_angle_alpha   90.00000000
_cell_angle_beta   90.00000000
_cell_angle_gamma   90.00000000
_symmetry_Int_Tables_number   1
_chemical_formula_structural   LiCuF4
_chemical_formula_sum   'Li3 Cu3 F12'
_cell_volume   215.04377443
_cell_formula_units_Z   3
loop_
 _symmetry_equiv_pos_site_id
 _symmetry_equiv_pos_as_xyz
  1  'x, y, z'
loop_
 _atom_site_type_symbol
 _atom_site_label
 _atom_site_symmetry_multiplicity
 _atom_site_fract_x
 _atom_site_fract_y
 _atom_site_fract_z
 _atom_site_occupancy
  Li  Li0  1  0.00000000  0.50000001  0.42530100  1
  Li  Li1  1  0.50000001  0.00000000  0.57469900  1
  Li  Li2  1  0.00000000  0.50000001  0.09193900  1
  Cu  Cu3  1  0.50000001  0.00000000  0.90806100  1
  Cu  Cu4  1  0.50000001  0.00000000  0.26640100  1
  Cu  Cu5  1  0.00000000  0.50000001  0.73359900  1
  F  F6  1  0.28757901  0.78757902  0.77286900  1
  F  F7  1  0.70000401  0.20000400  0.39106600  1
  F  F8  1  0.20000400  0.29999601  0.60893400  1
  F  F9  1  0.79999602  0.70000401  0.60893400  1
  F  F10  1  0.71242101  0.21242100  0.77286900  1
  F  F11  1  0.78757902  0.71242101  0.22713100  1
  F  F12  1  0.21242100  0.28757901  0.22713100  1
  F  F13  1  0.30514001  0.80514002  0.08046200  1
  F  F14  1  0.69486001  0.19486000  0.08046200  1
  F  F15  1  0.80514002  0.69486001  0.91953800  1
  F  F16  1  0.19486000  0.30514001  0.91953800  1
  F  F17  1  0.29999601  0.79999602  0.39106600  1
