# generated using pymatgen
data_LiAgI2
_symmetry_space_group_name_H-M   'P 1'
_cell_length_a   6.79963350
_cell_length_b   6.79963446
_cell_length_c   7.09483814
_cell_angle_alpha   90.00000000
_cell_angle_beta   90.00000000
_cell_angle_gamma   120.00000000
_symmetry_Int_Tables_number   1
_chemical_formula_structural   LiAgI2
_chemical_formula_sum   'Li3 Ag3 I6'
_cell_volume   284.08231272
_cell_formula_units_Z   3
loop_
 _symmetry_equiv_pos_site_id
 _symmetry_equiv_pos_as_xyz
  1  'x, y, z'
loop_
 _atom_site_type_symbol
 _atom_site_label
 _atom_site_symmetry_multiplicity
 _atom_site_fract_x
 _atom_site_fract_y
 _atom_site_fract_z
 _atom_site_occupancy
  Li  Li0  1  -0.00000002  0.66920001  0.49999999  1
  Li  Li1  1  0.66920002  0.00000000  0.49999999  1
  Li  Li2  1  0.33080000  0.33080001  0.49999999  1
  Ag  Ag3  1  -0.00000001  0.33657101  -0.00000000  1
  Ag  Ag4  1  0.33657101  0.00000000  0.99999998  1
  Ag  Ag5  1  0.66342899  0.66342901  0.99999998  1
  I  I6  1  0.33333332  0.66666668  0.74955298  1
  I  I7  1  0.33333332  0.66666668  0.25044699  1
  I  I8  1  0.66666667  0.33333334  0.25044699  1
  I  I9  1  0.66666667  0.33333334  0.74955298  1
  I  I10  1  0.00000000  0.00000000  0.24908800  1
  I  I11  1  0.00000000  0.00000000  0.75091198  1
