# generated using pymatgen
data_CaAg2
_symmetry_space_group_name_H-M   'P 1'
_cell_length_a   4.70975399
_cell_length_b   5.95717669
_cell_length_c   6.02595711
_cell_angle_alpha   79.38396454
_cell_angle_beta   66.99640656
_cell_angle_gamma   66.71526337
_symmetry_Int_Tables_number   1
_chemical_formula_structural   CaAg2
_chemical_formula_sum   'Ca2 Ag4'
_cell_volume   142.86107658
_cell_formula_units_Z   2
loop_
 _symmetry_equiv_pos_site_id
 _symmetry_equiv_pos_as_xyz
  1  'x, y, z'
loop_
 _atom_site_type_symbol
 _atom_site_label
 _atom_site_symmetry_multiplicity
 _atom_site_fract_x
 _atom_site_fract_y
 _atom_site_fract_z
 _atom_site_occupancy
  Ca  Ca0  1  0.95330002  0.29492301  0.79847699  1
  Ca  Ca1  1  0.04578505  0.70676602  0.20166394  1
  Ag  Ag2  1  0.33623705  0.72969002  0.59783594  1
  Ag  Ag3  1  0.66924801  0.26377901  0.39772499  1
  Ag  Ag4  1  0.65417606  0.90268302  0.78896493  1
  Ag  Ag5  1  0.34125301  0.10216000  0.21533400  1
