# generated using pymatgen
data_LiNiO2
_symmetry_space_group_name_H-M   'P 1'
_cell_length_a   4.30904722
_cell_length_b   5.34761763
_cell_length_c   7.79624176
_cell_angle_alpha   94.59257507
_cell_angle_beta   106.02399445
_cell_angle_gamma   113.55539703
_symmetry_Int_Tables_number   1
_chemical_formula_structural   LiNiO2
_chemical_formula_sum   'Li4 Ni4 O8'
_cell_volume   154.54236993
_cell_formula_units_Z   4
loop_
 _symmetry_equiv_pos_site_id
 _symmetry_equiv_pos_as_xyz
  1  'x, y, z'
loop_
 _atom_site_type_symbol
 _atom_site_label
 _atom_site_symmetry_multiplicity
 _atom_site_fract_x
 _atom_site_fract_y
 _atom_site_fract_z
 _atom_site_occupancy
  Li  Li0  1  0.63187298  0.37788600  0.87494896  1
  Li  Li1  1  0.13176697  0.87795999  0.37493695  1
  Li  Li2  1  0.96213995  0.94438799  0.01723295  1
  Li  Li3  1  0.46191698  0.44425700  0.51697097  1
  Ni  Ni4  1  0.20193398  0.75941500  0.73819195  1
  Ni  Ni5  1  0.70142398  0.25923700  0.23823298  1
  Ni  Ni6  1  0.38170298  0.62228800  0.12734397  1
  Ni  Ni7  1  0.88201398  0.12237500  0.62743198  1
  O  O8  1  0.37628399  0.08996600  0.63920598  1
  O  O9  1  0.87624696  0.59001300  0.13910897  1
  O  O10  1  0.16426899  0.44141500  0.85558296  1
  O  O11  1  0.66456296  0.94160399  0.35554695  1
  O  O12  1  0.77636196  0.75576700  0.74770895  1
  O  O13  1  0.27592299  0.25558100  0.24783298  1
  O  O14  1  0.50585899  0.00887300  0.99990398  1
  O  O15  1  0.00571699  0.50897200  0.49981696  1
