# generated using pymatgen
data_Nd2Al17
_symmetry_space_group_name_H-M   'P 1'
_cell_length_a   6.82047749
_cell_length_b   6.82047749
_cell_length_c   6.82047701
_cell_angle_alpha   82.60391998
_cell_angle_beta   82.60391998
_cell_angle_gamma   82.60392761
_symmetry_Int_Tables_number   1
_chemical_formula_structural   Nd2Al17
_chemical_formula_sum   'Nd2 Al17'
_cell_volume   309.98773426
_cell_formula_units_Z   1
loop_
 _symmetry_equiv_pos_site_id
 _symmetry_equiv_pos_as_xyz
  1  'x, y, z'
loop_
 _atom_site_type_symbol
 _atom_site_label
 _atom_site_symmetry_multiplicity
 _atom_site_fract_x
 _atom_site_fract_y
 _atom_site_fract_z
 _atom_site_occupancy
  Nd  Nd0  1  0.33534703  0.33534700  0.33534696  1
  Nd  Nd1  1  0.66465306  0.66465300  0.66465293  1
  Al  Al2  1  0.64904006  0.64904000  0.16126091  1
  Al  Al3  1  0.70371903  0.29628100  -0.00000007  1
  Al  Al4  1  0.00000006  0.70371900  0.29628096  1
  Al  Al5  1  0.64904002  0.16126100  0.64903997  1
  Al  Al6  1  0.35096003  0.35096000  0.83873898  1
  Al  Al7  1  0.16126106  0.64904000  0.64903996  1
  Al  Al8  1  0.29628100  0.00000000  0.70371900  1
  Al  Al9  1  0.83873904  0.35096000  0.35095993  1
  Al  Al10  1  0.35096007  0.83873900  0.35095992  1
  Al  Al11  1  0.00000000  0.00000000  0.50000002  1
  Al  Al12  1  0.29628106  0.70371900  -0.00000007  1
  Al  Al13  1  0.89999109  0.89999100  0.89999090  1
  Al  Al14  1  0.00000002  0.29628100  0.70371900  1
  Al  Al15  1  0.00000004  0.50000000  0.99999999  1
  Al  Al16  1  0.10000901  0.10000900  0.10000899  1
  Al  Al17  1  0.50000001  0.00000000  -0.00000003  1
  Al  Al18  1  0.70371901  0.00000000  0.29628096  1
