# generated using pymatgen
data_Li3Co(BO3)2
_symmetry_space_group_name_H-M   'P 1'
_cell_length_a   5.15439272
_cell_length_b   5.23722458
_cell_length_c   5.96564198
_cell_angle_alpha   65.68559265
_cell_angle_beta   66.73453522
_cell_angle_gamma   60.67470169
_symmetry_Int_Tables_number   1
_chemical_formula_structural   Li3Co(BO3)2
_chemical_formula_sum   'Li3 Co1 B2 O6'
_cell_volume   124.10421558
_cell_formula_units_Z   1
loop_
 _symmetry_equiv_pos_site_id
 _symmetry_equiv_pos_as_xyz
  1  'x, y, z'
loop_
 _atom_site_type_symbol
 _atom_site_label
 _atom_site_symmetry_multiplicity
 _atom_site_fract_x
 _atom_site_fract_y
 _atom_site_fract_z
 _atom_site_occupancy
  Li  Li0  1  0.93119898  0.62210902  0.67868599  1
  Li  Li1  1  0.06876600  0.37820701  0.32096599  1
  Li  Li2  1  0.41788599  0.74496202  0.23463800  1
  Co  Co3  1  0.58398699  0.25628401  0.76290198  1
  B  B4  1  0.26543299  0.91931002  0.74217199  1
  B  B5  1  0.73436198  0.08000800  0.25866800  1
  O  O6  1  0.26999499  0.68026402  0.68995598  1
  O  O7  1  0.72872898  0.31949301  0.31124700  1
  O  O8  1  0.51028899  0.87235202  0.82289098  1
  O  O9  1  0.48973499  0.12752200  0.17712000  1
  O  O10  1  0.02836300  0.20153501  0.70453898  1
  O  O11  1  0.97125498  0.79795602  0.29621501  1
