# generated using pymatgen
data_Li2AgO2
_symmetry_space_group_name_H-M   'P 1'
_cell_length_a   3.59128189
_cell_length_b   3.59128165
_cell_length_c   5.47157001
_cell_angle_alpha   90.00000000
_cell_angle_beta   90.00000000
_cell_angle_gamma   120.00000000
_symmetry_Int_Tables_number   1
_chemical_formula_structural   Li2AgO2
_chemical_formula_sum   'Li2 Ag1 O2'
_cell_volume   61.11411892
_cell_formula_units_Z   1
loop_
 _symmetry_equiv_pos_site_id
 _symmetry_equiv_pos_as_xyz
  1  'x, y, z'
loop_
 _atom_site_type_symbol
 _atom_site_label
 _atom_site_symmetry_multiplicity
 _atom_site_fract_x
 _atom_site_fract_y
 _atom_site_fract_z
 _atom_site_occupancy
  Li  Li0  1  0.33333330  0.66666664  0.60574900  1
  Li  Li1  1  0.66666666  0.33333332  0.39425100  1
  Ag  Ag2  1  0.00000000  0.00000000  0.00000000  1
  O  O3  1  0.33333330  0.66666664  0.22569100  1
  O  O4  1  0.66666666  0.33333332  0.77430900  1
