# generated using pymatgen
data_ZnSe
_symmetry_space_group_name_H-M   'P 1'
_cell_length_a   4.11288786
_cell_length_b   4.11288786
_cell_length_c   17.14604378
_cell_angle_alpha   83.11153412
_cell_angle_beta   83.11153412
_cell_angle_gamma   60.00000000
_symmetry_Int_Tables_number   1
_chemical_formula_structural   ZnSe
_chemical_formula_sum   'Zn5 Se5'
_cell_volume   248.76139774
_cell_formula_units_Z   5
loop_
 _symmetry_equiv_pos_site_id
 _symmetry_equiv_pos_as_xyz
  1  'x, y, z'
loop_
 _atom_site_type_symbol
 _atom_site_label
 _atom_site_symmetry_multiplicity
 _atom_site_fract_x
 _atom_site_fract_y
 _atom_site_fract_z
 _atom_site_occupancy
  Zn  Zn0  1  0.00220800  0.00220700  0.99337695  1
  Zn  Zn1  1  0.40241502  0.40241602  0.79275396  1
  Zn  Zn2  1  0.80069403  0.80069303  0.59791896  1
  Zn  Zn3  1  0.19908401  0.19908401  0.40274798  1
  Zn  Zn4  1  0.59703002  0.59703002  0.20890998  1
  Se  Se5  1  0.05351400  0.05351300  0.83945996  1
  Se  Se6  1  0.45159102  0.45159102  0.64522696  1
  Se  Se7  1  0.84991503  0.84991503  0.45025497  1
  Se  Se8  1  0.24827301  0.24827401  0.25517898  1
  Se  Se9  1  0.64527603  0.64527703  0.06417099  1
