# generated using pymatgen
data_Al4Ni3Ge
_symmetry_space_group_name_H-M   'P 1'
_cell_length_a   5.69971800
_cell_length_b   5.69971800
_cell_length_c   5.69971800
_cell_angle_alpha   90.00000000
_cell_angle_beta   90.00000000
_cell_angle_gamma   90.00000000
_symmetry_Int_Tables_number   1
_chemical_formula_structural   Al4Ni3Ge
_chemical_formula_sum   'Al8 Ni6 Ge2'
_cell_volume   185.16551467
_cell_formula_units_Z   2
loop_
 _symmetry_equiv_pos_site_id
 _symmetry_equiv_pos_as_xyz
  1  'x, y, z'
loop_
 _atom_site_type_symbol
 _atom_site_label
 _atom_site_symmetry_multiplicity
 _atom_site_fract_x
 _atom_site_fract_y
 _atom_site_fract_z
 _atom_site_occupancy
  Ni  Ni0  1  0.74999300  0.74999300  0.74999300  1
  Al  Al1  1  0.25000700  0.74999300  0.74999300  1
  Al  Al2  1  0.25000700  0.25000700  0.25000700  1
  Al  Al3  1  0.74999300  0.25000700  0.74999300  1
  Al  Al4  1  0.74999300  0.74999300  0.25000700  1
  Al  Al5  1  0.74999300  0.25000700  0.25000700  1
  Al  Al6  1  0.25000700  0.25000700  0.74999300  1
  Al  Al7  1  0.25000700  0.74999300  0.25000700  1
  Ni  Ni8  1  0.00000000  0.00000000  0.00000000  1
  Ni  Ni9  1  0.00000000  0.50000000  0.50000000  1
  Ge  Ge10  1  0.50000000  0.00000000  -0.00000000  1
  Ni  Ni11  1  0.50000000  0.50000000  -0.00000000  1
  Ni  Ni12  1  0.50000000  0.00000000  0.50000000  1
  Ge  Ge13  1  0.00000000  0.00000000  0.50000000  1
  Al  Al14  1  0.50000000  0.50000000  0.50000000  1
  Ni  Ni15  1  0.00000000  0.50000000  -0.00000000  1
