# generated using pymatgen
data_Mn2CuS4
_symmetry_space_group_name_H-M   'P 1'
_cell_length_a   7.18292522
_cell_length_b   7.18292522
_cell_length_c   7.18292522
_cell_angle_alpha   60.00000000
_cell_angle_beta   60.00000000
_cell_angle_gamma   60.00000000
_symmetry_Int_Tables_number   1
_chemical_formula_structural   Mn2CuS4
_chemical_formula_sum   'Mn4 Cu2 S8'
_cell_volume   262.05294108
_cell_formula_units_Z   2
loop_
 _symmetry_equiv_pos_site_id
 _symmetry_equiv_pos_as_xyz
  1  'x, y, z'
loop_
 _atom_site_type_symbol
 _atom_site_label
 _atom_site_symmetry_multiplicity
 _atom_site_fract_x
 _atom_site_fract_y
 _atom_site_fract_z
 _atom_site_occupancy
  Mn  Mn0  1  0.74999998  0.74999998  0.74999998  1
  Mn  Mn1  1  0.00000000  0.00000000  0.00000000  1
  Mn  Mn2  1  0.37499999  0.37499999  0.87499998  1
  Mn  Mn3  1  0.37499999  0.37499999  0.37499999  1
  Cu  Cu4  1  0.37499999  0.87499998  0.37499999  1
  Cu  Cu5  1  0.87499998  0.37499999  0.37499999  1
  S  S6  1  0.61439698  0.61439798  0.15680700  1
  S  S7  1  0.61439698  0.61439798  0.61439798  1
  S  S8  1  0.61439698  0.15680700  0.61439798  1
  S  S9  1  0.15680600  0.61439798  0.61439798  1
  S  S10  1  0.13560300  0.13560200  0.59319298  1
  S  S11  1  0.13560300  0.13560200  0.13560200  1
  S  S12  1  0.13560300  0.59319298  0.13560200  1
  S  S13  1  0.59319398  0.13560200  0.13560200  1
