# generated using pymatgen
data_Li10InAu3
_symmetry_space_group_name_H-M   'P 1'
_cell_length_a   4.72546196
_cell_length_b   4.72546196
_cell_length_c   19.62981796
_cell_angle_alpha   83.08687592
_cell_angle_beta   83.08687592
_cell_angle_gamma   60.00000000
_symmetry_Int_Tables_number   1
_chemical_formula_structural   Li10InAu3
_chemical_formula_sum   'Li10 In1 Au3'
_cell_volume   375.92380644
_cell_formula_units_Z   1
loop_
 _symmetry_equiv_pos_site_id
 _symmetry_equiv_pos_as_xyz
  1  'x, y, z'
loop_
 _atom_site_type_symbol
 _atom_site_label
 _atom_site_symmetry_multiplicity
 _atom_site_fract_x
 _atom_site_fract_y
 _atom_site_fract_z
 _atom_site_occupancy
  Li  Li0  1  0.74964097  0.74964100  0.75107699  1
  Li  Li1  1  0.14978099  0.14978100  0.55065699  1
  Li  Li2  1  0.54995598  0.54995600  0.35013200  1
  Li  Li3  1  0.95061297  0.95061300  0.14816100  1
  Li  Li4  1  0.04906500  0.04906500  0.85280498  1
  Li  Li5  1  0.44910598  0.44910600  0.65268199  1
  Li  Li6  1  0.84993397  0.84993400  0.45019800  1
  Li  Li7  1  0.24977499  0.24977500  0.25067500  1
  Li  Li8  1  0.65134498  0.65134500  0.04596500  1
  Li  Li9  1  0.60011498  0.60011500  0.19965500  1
  Au  Au10  1  0.80056197  0.80056200  0.59831399  1
  In  In11  1  0.20005099  0.20005100  0.39984699  1
  Au  Au12  1  0.00021500  0.00021500  0.99935497  1
  Au  Au13  1  0.39983999  0.39984000  0.80047998  1
