# generated using pymatgen
data_CeInPt2
_symmetry_space_group_name_H-M   'P 1'
_cell_length_a   3.88535595
_cell_length_b   4.07033396
_cell_length_c   5.52805281
_cell_angle_alpha   111.60173035
_cell_angle_beta   90.00000000
_cell_angle_gamma   90.00000000
_symmetry_Int_Tables_number   1
_chemical_formula_structural   CeInPt2
_chemical_formula_sum   'Ce1 In1 Pt2'
_cell_volume   81.28425014
_cell_formula_units_Z   1
loop_
 _symmetry_equiv_pos_site_id
 _symmetry_equiv_pos_as_xyz
  1  'x, y, z'
loop_
 _atom_site_type_symbol
 _atom_site_label
 _atom_site_symmetry_multiplicity
 _atom_site_fract_x
 _atom_site_fract_y
 _atom_site_fract_z
 _atom_site_occupancy
  Ce  Ce0  1  0.75000001  0.85579102  0.71158200  1
  In  In1  1  0.25000000  0.14420900  0.28841800  1
  Pt  Pt2  1  0.75000001  0.55589501  0.11179001  1
  Pt  Pt3  1  0.25000000  0.44410501  0.88820999  1
