# generated using pymatgen
data_MnCuO2F3
_symmetry_space_group_name_H-M   'P 1'
_cell_length_a   3.78883910
_cell_length_b   5.14379740
_cell_length_c   5.54537344
_cell_angle_alpha   90.59332275
_cell_angle_beta   98.50405884
_cell_angle_gamma   107.42632294
_symmetry_Int_Tables_number   1
_chemical_formula_structural   MnCuO2F3
_chemical_formula_sum   'Mn1 Cu1 O2 F3'
_cell_volume   101.80879317
_cell_formula_units_Z   1
loop_
 _symmetry_equiv_pos_site_id
 _symmetry_equiv_pos_as_xyz
  1  'x, y, z'
loop_
 _atom_site_type_symbol
 _atom_site_label
 _atom_site_symmetry_multiplicity
 _atom_site_fract_x
 _atom_site_fract_y
 _atom_site_fract_z
 _atom_site_occupancy
  Mn  Mn0  1  0.00000003  0.50000003  0.49999999  1
  Cu  Cu1  1  0.00000000  0.00000000  0.00000000  1
  O  O2  1  0.50000001  0.50000003  0.49999998  1
  O  O3  1  0.88303698  0.15291201  0.68060997  1
  F  F4  1  0.18102804  0.72900404  0.83528698  1
  F  F5  1  0.81897199  0.27099602  0.16471298  1
  F  F6  1  0.11696304  0.84708805  0.31939000  1
