# generated using pymatgen
data_Mn4B5(MoSe)3
_symmetry_space_group_name_H-M   'P 1'
_cell_length_a   3.15661597
_cell_length_b   3.23856592
_cell_length_c   16.45504951
_cell_angle_alpha   95.64741516
_cell_angle_beta   95.50406647
_cell_angle_gamma   90.00000000
_symmetry_Int_Tables_number   1
_chemical_formula_structural   Mn4B5(MoSe)3
_chemical_formula_sum   'Mn4 B5 Mo3 Se3'
_cell_volume   166.62260146
_cell_formula_units_Z   1
loop_
 _symmetry_equiv_pos_site_id
 _symmetry_equiv_pos_as_xyz
  1  'x, y, z'
loop_
 _atom_site_type_symbol
 _atom_site_label
 _atom_site_symmetry_multiplicity
 _atom_site_fract_x
 _atom_site_fract_y
 _atom_site_fract_z
 _atom_site_occupancy
  Mn  Mn0  1  0.00000000  0.00000000  0.00000000  1
  Mn  Mn1  1  0.41831001  0.91831002  0.83661999  1
  Mn  Mn2  1  0.58169001  0.08169000  0.16338000  1
  Mn  Mn3  1  0.28565401  0.78565402  0.57130799  1
  B  B4  1  0.71434601  0.21434601  0.42869200  1
  B  B5  1  0.85213002  0.35213001  0.70426000  1
  Mo  Mo6  1  0.14787001  0.64787002  0.29574000  1
  B  B7  1  0.52839201  0.52839201  0.05678401  1
  Mo  Mo8  1  0.05682901  0.55682901  0.11365800  1
  B  B9  1  0.94317102  0.44317101  0.88634200  1
  B  B10  1  0.47160801  0.47160801  0.94321599  1
  Se  Se11  1  0.78469201  0.28469201  0.56938400  1
  Mo  Mo12  1  0.64720101  0.14720100  0.29440200  1
  Se  Se13  1  0.21530801  0.71530802  0.43061600  1
  Se  Se14  1  0.35279901  0.85279902  0.70559799  1
