# generated using pymatgen
data_NaCa2GeO6
_symmetry_space_group_name_H-M   'P 1'
_cell_length_a   5.58444977
_cell_length_b   5.66337490
_cell_length_c   7.98758364
_cell_angle_alpha   90.00000000
_cell_angle_beta   89.93889618
_cell_angle_gamma   90.00000000
_symmetry_Int_Tables_number   1
_chemical_formula_structural   NaCa2GeO6
_chemical_formula_sum   'Na2 Ca4 Ge2 O12'
_cell_volume   252.62182732
_cell_formula_units_Z   2
loop_
 _symmetry_equiv_pos_site_id
 _symmetry_equiv_pos_as_xyz
  1  'x, y, z'
loop_
 _atom_site_type_symbol
 _atom_site_label
 _atom_site_symmetry_multiplicity
 _atom_site_fract_x
 _atom_site_fract_y
 _atom_site_fract_z
 _atom_site_occupancy
  Na  Na0  1  0.75895103  0.01894900  0.50048796  1
  Na  Na1  1  0.24104901  0.51894901  0.49951198  1
  Ca  Ca2  1  0.75011203  0.96104702  0.00015697  1
  Ca  Ca3  1  0.24988801  0.46104701  0.99984298  1
  Ca  Ca4  1  0.74712903  0.49768501  0.24096097  1
  Ca  Ca5  1  0.25287101  0.99768502  0.75903898  1
  Ge  Ge6  1  0.76045803  0.50052901  0.76669896  1
  Ge  Ge7  1  0.23954201  0.00052900  0.23330099  1
  O  O8  1  0.70994603  0.49022101  0.54301796  1
  O  O9  1  0.29005401  0.99022102  0.45698198  1
  O  O10  1  0.82967403  0.52864401  0.97859595  1
  O  O11  1  0.17032601  0.02864400  0.02140399  1
  O  O12  1  0.49761602  0.18162900  0.20159198  1
  O  O13  1  0.50238402  0.68162901  0.79840797  1
  O  O14  1  0.99078104  0.81287201  0.26020496  1
  O  O15  1  0.00921900  0.31287201  0.73979499  1
  O  O16  1  0.57811202  0.24731500  0.80043697  1
  O  O17  1  0.42188802  0.74731501  0.19956298  1
  O  O18  1  0.94050804  0.75110901  0.73076395  1
  O  O19  1  0.05949200  0.25110900  0.26923599  1
