# generated using pymatgen
data_LiMnO2
_symmetry_space_group_name_H-M   'P 1'
_cell_length_a   2.97574210
_cell_length_b   2.97574282
_cell_length_c   10.07950974
_cell_angle_alpha   90.00000000
_cell_angle_beta   90.00000000
_cell_angle_gamma   119.99999237
_symmetry_Int_Tables_number   1
_chemical_formula_structural   LiMnO2
_chemical_formula_sum   'Li2 Mn2 O4'
_cell_volume   77.29666513
_cell_formula_units_Z   2
loop_
 _symmetry_equiv_pos_site_id
 _symmetry_equiv_pos_as_xyz
  1  'x, y, z'
loop_
 _atom_site_type_symbol
 _atom_site_label
 _atom_site_symmetry_multiplicity
 _atom_site_fract_x
 _atom_site_fract_y
 _atom_site_fract_z
 _atom_site_occupancy
  Li  Li0  1  0.66666665  0.33333332  0.76004702  1
  Li  Li1  1  0.33333333  0.66666665  0.26004701  1
  Mn  Mn2  1  0.66666665  0.33333332  0.50019001  1
  Mn  Mn3  1  0.33333333  0.66666665  0.00019000  1
  O  O4  1  0.66666665  0.33333332  0.11250700  1
  O  O5  1  0.00000000  0.00000000  0.88614002  1
  O  O6  1  0.00000000  0.00000000  0.38614001  1
  O  O7  1  0.33333333  0.66666665  0.61250702  1
