# generated using pymatgen
data_Nb9(PS3)2
_symmetry_space_group_name_H-M   'P 1'
_cell_length_a   3.32769990
_cell_length_b   10.32788563
_cell_length_c   10.32788563
_cell_angle_alpha   120.00000000
_cell_angle_beta   90.00000000
_cell_angle_gamma   90.00000000
_symmetry_Int_Tables_number   1
_chemical_formula_structural   Nb9(PS3)2
_chemical_formula_sum   'Nb9 P2 S6'
_cell_volume   307.39558459
_cell_formula_units_Z   1
loop_
 _symmetry_equiv_pos_site_id
 _symmetry_equiv_pos_as_xyz
  1  'x, y, z'
loop_
 _atom_site_type_symbol
 _atom_site_label
 _atom_site_symmetry_multiplicity
 _atom_site_fract_x
 _atom_site_fract_y
 _atom_site_fract_z
 _atom_site_occupancy
  Nb  Nb0  1  -0.00000000  0.45825101  -0.00000002  1
  Nb  Nb1  1  1.00000003  0.54174901  0.54174897  1
  Nb  Nb2  1  -0.00000000  0.00000000  0.45825099  1
  Nb  Nb3  1  0.50000002  0.20167800  0.73877098  1
  Nb  Nb4  1  0.50000002  0.53709301  0.79832097  1
  Nb  Nb5  1  0.50000002  0.26122800  0.46290598  1
  Nb  Nb6  1  0.50000002  0.46290701  0.26122898  1
  Nb  Nb7  1  0.50000002  0.73877201  0.20167897  1
  Nb  Nb8  1  0.50000002  0.79832201  0.53709396  1
  P  P9  1  -0.00000000  0.33333334  0.66666664  1
  P  P10  1  -0.00000000  0.66666668  0.33333330  1
  S  S11  1  0.50000002  0.27650100  -0.00000001  1
  S  S12  1  0.50000002  0.72349901  0.72349896  1
  S  S13  1  0.50000002  0.00000000  0.27650099  1
  S  S14  1  1.00000003  0.70453501  0.99999996  1
  S  S15  1  1.00000003  0.29546501  0.29546498  1
  S  S16  1  1.00000003  0.00000000  0.70453499  1
