# generated using pymatgen
data_KLi(FeO3)2
_symmetry_space_group_name_H-M   'P 1'
_cell_length_a   3.69437003
_cell_length_b   6.40311956
_cell_length_c   6.72437000
_cell_angle_alpha   110.44458771
_cell_angle_beta   96.78058624
_cell_angle_gamma   90.93453979
_symmetry_Int_Tables_number   1
_chemical_formula_structural   KLi(FeO3)2
_chemical_formula_sum   'K1 Li1 Fe2 O6'
_cell_volume   147.72274832
_cell_formula_units_Z   1
loop_
 _symmetry_equiv_pos_site_id
 _symmetry_equiv_pos_as_xyz
  1  'x, y, z'
loop_
 _atom_site_type_symbol
 _atom_site_label
 _atom_site_symmetry_multiplicity
 _atom_site_fract_x
 _atom_site_fract_y
 _atom_site_fract_z
 _atom_site_occupancy
  K  K0  1  0.03398004  0.91717000  0.36068993  1
  Li  Li1  1  0.96332000  0.38669000  0.89244992  1
  Fe  Fe2  1  0.52275001  0.41713000  0.36585995  1
  Fe  Fe3  1  0.44302003  0.89533000  0.87147991  1
  O  O4  1  0.03686002  0.48743000  0.31333996  1
  O  O5  1  0.61784002  0.75730000  0.57330992  1
  O  O6  1  0.48269002  0.72108000  0.03285994  1
  O  O7  1  0.91692003  0.87329000  0.73623990  1
  O  O8  1  0.54177000  0.24516000  0.52834995  1
  O  O9  1  0.48925000  0.19454000  0.05571997  1
