# generated using pymatgen
data_Ho5Sn3
_symmetry_space_group_name_H-M   'P 1'
_cell_length_a   6.53047991
_cell_length_b   8.92513561
_cell_length_c   8.92513561
_cell_angle_alpha   120.00000000
_cell_angle_beta   90.00000000
_cell_angle_gamma   90.00000000
_symmetry_Int_Tables_number   1
_chemical_formula_structural   Ho5Sn3
_chemical_formula_sum   'Ho10 Sn6'
_cell_volume   450.51097637
_cell_formula_units_Z   2
loop_
 _symmetry_equiv_pos_site_id
 _symmetry_equiv_pos_as_xyz
  1  'x, y, z'
loop_
 _atom_site_type_symbol
 _atom_site_label
 _atom_site_symmetry_multiplicity
 _atom_site_fract_x
 _atom_site_fract_y
 _atom_site_fract_z
 _atom_site_occupancy
  Ho  Ho0  1  0.25000000  0.00000000  0.76257900  1
  Ho  Ho1  1  0.75000001  0.00000000  0.23742100  1
  Ho  Ho2  1  0.75000001  0.23742101  -0.00000001  1
  Ho  Ho3  1  0.25000000  0.23742101  0.23742099  1
  Ho  Ho4  1  0.25000000  0.76257902  -0.00000003  1
  Ho  Ho5  1  0.75000001  0.76257902  0.76257897  1
  Ho  Ho6  1  0.50000001  0.66666668  0.33333331  1
  Ho  Ho7  1  1.00000001  0.33333334  0.66666665  1
  Ho  Ho8  1  0.50000001  0.33333334  0.66666665  1
  Ho  Ho9  1  -0.00000000  0.66666668  0.33333331  1
  Sn  Sn10  1  0.25000000  0.60459302  0.60459298  1
  Sn  Sn11  1  0.75000001  0.60459302  -0.00000002  1
  Sn  Sn12  1  0.75000001  0.00000000  0.60459300  1
  Sn  Sn13  1  0.25000000  0.00000000  0.39540700  1
  Sn  Sn14  1  0.25000000  0.39540701  -0.00000001  1
  Sn  Sn15  1  0.75000001  0.39540701  0.39540698  1
