# generated using pymatgen
data_Li3Co2NiO6
_symmetry_space_group_name_H-M   'P 1'
_cell_length_a   2.93664193
_cell_length_b   5.87514448
_cell_length_c   6.36560345
_cell_angle_alpha   104.11348724
_cell_angle_beta   103.33621979
_cell_angle_gamma   90.00000000
_symmetry_Int_Tables_number   1
_chemical_formula_structural   Li3Co2NiO6
_chemical_formula_sum   'Li3 Co2 Ni1 O6'
_cell_volume   103.45529534
_cell_formula_units_Z   1
loop_
 _symmetry_equiv_pos_site_id
 _symmetry_equiv_pos_as_xyz
  1  'x, y, z'
loop_
 _atom_site_type_symbol
 _atom_site_label
 _atom_site_symmetry_multiplicity
 _atom_site_fract_x
 _atom_site_fract_y
 _atom_site_fract_z
 _atom_site_occupancy
  Li  Li0  1  0.50000004  0.50000000  0.00000003  1
  Li  Li1  1  0.83161303  0.16407600  0.66322604  1
  Li  Li2  1  0.16838704  0.83592400  0.33677405  1
  Ni  Ni3  1  0.50000002  0.00000000  0.00000001  1
  Co  Co4  1  0.83192306  0.66813300  0.66384606  1
  Co  Co5  1  0.16807702  0.33186700  0.33615403  1
  O  O6  1  0.33752905  0.90455300  0.67505807  1
  O  O7  1  0.67519905  0.57651000  0.35039805  1
  O  O8  1  0.66247103  0.09544700  0.32494202  1
  O  O9  1  0.01076001  0.24360700  0.02152001  1
  O  O10  1  0.98924007  0.75639300  0.97848008  1
  O  O11  1  0.32480103  0.42349000  0.64960204  1
