# generated using pymatgen
data_Zr6Ge7Rh5
_symmetry_space_group_name_H-M   'P 1'
_cell_length_a   6.33733511
_cell_length_b   7.91322374
_cell_length_c   7.91322422
_cell_angle_alpha   62.95869827
_cell_angle_beta   66.39512634
_cell_angle_gamma   66.39513397
_symmetry_Int_Tables_number   1
_chemical_formula_structural   Zr6Ge7Rh5
_chemical_formula_sum   'Zr6 Ge7 Rh5'
_cell_volume   312.07210943
_cell_formula_units_Z   1
loop_
 _symmetry_equiv_pos_site_id
 _symmetry_equiv_pos_as_xyz
  1  'x, y, z'
loop_
 _atom_site_type_symbol
 _atom_site_label
 _atom_site_symmetry_multiplicity
 _atom_site_fract_x
 _atom_site_fract_y
 _atom_site_fract_z
 _atom_site_occupancy
  Zr  Zr0  1  0.45945499  0.46920600  0.96920595  1
  Zr  Zr1  1  0.89786699  0.53079400  0.03079396  1
  Zr  Zr2  1  0.01185399  0.25049900  0.75049898  1
  Zr  Zr3  1  0.01285198  0.74950099  0.24950099  1
  Zr  Zr4  1  0.89110900  0.03431300  0.53431294  1
  Zr  Zr5  1  0.45973498  0.96568699  0.46568696  1
  Ge  Ge6  1  0.11088899  0.34504900  0.34643798  1
  Ge  Ge7  1  0.80237599  0.65495099  0.65356194  1
  Ge  Ge8  1  0.11088898  0.84643799  0.84504897  1
  Ge  Ge9  1  0.80237600  0.15356200  0.15495096  1
  Ge  Ge10  1  0.50378200  0.25303500  0.75303496  1
  Ge  Ge11  1  0.50985199  0.74696499  0.24696497  1
  Rh  Rh12  1  0.24160000  0.12587000  0.13073998  1
  Ge  Ge13  1  0.49820998  0.87412999  0.86925995  1
  Rh  Rh14  1  0.24159999  0.63073999  0.62586997  1
  Rh  Rh15  1  0.49820999  0.36926000  0.37412997  1
  Rh  Rh16  1  0.69967199  0.50000000  0.49999995  1
  Rh  Rh17  1  0.69967200  0.00000000  -0.00000003  1
