# generated using pymatgen
data_Sc2AlB2Rh5
_symmetry_space_group_name_H-M   'P 1'
_cell_length_a   2.89657497
_cell_length_b   9.44688892
_cell_length_c   9.44688892
_cell_angle_alpha   90.00000000
_cell_angle_beta   90.00000000
_cell_angle_gamma   90.00000000
_symmetry_Int_Tables_number   1
_chemical_formula_structural   Sc2AlB2Rh5
_chemical_formula_sum   'Sc4 Al2 B4 Rh10'
_cell_volume   258.50109795
_cell_formula_units_Z   2
loop_
 _symmetry_equiv_pos_site_id
 _symmetry_equiv_pos_as_xyz
  1  'x, y, z'
loop_
 _atom_site_type_symbol
 _atom_site_label
 _atom_site_symmetry_multiplicity
 _atom_site_fract_x
 _atom_site_fract_y
 _atom_site_fract_z
 _atom_site_occupancy
  Sc  Sc0  1  1.00000001  0.82346001  0.32346000  1
  Sc  Sc1  1  0.00000000  0.17654000  0.67654001  1
  Sc  Sc2  1  0.00000000  0.32346000  0.17654000  1
  Sc  Sc3  1  0.00000000  0.67654001  0.82346001  1
  Al  Al4  1  0.00000000  0.50000000  0.50000000  1
  Al  Al5  1  0.00000000  0.00000000  0.00000000  1
  B  B6  1  0.00000000  0.62638301  0.12638300  1
  B  B7  1  0.00000000  0.37361700  0.87361701  1
  B  B8  1  0.00000000  0.12638300  0.37361700  1
  B  B9  1  0.00000000  0.87361701  0.62638301  1
  Rh  Rh10  1  0.50000000  0.50000000  0.00000000  1
  Rh  Rh11  1  0.50000000  0.00000000  0.50000000  1
  Rh  Rh12  1  0.50000000  0.71433001  0.57058400  1
  Rh  Rh13  1  0.50000000  0.28567000  0.42941600  1
  Rh  Rh14  1  0.50000000  0.21433000  0.92941601  1
  Rh  Rh15  1  0.50000000  0.78567001  0.07058400  1
  Rh  Rh16  1  0.50000000  0.42941600  0.71433001  1
  Rh  Rh17  1  0.50000000  0.57058400  0.28567000  1
  Rh  Rh18  1  0.50000000  0.07058400  0.21433000  1
  Rh  Rh19  1  0.50000000  0.92941601  0.78567001  1
