# generated using pymatgen
data_Al4C3
_symmetry_space_group_name_H-M   'P 1'
_cell_length_a   3.38841367
_cell_length_b   3.38841367
_cell_length_c   16.94379997
_cell_angle_alpha   84.26142120
_cell_angle_beta   84.26142120
_cell_angle_gamma   60.00000381
_symmetry_Int_Tables_number   1
_chemical_formula_structural   Al4C3
_chemical_formula_sum   'Al8 C6'
_cell_volume   167.34785302
_cell_formula_units_Z   2
loop_
 _symmetry_equiv_pos_site_id
 _symmetry_equiv_pos_as_xyz
  1  'x, y, z'
loop_
 _atom_site_type_symbol
 _atom_site_label
 _atom_site_symmetry_multiplicity
 _atom_site_fract_x
 _atom_site_fract_y
 _atom_site_fract_z
 _atom_site_occupancy
  Al  Al0  1  0.35320701  0.35320701  0.94037900  1
  Al  Al1  1  0.85375002  0.85375003  0.43874998  1
  Al  Al2  1  0.14625000  0.14625001  0.56125000  1
  Al  Al3  1  0.64679301  0.64679302  0.05962098  1
  Al  Al4  1  0.43562001  0.43562002  0.69313999  1
  Al  Al5  1  0.93495802  0.93495803  0.19512598  1
  Al  Al6  1  0.06504200  0.06504200  0.80487400  1
  Al  Al7  1  0.56438001  0.56438002  0.30685999  1
  C  C8  1  0.50000001  0.50000002  0.49999999  1
  C  C9  1  0.39143601  0.39143601  0.82569200  1
  C  C10  1  0.89258802  0.89258803  0.32223598  1
  C  C11  1  0.10741200  0.10741200  0.67776400  1
  C  C12  1  0.60856401  0.60856402  0.17430799  1
  C  C13  1  0.00000000  0.00000000  0.00000000  1
