# generated using pymatgen
data_NaNbMoS6
_symmetry_space_group_name_H-M   'P 1'
_cell_length_a   7.28276253
_cell_length_b   7.39876556
_cell_length_c   7.39876556
_cell_angle_alpha   60.25249100
_cell_angle_beta   81.18604279
_cell_angle_gamma   98.81395721
_symmetry_Int_Tables_number   1
_chemical_formula_structural   NaNbMoS6
_chemical_formula_sum   'Na2 Nb2 Mo2 S12'
_cell_volume   329.60980537
_cell_formula_units_Z   2
loop_
 _symmetry_equiv_pos_site_id
 _symmetry_equiv_pos_as_xyz
  1  'x, y, z'
loop_
 _atom_site_type_symbol
 _atom_site_label
 _atom_site_symmetry_multiplicity
 _atom_site_fract_x
 _atom_site_fract_y
 _atom_site_fract_z
 _atom_site_occupancy
  Na  Na0  1  0.74999995  0.91450296  0.91450301  1
  Na  Na1  1  0.74999998  0.24269199  0.24269202  1
  Nb  Nb2  1  0.24999999  0.08549700  0.08549701  1
  Nb  Nb3  1  0.24999996  0.75730797  0.75730800  1
  Mo  Mo4  1  0.74999997  0.58428497  0.58428502  1
  Mo  Mo5  1  0.24999998  0.41571498  0.41571500  1
  S  S6  1  0.63547798  0.25553199  0.89713700  1
  S  S7  1  0.62731395  0.83163096  0.62205102  1
  S  S8  1  0.36452196  0.74446797  0.10286302  1
  S  S9  1  0.10777597  0.66569197  0.47532100  1
  S  S10  1  0.39222397  0.47532098  0.66569200  1
  S  S11  1  0.60777597  0.52467898  0.33430802  1
  S  S12  1  0.12731398  0.37794898  0.16836901  1
  S  S13  1  0.89222398  0.33430798  0.52467902  1
  S  S14  1  0.37268599  0.16836899  0.37794900  1
  S  S15  1  0.13547799  0.10286300  0.74446799  1
  S  S16  1  0.86452195  0.89713696  0.25553204  1
  S  S17  1  0.87268596  0.62205097  0.83163101  1
