# generated using pymatgen
data_Li8FeO10
_symmetry_space_group_name_H-M   'P 1'
_cell_length_a   5.04246521
_cell_length_b   5.09474134
_cell_length_c   7.65732145
_cell_angle_alpha   101.48647308
_cell_angle_beta   108.84992218
_cell_angle_gamma   100.97489166
_symmetry_Int_Tables_number   1
_chemical_formula_structural   Li8FeO10
_chemical_formula_sum   'Li8 Fe1 O10'
_cell_volume   175.42211957
_cell_formula_units_Z   1
loop_
 _symmetry_equiv_pos_site_id
 _symmetry_equiv_pos_as_xyz
  1  'x, y, z'
loop_
 _atom_site_type_symbol
 _atom_site_label
 _atom_site_symmetry_multiplicity
 _atom_site_fract_x
 _atom_site_fract_y
 _atom_site_fract_z
 _atom_site_occupancy
  Li  Li0  1  0.08329996  0.76943098  0.59043602  1
  Li  Li1  1  0.69920095  0.60479699  0.21932201  1
  Li  Li2  1  0.30079897  0.39520299  0.78067802  1
  Li  Li3  1  0.91669995  0.23056900  0.40956401  1
  Li  Li4  1  0.30172995  0.90150198  0.30797701  1
  Li  Li5  1  0.69826997  0.09849800  0.69202301  1
  Li  Li6  1  0.49999998  0.00000000  0.00000000  1
  Li  Li7  1  0.89340993  0.69614799  0.89681302  1
  Fe  Fe8  1  0.10658998  0.30385199  0.10318700  1
  O  O9  1  0.91873692  0.94720498  0.15127401  1
  O  O10  1  0.68460193  0.88711098  0.45425202  1
  O  O11  1  0.29911996  0.67859999  0.06033001  1
  O  O12  1  0.51876395  0.78229698  0.77203002  1
  O  O13  1  0.09991597  0.56708599  0.33125001  1
  O  O14  1  0.90008395  0.43291399  0.66875002  1
  O  O15  1  0.48123597  0.21770300  0.22797001  1
  O  O16  1  0.70087996  0.32139999  0.93967002  1
  O  O17  1  0.31539798  0.11288900  0.54574801  1
  O  O18  1  0.08126299  0.05279500  0.84872601  1
