# generated using pymatgen
data_Sm2InGe2
_symmetry_space_group_name_H-M   'P 1'
_cell_length_a   3.81913400
_cell_length_b   7.58969593
_cell_length_c   7.82429695
_cell_angle_alpha   90.00000000
_cell_angle_beta   90.00000000
_cell_angle_gamma   90.00000000
_symmetry_Int_Tables_number   1
_chemical_formula_structural   Sm2InGe2
_chemical_formula_sum   'Sm4 In2 Ge4'
_cell_volume   226.79558591
_cell_formula_units_Z   2
loop_
 _symmetry_equiv_pos_site_id
 _symmetry_equiv_pos_as_xyz
  1  'x, y, z'
loop_
 _atom_site_type_symbol
 _atom_site_label
 _atom_site_symmetry_multiplicity
 _atom_site_fract_x
 _atom_site_fract_y
 _atom_site_fract_z
 _atom_site_occupancy
  Sm  Sm0  1  0.50000000  0.66859201  0.81996501  1
  Sm  Sm1  1  0.50000000  0.33140800  0.18003500  1
  Sm  Sm2  1  0.50000000  0.83140801  0.31996500  1
  Sm  Sm3  1  0.50000000  0.16859200  0.68003500  1
  In  In4  1  0.00000000  0.50000000  0.50000000  1
  In  In5  1  0.00000000  0.00000000  0.00000000  1
  Ge  Ge6  1  0.00000000  0.13773400  0.39627200  1
  Ge  Ge7  1  0.00000000  0.86226601  0.60372800  1
  Ge  Ge8  1  0.00000000  0.36226600  0.89627201  1
  Ge  Ge9  1  0.00000000  0.63773401  0.10372800  1
