# generated using pymatgen
data_Mg5In
_symmetry_space_group_name_H-M   'P 1'
_cell_length_a   3.23637605
_cell_length_b   5.19069290
_cell_length_c   8.44828224
_cell_angle_alpha   90.00000000
_cell_angle_beta   101.04270172
_cell_angle_gamma   90.00000000
_symmetry_Int_Tables_number   1
_chemical_formula_structural   Mg5In
_chemical_formula_sum   'Mg5 In1'
_cell_volume   139.29523602
_cell_formula_units_Z   1
loop_
 _symmetry_equiv_pos_site_id
 _symmetry_equiv_pos_as_xyz
  1  'x, y, z'
loop_
 _atom_site_type_symbol
 _atom_site_label
 _atom_site_symmetry_multiplicity
 _atom_site_fract_x
 _atom_site_fract_y
 _atom_site_fract_z
 _atom_site_occupancy
  Mg  Mg0  1  0.99783200  0.00000000  0.99566404  1
  Mg  Mg1  1  0.33207700  0.00000000  0.66415402  1
  Mg  Mg2  1  0.66787600  0.00000000  0.33575202  1
  Mg  Mg3  1  0.44418100  0.50000001  0.88836202  1
  Mg  Mg4  1  0.11119800  0.50000001  0.22239601  1
  In  In5  1  0.78016900  0.50000001  0.56033803  1
