# generated using pymatgen
data_NdCu3
_symmetry_space_group_name_H-M   'P 1'
_cell_length_a   4.45191002
_cell_length_b   6.43755579
_cell_length_c   6.43755579
_cell_angle_alpha   120.00000000
_cell_angle_beta   90.00000000
_cell_angle_gamma   90.00000000
_symmetry_Int_Tables_number   1
_chemical_formula_structural   NdCu3
_chemical_formula_sum   'Nd2 Cu6'
_cell_volume   159.77875072
_cell_formula_units_Z   2
loop_
 _symmetry_equiv_pos_site_id
 _symmetry_equiv_pos_as_xyz
  1  'x, y, z'
loop_
 _atom_site_type_symbol
 _atom_site_label
 _atom_site_symmetry_multiplicity
 _atom_site_fract_x
 _atom_site_fract_y
 _atom_site_fract_z
 _atom_site_occupancy
  Nd  Nd0  1  0.25000000  0.66666669  0.33333334  1
  Nd  Nd1  1  0.75000000  0.33333334  0.66666668  1
  Cu  Cu2  1  0.75000000  0.85374503  0.14625400  1
  Cu  Cu3  1  0.75000000  0.29250901  0.14625400  1
  Cu  Cu4  1  0.75000000  0.85374503  0.70749002  1
  Cu  Cu5  1  0.25000000  0.14625500  0.85374602  1
  Cu  Cu6  1  0.25000000  0.70749102  0.85374602  1
  Cu  Cu7  1  0.25000000  0.14625500  0.29251001  1
