# generated using pymatgen
data_Li2B3F8
_symmetry_space_group_name_H-M   'P 1'
_cell_length_a   4.29791594
_cell_length_b   4.29791546
_cell_length_c   7.76502895
_cell_angle_alpha   90.00000000
_cell_angle_beta   90.00000000
_cell_angle_gamma   120.00000000
_symmetry_Int_Tables_number   1
_chemical_formula_structural   Li2B3F8
_chemical_formula_sum   'Li2 B3 F8'
_cell_volume   124.21941978
_cell_formula_units_Z   1
loop_
 _symmetry_equiv_pos_site_id
 _symmetry_equiv_pos_as_xyz
  1  'x, y, z'
loop_
 _atom_site_type_symbol
 _atom_site_label
 _atom_site_symmetry_multiplicity
 _atom_site_fract_x
 _atom_site_fract_y
 _atom_site_fract_z
 _atom_site_occupancy
  Li  Li0  1  0.00000000  0.00000000  0.00000000  1
  Li  Li1  1  0.33333334  0.00000000  0.24376900  1
  B  B2  1  0.66666664  0.66666667  0.24376900  1
  B  B3  1  1.00000000  0.33333334  0.24376900  1
  F  F4  1  0.66666668  0.00000000  0.24376900  1
  B  B5  1  0.33333332  0.33333334  0.24376900  1
  F  F6  1  0.99999998  0.66666667  0.24376900  1
  F  F7  1  0.66666668  0.00000000  0.75623100  1
  F  F8  1  0.33333332  0.33333334  0.75623100  1
  F  F9  1  0.99999998  0.66666667  0.75623100  1
  F  F10  1  0.33333334  0.00000000  0.75623100  1
  F  F11  1  0.66666664  0.66666667  0.75623100  1
  F  F12  1  1.00000000  0.33333334  0.75623100  1
