# generated using pymatgen
data_CuF3
_symmetry_space_group_name_H-M   'P 1'
_cell_length_a   5.26291943
_cell_length_b   5.45788288
_cell_length_c   5.61679411
_cell_angle_alpha   63.42136383
_cell_angle_beta   89.59002686
_cell_angle_gamma   61.30407333
_symmetry_Int_Tables_number   1
_chemical_formula_structural   CuF3
_chemical_formula_sum   'Cu2 F6'
_cell_volume   122.05154240
_cell_formula_units_Z   2
loop_
 _symmetry_equiv_pos_site_id
 _symmetry_equiv_pos_as_xyz
  1  'x, y, z'
loop_
 _atom_site_type_symbol
 _atom_site_label
 _atom_site_symmetry_multiplicity
 _atom_site_fract_x
 _atom_site_fract_y
 _atom_site_fract_z
 _atom_site_occupancy
  Cu  Cu0  1  0.50000000  1.00000002  0.50000002  1
  Cu  Cu1  1  0.00000000  0.00000000  0.00000000  1
  F  F2  1  0.57693201  0.58576101  0.70906903  1
  F  F3  1  0.42306801  0.41423901  0.29093102  1
  F  F4  1  0.74306801  0.86819502  0.27262403  1
  F  F5  1  0.25693201  0.13180500  0.72737602  1
  F  F6  1  0.15072800  0.12391600  0.25879601  1
  F  F7  1  0.84927202  0.87608402  0.74120404  1
