# generated using pymatgen
data_Nd3In(SnPt)3
_symmetry_space_group_name_H-M   'P 1'
_cell_length_a   8.71379566
_cell_length_b   8.71379566
_cell_length_c   8.71379566
_cell_angle_alpha   109.47122192
_cell_angle_beta   109.47122192
_cell_angle_gamma   109.47122192
_symmetry_Int_Tables_number   1
_chemical_formula_structural   Nd3In(SnPt)3
_chemical_formula_sum   'Nd6 In2 Sn6 Pt6'
_cell_volume   509.33110927
_cell_formula_units_Z   2
loop_
 _symmetry_equiv_pos_site_id
 _symmetry_equiv_pos_as_xyz
  1  'x, y, z'
loop_
 _atom_site_type_symbol
 _atom_site_label
 _atom_site_symmetry_multiplicity
 _atom_site_fract_x
 _atom_site_fract_y
 _atom_site_fract_z
 _atom_site_occupancy
  Nd  Nd0  1  0.75000001  0.62499999  0.87500001  1
  Nd  Nd1  1  0.25000004  0.87499999  0.62500002  1
  Nd  Nd2  1  0.87499997  0.12500000  0.74999999  1
  Nd  Nd3  1  0.62500000  0.37499999  0.25000002  1
  Nd  Nd4  1  0.12500001  0.25000000  0.37500000  1
  Nd  Nd5  1  0.37500003  0.74999999  0.12500004  1
  In  In6  1  0.67535003  0.99999999  1.00000002  1
  In  In7  1  0.00000003  0.49999999  0.17535002  1
  Sn  Sn8  1  0.50000002  0.67534999  0.50000002  1
  Sn  Sn9  1  0.17535006  0.99999999  1.00000001  1
  Sn  Sn10  1  0.82465001  0.82464999  0.32465005  1
  Sn  Sn11  1  0.00000003  0.49999999  0.67534999  1
  Sn  Sn12  1  0.32465001  0.32465000  0.82464998  1
  Sn  Sn13  1  0.49999999  0.17535000  0.49999999  1
  Pt  Pt14  1  0.74999997  0.12500000  0.37500000  1
  Pt  Pt15  1  0.25000001  0.37499999  0.12500002  1
  Pt  Pt16  1  0.37500002  0.62499999  0.75000000  1
  Pt  Pt17  1  0.12500005  0.87499999  0.25000004  1
  Pt  Pt18  1  0.62499999  0.25000000  0.87499998  1
  Pt  Pt19  1  0.87500001  0.74999999  0.62500003  1
