# generated using pymatgen
data_MnO2
_symmetry_space_group_name_H-M   'P 1'
_cell_length_a   5.84895611
_cell_length_b   5.84895611
_cell_length_c   5.87190199
_cell_angle_alpha   60.12918091
_cell_angle_beta   60.12918091
_cell_angle_gamma   59.99999619
_symmetry_Int_Tables_number   1
_chemical_formula_structural   MnO2
_chemical_formula_sum   'Mn4 O8'
_cell_volume   142.31993874
_cell_formula_units_Z   4
loop_
 _symmetry_equiv_pos_site_id
 _symmetry_equiv_pos_as_xyz
  1  'x, y, z'
loop_
 _atom_site_type_symbol
 _atom_site_label
 _atom_site_symmetry_multiplicity
 _atom_site_fract_x
 _atom_site_fract_y
 _atom_site_fract_z
 _atom_site_occupancy
  Mn  Mn0  1  0.50000001  0.00000000  -0.00000001  1
  Mn  Mn1  1  -0.00000001  0.50000002  -0.00000001  1
  Mn  Mn2  1  0.50000000  0.50000002  -0.00000002  1
  Mn  Mn3  1  0.00000000  0.00000000  0.00000000  1
  O  O4  1  0.26753900  0.26753901  0.19738299  1
  O  O5  1  0.76656202  0.26968301  0.19719298  1
  O  O6  1  0.26968299  0.76656202  0.19719298  1
  O  O7  1  0.73246101  0.73246102  0.80261698  1
  O  O8  1  0.76656201  0.76656202  0.19719297  1
  O  O9  1  0.23343799  0.73031702  0.80280700  1
  O  O10  1  0.73031701  0.23343801  0.80280699  1
  O  O11  1  0.23343800  0.23343801  0.80280700  1
