# generated using pymatgen
data_K2Bi
_symmetry_space_group_name_H-M   'P 1'
_cell_length_a   5.38214397
_cell_length_b   5.38214397
_cell_length_c   10.39129925
_cell_angle_alpha   105.00917053
_cell_angle_beta   105.00917053
_cell_angle_gamma   90.00000000
_symmetry_Int_Tables_number   1
_chemical_formula_structural   K2Bi
_chemical_formula_sum   'K4 Bi2'
_cell_volume   280.09518466
_cell_formula_units_Z   2
loop_
 _symmetry_equiv_pos_site_id
 _symmetry_equiv_pos_as_xyz
  1  'x, y, z'
loop_
 _atom_site_type_symbol
 _atom_site_label
 _atom_site_symmetry_multiplicity
 _atom_site_fract_x
 _atom_site_fract_y
 _atom_site_fract_z
 _atom_site_occupancy
  K  K0  1  0.00000002  0.50000001  0.00000002  1
  K  K1  1  0.67968604  0.67968602  0.35937205  1
  K  K2  1  0.32031402  0.32031401  0.64062802  1
  K  K3  1  0.50000001  0.00000000  0.00000002  1
  Bi  Bi4  1  0.86589905  0.86589902  0.73179806  1
  Bi  Bi5  1  0.13410101  0.13410100  0.26820201  1
