# generated using pymatgen
data_K2SnBr6
_symmetry_space_group_name_H-M   'P 1'
_cell_length_a   7.75894594
_cell_length_b   7.75894594
_cell_length_c   12.04298115
_cell_angle_alpha   90.00000000
_cell_angle_beta   90.00000000
_cell_angle_gamma   90.00000000
_symmetry_Int_Tables_number   1
_chemical_formula_structural   K2SnBr6
_chemical_formula_sum   'K4 Sn2 Br12'
_cell_volume   725.00242404
_cell_formula_units_Z   2
loop_
 _symmetry_equiv_pos_site_id
 _symmetry_equiv_pos_as_xyz
  1  'x, y, z'
loop_
 _atom_site_type_symbol
 _atom_site_label
 _atom_site_symmetry_multiplicity
 _atom_site_fract_x
 _atom_site_fract_y
 _atom_site_fract_z
 _atom_site_occupancy
  K  K0  1  0.50000000  0.00000000  0.74999999  1
  K  K1  1  -0.00000000  0.50000000  0.74999999  1
  K  K2  1  0.50000000  0.00000000  0.25000000  1
  K  K3  1  -0.00000000  0.50000000  0.25000000  1
  Sn  Sn4  1  0.50000000  0.50000000  0.49999999  1
  Sn  Sn5  1  0.00000000  0.00000000  0.00000000  1
  Br  Br6  1  0.70844101  0.19420600  0.00000000  1
  Br  Br7  1  0.69420601  0.20844100  0.49999999  1
  Br  Br8  1  0.30579400  0.79155901  0.49999999  1
  Br  Br9  1  0.29155900  0.80579401  0.00000000  1
  Br  Br10  1  0.79155901  0.69420601  0.49999999  1
  Br  Br11  1  0.20844100  0.30579400  0.49999999  1
  Br  Br12  1  0.00000000  0.00000000  0.22510700  1
  Br  Br13  1  0.50000000  0.50000000  0.27489300  1
  Br  Br14  1  0.00000000  0.00000000  0.77489299  1
  Br  Br15  1  0.50000000  0.50000000  0.72510699  1
  Br  Br16  1  0.80579401  0.70844101  0.00000000  1
  Br  Br17  1  0.19420600  0.29155900  0.00000000  1
