# generated using pymatgen
data_HoNiO3
_symmetry_space_group_name_H-M   'P 1'
_cell_length_a   5.16495419
_cell_length_b   5.65932512
_cell_length_c   7.37332296
_cell_angle_alpha   90.00000000
_cell_angle_beta   90.00000000
_cell_angle_gamma   90.00000000
_symmetry_Int_Tables_number   1
_chemical_formula_structural   HoNiO3
_chemical_formula_sum   'Ho4 Ni4 O12'
_cell_volume   215.52337295
_cell_formula_units_Z   4
loop_
 _symmetry_equiv_pos_site_id
 _symmetry_equiv_pos_as_xyz
  1  'x, y, z'
loop_
 _atom_site_type_symbol
 _atom_site_label
 _atom_site_symmetry_multiplicity
 _atom_site_fract_x
 _atom_site_fract_y
 _atom_site_fract_z
 _atom_site_occupancy
  Ho  Ho0  1  0.47637198  0.41591199  0.75000000  1
  Ho  Ho1  1  0.02362800  0.91591198  0.75000000  1
  Ho  Ho2  1  0.52362798  0.58408799  0.25000000  1
  Ho  Ho3  1  0.97637196  0.08408800  0.25000000  1
  Ni  Ni4  1  -0.00000000  0.49999999  -0.00000000  1
  Ni  Ni5  1  0.49999998  0.00000000  0.50000000  1
  Ni  Ni6  1  -0.00000000  0.49999999  0.50000000  1
  Ni  Ni7  1  0.49999998  0.00000000  0.00000000  1
  O  O8  1  0.69561798  0.31396199  0.44607100  1
  O  O9  1  0.80438197  0.81396198  0.05392900  1
  O  O10  1  0.30438199  0.68603799  0.55392900  1
  O  O11  1  0.19561799  0.18603800  0.94607100  1
  O  O12  1  0.19561799  0.18603800  0.55392900  1
  O  O13  1  0.30438199  0.68603799  0.94607100  1
  O  O14  1  0.80438197  0.81396198  0.44607100  1
  O  O15  1  0.69561798  0.31396199  0.05392900  1
  O  O16  1  0.11199000  0.46548799  0.25000000  1
  O  O17  1  0.38800999  0.96548798  0.25000000  1
  O  O18  1  0.88800997  0.53451199  0.75000000  1
  O  O19  1  0.61198998  0.03451200  0.75000000  1
