# generated using pymatgen
data_Mg3AlAs2
_symmetry_space_group_name_H-M   'P 1'
_cell_length_a   3.60626793
_cell_length_b   6.31464815
_cell_length_c   6.31464815
_cell_angle_alpha   90.00000000
_cell_angle_beta   90.00000000
_cell_angle_gamma   90.00000000
_symmetry_Int_Tables_number   1
_chemical_formula_structural   Mg3AlAs2
_chemical_formula_sum   'Mg3 Al1 As2'
_cell_volume   143.79914489
_cell_formula_units_Z   1
loop_
 _symmetry_equiv_pos_site_id
 _symmetry_equiv_pos_as_xyz
  1  'x, y, z'
loop_
 _atom_site_type_symbol
 _atom_site_label
 _atom_site_symmetry_multiplicity
 _atom_site_fract_x
 _atom_site_fract_y
 _atom_site_fract_z
 _atom_site_occupancy
  Al  Al0  1  0.00000000  0.30756399  0.30756399  1
  Mg  Mg1  1  0.00000000  0.69243598  0.69243598  1
  Mg  Mg2  1  0.50000001  0.19243600  0.80756398  1
  Mg  Mg3  1  0.50000001  0.80756398  0.19243600  1
  As  As4  1  0.00000000  0.00000000  0.00000000  1
  As  As5  1  0.50000001  0.49999999  0.49999999  1
