# generated using pymatgen
data_CeGa3Au
_symmetry_space_group_name_H-M   'P 1'
_cell_length_a   4.36279917
_cell_length_b   4.36279917
_cell_length_c   10.94046116
_cell_angle_alpha   90.00000000
_cell_angle_beta   90.00000000
_cell_angle_gamma   90.00000000
_symmetry_Int_Tables_number   1
_chemical_formula_structural   CeGa3Au
_chemical_formula_sum   'Ce2 Ga6 Au2'
_cell_volume   208.24091906
_cell_formula_units_Z   2
loop_
 _symmetry_equiv_pos_site_id
 _symmetry_equiv_pos_as_xyz
  1  'x, y, z'
loop_
 _atom_site_type_symbol
 _atom_site_label
 _atom_site_symmetry_multiplicity
 _atom_site_fract_x
 _atom_site_fract_y
 _atom_site_fract_z
 _atom_site_occupancy
  Ce  Ce0  1  0.49999998  0.00000000  0.74893599  1
  Ce  Ce1  1  0.00000000  0.49999998  0.25106400  1
  Ga  Ga2  1  0.00000000  0.49999998  0.86443199  1
  Ga  Ga3  1  0.49999998  0.00000000  0.36405799  1
  Ga  Ga4  1  0.49999998  0.00000000  0.13556800  1
  Ga  Ga5  1  0.00000000  0.49999998  0.63594199  1
  Ga  Ga6  1  0.00000000  0.00000000  0.49999999  1
  Ga  Ga7  1  0.00000000  0.00000000  0.00000000  1
  Au  Au8  1  0.49999998  0.49999998  0.49999999  1
  Au  Au9  1  0.49999998  0.49999998  0.00000000  1
