# generated using pymatgen
data_Li8FeO10
_symmetry_space_group_name_H-M   'P 1'
_cell_length_a   4.99281502
_cell_length_b   5.05357122
_cell_length_c   7.58081055
_cell_angle_alpha   101.69934082
_cell_angle_beta   108.80538177
_cell_angle_gamma   100.99190521
_symmetry_Int_Tables_number   1
_chemical_formula_structural   Li8FeO10
_chemical_formula_sum   'Li8 Fe1 O10'
_cell_volume   170.40577342
_cell_formula_units_Z   1
loop_
 _symmetry_equiv_pos_site_id
 _symmetry_equiv_pos_as_xyz
  1  'x, y, z'
loop_
 _atom_site_type_symbol
 _atom_site_label
 _atom_site_symmetry_multiplicity
 _atom_site_fract_x
 _atom_site_fract_y
 _atom_site_fract_z
 _atom_site_occupancy
  Li  Li0  1  0.69466500  0.60967999  0.21967100  1
  Li  Li1  1  0.09015399  0.77410498  0.59218498  1
  Li  Li2  1  0.90984600  0.22589499  0.40781501  1
  Li  Li3  1  0.30533500  0.39031999  0.78032899  1
  Li  Li4  1  0.30558599  0.89677198  0.30909998  1
  Li  Li5  1  0.69441400  0.10322800  0.69090001  1
  Li  Li6  1  0.50000000  0.00000000  0.00000001  1
  Li  Li7  1  0.10416300  0.30430699  0.10378799  1
  Fe  Fe8  1  0.89583700  0.69569298  0.89621199  1
  O  O9  1  0.92129600  0.94690798  0.15205799  1
  O  O10  1  0.67513899  0.88819098  0.45143699  1
  O  O11  1  0.29906799  0.67597498  0.06158799  1
  O  O12  1  0.52315899  0.78655298  0.76887798  1
  O  O13  1  0.09999299  0.57463999  0.33181098  1
  O  O14  1  0.90000700  0.42535999  0.66818900  1
  O  O15  1  0.47684100  0.21344700  0.23112200  1
  O  O16  1  0.70093200  0.32402499  0.93841200  1
  O  O17  1  0.32486100  0.11180900  0.54856300  1
  O  O18  1  0.07870400  0.05309200  0.84794199  1
