# generated using pymatgen
data_Ce2GaNi3
_symmetry_space_group_name_H-M   'P 1'
_cell_length_a   5.21311951
_cell_length_b   5.21311951
_cell_length_c   5.21311951
_cell_angle_alpha   61.00933075
_cell_angle_beta   61.00933075
_cell_angle_gamma   61.00933838
_symmetry_Int_Tables_number   1
_chemical_formula_structural   Ce2GaNi3
_chemical_formula_sum   'Ce2 Ga1 Ni3'
_cell_volume   102.45675535
_cell_formula_units_Z   1
loop_
 _symmetry_equiv_pos_site_id
 _symmetry_equiv_pos_as_xyz
  1  'x, y, z'
loop_
 _atom_site_type_symbol
 _atom_site_label
 _atom_site_symmetry_multiplicity
 _atom_site_fract_x
 _atom_site_fract_y
 _atom_site_fract_z
 _atom_site_occupancy
  Ce  Ce0  1  0.37514301  0.37514298  0.37514297  1
  Ce  Ce1  1  0.62485701  0.62485697  0.62485695  1
  Ni  Ni2  1  0.49999998  0.00000000  -0.00000001  1
  Ni  Ni3  1  0.00000003  0.49999998  -0.00000002  1
  Ni  Ni4  1  0.00000000  0.00000000  0.49999998  1
  Ga  Ga5  1  0.00000000  0.00000000  0.00000000  1
