# generated using pymatgen
data_Nd2S3
_symmetry_space_group_name_H-M   'P 1'
_cell_length_a   4.16067410
_cell_length_b   7.61656618
_cell_length_c   15.88406372
_cell_angle_alpha   90.00000000
_cell_angle_beta   90.00000000
_cell_angle_gamma   90.00000000
_symmetry_Int_Tables_number   1
_chemical_formula_structural   Nd2S3
_chemical_formula_sum   'Nd8 S12'
_cell_volume   503.36676722
_cell_formula_units_Z   4
loop_
 _symmetry_equiv_pos_site_id
 _symmetry_equiv_pos_as_xyz
  1  'x, y, z'
loop_
 _atom_site_type_symbol
 _atom_site_label
 _atom_site_symmetry_multiplicity
 _atom_site_fract_x
 _atom_site_fract_y
 _atom_site_fract_z
 _atom_site_occupancy
  Nd  Nd0  1  0.24999999  0.14662600  0.79498401  1
  Nd  Nd1  1  0.74999998  0.85337398  0.20501600  1
  Nd  Nd2  1  0.24999999  0.64662598  0.70501601  1
  Nd  Nd3  1  0.74999998  0.35337399  0.29498401  1
  Nd  Nd4  1  0.24999999  0.76397598  0.45606801  1
  Nd  Nd5  1  0.74999998  0.23602399  0.54393201  1
  Nd  Nd6  1  0.24999999  0.26397599  0.04393200  1
  Nd  Nd7  1  0.74999998  0.73602398  0.95606802  1
  S  S8  1  0.24999999  0.37122699  0.43263901  1
  S  S9  1  0.74999998  0.62877299  0.56736101  1
  S  S10  1  0.24999999  0.87122698  0.06736100  1
  S  S11  1  0.74999998  0.12877300  0.93263902  1
  S  S12  1  0.24999999  0.14522900  0.21959200  1
  S  S13  1  0.74999998  0.85477098  0.78040801  1
  S  S14  1  0.24999999  0.64522898  0.28040800  1
  S  S15  1  0.74999998  0.35477099  0.71959201  1
  S  S16  1  0.74999998  0.48812699  0.10944600  1
  S  S17  1  0.24999999  0.51187299  0.89055402  1
  S  S18  1  0.74999998  0.98812698  0.39055401  1
  S  S19  1  0.24999999  0.01187300  0.60944601  1
