# generated using pymatgen
data_MnOF2
_symmetry_space_group_name_H-M   'P 1'
_cell_length_a   4.81007290
_cell_length_b   4.82904291
_cell_length_c   9.19108486
_cell_angle_alpha   90.00000000
_cell_angle_beta   93.54532623
_cell_angle_gamma   90.00000000
_symmetry_Int_Tables_number   1
_chemical_formula_structural   MnOF2
_chemical_formula_sum   'Mn4 O4 F8'
_cell_volume   213.08238344
_cell_formula_units_Z   4
loop_
 _symmetry_equiv_pos_site_id
 _symmetry_equiv_pos_as_xyz
  1  'x, y, z'
loop_
 _atom_site_type_symbol
 _atom_site_label
 _atom_site_symmetry_multiplicity
 _atom_site_fract_x
 _atom_site_fract_y
 _atom_site_fract_z
 _atom_site_occupancy
  Mn  Mn0  1  0.50273701  0.50300801  0.82751702  1
  Mn  Mn1  1  0.99726302  0.00300800  0.67248304  1
  Mn  Mn2  1  0.00273700  0.99699202  0.32751700  1
  Mn  Mn3  1  0.49726301  0.49699201  0.17248302  1
  O  O4  1  0.68662402  0.32036501  0.98475003  1
  O  O5  1  0.77978102  0.77536301  0.82686203  1
  O  O6  1  0.21894301  0.21050400  0.81529601  1
  O  O7  1  0.28105701  0.71050401  0.68470402  1
  F  F8  1  0.72021902  0.27536301  0.67313803  1
  F  F9  1  0.81337602  0.82036502  0.51525003  1
  F  F10  1  0.18662400  0.17963500  0.48475001  1
  F  F11  1  0.27978101  0.72463701  0.32686201  1
  F  F12  1  0.71894302  0.28949601  0.31529603  1
  F  F13  1  0.78105702  0.78949601  0.18470403  1
  F  F14  1  0.22021901  0.22463700  0.17313801  1
  F  F15  1  0.31337601  0.67963501  0.01525001  1
