# generated using pymatgen
data_Ti2Sb
_symmetry_space_group_name_H-M   'P 1'
_cell_length_a   4.36103773
_cell_length_b   4.36103773
_cell_length_c   7.56589556
_cell_angle_alpha   73.24955750
_cell_angle_beta   73.24955750
_cell_angle_gamma   60.00000763
_symmetry_Int_Tables_number   1
_chemical_formula_structural   Ti2Sb
_chemical_formula_sum   'Ti4 Sb2'
_cell_volume   117.51221271
_cell_formula_units_Z   2
loop_
 _symmetry_equiv_pos_site_id
 _symmetry_equiv_pos_as_xyz
  1  'x, y, z'
loop_
 _atom_site_type_symbol
 _atom_site_label
 _atom_site_symmetry_multiplicity
 _atom_site_fract_x
 _atom_site_fract_y
 _atom_site_fract_z
 _atom_site_occupancy
  Ti  Ti0  1  0.37419899  0.37419898  0.87740297  1
  Ti  Ti1  1  0.87564499  0.87564496  0.37306496  1
  Ti  Ti2  1  0.00070800  0.00070800  0.99787598  1
  Ti  Ti3  1  0.49922799  0.49922798  0.50231597  1
  Sb  Sb4  1  0.12536500  0.12536499  0.62390498  1
  Sb  Sb5  1  0.62485499  0.62485497  0.12543497  1
