# generated using pymatgen
data_Dy2MgCu2
_symmetry_space_group_name_H-M   'P 1'
_cell_length_a   4.23495579
_cell_length_b   7.32197618
_cell_length_c   7.32197618
_cell_angle_alpha   90.00000000
_cell_angle_beta   90.00000000
_cell_angle_gamma   90.00000000
_symmetry_Int_Tables_number   1
_chemical_formula_structural   Dy2MgCu2
_chemical_formula_sum   'Dy4 Mg2 Cu4'
_cell_volume   227.04163451
_cell_formula_units_Z   2
loop_
 _symmetry_equiv_pos_site_id
 _symmetry_equiv_pos_as_xyz
  1  'x, y, z'
loop_
 _atom_site_type_symbol
 _atom_site_label
 _atom_site_symmetry_multiplicity
 _atom_site_fract_x
 _atom_site_fract_y
 _atom_site_fract_z
 _atom_site_occupancy
  Dy  Dy0  1  0.50000003  0.67788098  0.17788100  1
  Dy  Dy1  1  0.50000003  0.32211899  0.82211898  1
  Dy  Dy2  1  0.50000003  0.17788100  0.32211899  1
  Dy  Dy3  1  0.50000003  0.82211898  0.67788098  1
  Mg  Mg4  1  1.00000005  0.49999999  0.49999999  1
  Mg  Mg5  1  0.00000000  0.00000000  0.00000000  1
  Cu  Cu6  1  1.00000005  0.12224900  0.62224898  1
  Cu  Cu7  1  1.00000005  0.87775098  0.37775099  1
  Cu  Cu8  1  1.00000005  0.62224898  0.87775098  1
  Cu  Cu9  1  -0.00000000  0.37775099  0.12224900  1
