# generated using pymatgen
data_BiSBr
_symmetry_space_group_name_H-M   'P 1'
_cell_length_a   4.11074209
_cell_length_b   9.01978302
_cell_length_c   10.78672981
_cell_angle_alpha   90.00000000
_cell_angle_beta   90.00000000
_cell_angle_gamma   90.00000000
_symmetry_Int_Tables_number   1
_chemical_formula_structural   BiSBr
_chemical_formula_sum   'Bi4 S4 Br4'
_cell_volume   399.95038657
_cell_formula_units_Z   4
loop_
 _symmetry_equiv_pos_site_id
 _symmetry_equiv_pos_as_xyz
  1  'x, y, z'
loop_
 _atom_site_type_symbol
 _atom_site_label
 _atom_site_symmetry_multiplicity
 _atom_site_fract_x
 _atom_site_fract_y
 _atom_site_fract_z
 _atom_site_occupancy
  Bi  Bi0  1  0.74999998  0.60191900  0.37537901  1
  Bi  Bi1  1  0.74999998  0.10191900  0.12462100  1
  Bi  Bi2  1  0.24999999  0.39808100  0.62462101  1
  Bi  Bi3  1  0.24999999  0.89808100  0.87537902  1
  S  S4  1  0.74999998  0.84659600  0.03564100  1
  S  S5  1  0.24999999  0.15340400  0.96435902  1
  S  S6  1  0.24999999  0.65340400  0.53564101  1
  S  S7  1  0.74999998  0.34659600  0.46435901  1
  Br  Br8  1  0.74999998  0.02447900  0.68394601  1
  Br  Br9  1  0.24999999  0.97552100  0.31605401  1
  Br  Br10  1  0.74999998  0.52447900  0.81605401  1
  Br  Br11  1  0.24999999  0.47552100  0.18394600  1
