# generated using pymatgen
data_ErSn2
_symmetry_space_group_name_H-M   'P 1'
_cell_length_a   3.23698997
_cell_length_b   5.72551012
_cell_length_c   8.75718307
_cell_angle_alpha   90.00000000
_cell_angle_beta   100.65058899
_cell_angle_gamma   90.00000000
_symmetry_Int_Tables_number   1
_chemical_formula_structural   ErSn2
_chemical_formula_sum   'Er2 Sn4'
_cell_volume   159.50451705
_cell_formula_units_Z   2
loop_
 _symmetry_equiv_pos_site_id
 _symmetry_equiv_pos_as_xyz
  1  'x, y, z'
loop_
 _atom_site_type_symbol
 _atom_site_label
 _atom_site_symmetry_multiplicity
 _atom_site_fract_x
 _atom_site_fract_y
 _atom_site_fract_z
 _atom_site_occupancy
  Er  Er0  1  0.00252500  0.00000000  0.00505000  1
  Er  Er1  1  0.32307500  0.99999998  0.64614999  1
  Sn  Sn2  1  0.66480001  0.00000000  0.32960000  1
  Sn  Sn3  1  0.45160901  0.49999999  0.90321799  1
  Sn  Sn4  1  0.11859400  0.49999999  0.23718800  1
  Sn  Sn5  1  0.77273001  0.49999999  0.54546000  1
