# generated using pymatgen
data_Li4Ga11
_symmetry_space_group_name_H-M   'P 1'
_cell_length_a   6.42700291
_cell_length_b   6.42700291
_cell_length_c   6.42700291
_cell_angle_alpha   90.00000000
_cell_angle_beta   90.00000000
_cell_angle_gamma   90.00000000
_symmetry_Int_Tables_number   1
_chemical_formula_structural   Li4Ga11
_chemical_formula_sum   'Li4 Ga11'
_cell_volume   265.47613669
_cell_formula_units_Z   1
loop_
 _symmetry_equiv_pos_site_id
 _symmetry_equiv_pos_as_xyz
  1  'x, y, z'
loop_
 _atom_site_type_symbol
 _atom_site_label
 _atom_site_symmetry_multiplicity
 _atom_site_fract_x
 _atom_site_fract_y
 _atom_site_fract_z
 _atom_site_occupancy
  Li  Li0  1  0.50000001  0.00000000  0.00000000  1
  Li  Li1  1  0.00000000  0.50000001  0.00000000  1
  Li  Li2  1  0.00000000  0.00000000  0.50000001  1
  Li  Li3  1  0.28844700  0.28844700  0.28844700  1
  Ga  Ga4  1  0.71155301  0.71155301  0.71155301  1
  Ga  Ga5  1  0.71155301  0.71155301  0.28844700  1
  Ga  Ga6  1  0.71155301  0.28844700  0.71155301  1
  Ga  Ga7  1  0.28844700  0.28844700  0.71155301  1
  Ga  Ga8  1  0.28844700  0.71155301  0.28844700  1
  Ga  Ga9  1  0.28844700  0.71155301  0.71155301  1
  Ga  Ga10  1  0.71155301  0.28844700  0.28844700  1
  Ga  Ga11  1  0.00000000  0.00000000  0.00000000  1
  Ga  Ga12  1  0.00000000  0.50000001  0.50000001  1
  Ga  Ga13  1  0.50000001  0.00000000  0.50000001  1
  Ga  Ga14  1  0.50000001  0.50000001  0.00000000  1
