# generated using pymatgen
data_Ti4Cr2P13
_symmetry_space_group_name_H-M   'P 1'
_cell_length_a   4.50653791
_cell_length_b   5.58379412
_cell_length_c   10.20429230
_cell_angle_alpha   89.94268799
_cell_angle_beta   90.00000000
_cell_angle_gamma   113.79949951
_symmetry_Int_Tables_number   1
_chemical_formula_structural   Ti4Cr2P13
_chemical_formula_sum   'Ti4 Cr2 P13'
_cell_volume   234.94092829
_cell_formula_units_Z   1
loop_
 _symmetry_equiv_pos_site_id
 _symmetry_equiv_pos_as_xyz
  1  'x, y, z'
loop_
 _atom_site_type_symbol
 _atom_site_label
 _atom_site_symmetry_multiplicity
 _atom_site_fract_x
 _atom_site_fract_y
 _atom_site_fract_z
 _atom_site_occupancy
  Ti  Ti0  1  0.69892503  0.39784999  0.09698600  1
  Ti  Ti1  1  0.40563104  0.81126198  0.19576400  1
  Ti  Ti2  1  0.59436902  0.18873800  0.80423599  1
  Ti  Ti3  1  0.30107503  0.60214999  0.90301399  1
  Cr  Cr4  1  0.09910901  0.19821800  0.29856900  1
  Cr  Cr5  1  0.80125204  0.60250399  0.40359900  1
  P  P6  1  0.50000001  0.00000000  0.49999999  1
  P  P7  1  0.19874802  0.39749599  0.59640099  1
  P  P8  1  0.90089105  0.80178199  0.70143099  1
  P  P9  1  0.40101004  0.80201999  0.70206299  1
  P  P10  1  0.30038903  0.60077799  0.40011500  1
  P  P11  1  0.10639001  0.21278000  0.78805799  1
  P  P12  1  0.00000000  0.00000000  0.49999999  1
  P  P13  1  0.69961103  0.39922199  0.59988499  1
  P  P14  1  0.89361005  0.78721999  0.21194200  1
  P  P15  1  0.59899002  0.19798000  0.29793700  1
  P  P16  1  0.78622304  0.57244599  0.89579099  1
  P  P17  1  0.50000001  0.00000000  0.99999998  1
  P  P18  1  0.21377702  0.42755399  0.10420900  1
