# generated using pymatgen
data_NdAlPd2
_symmetry_space_group_name_H-M   'P 1'
_cell_length_a   4.37414598
_cell_length_b   4.37414646
_cell_length_c   9.19046307
_cell_angle_alpha   90.00000000
_cell_angle_beta   90.00000000
_cell_angle_gamma   120.00000000
_symmetry_Int_Tables_number   1
_chemical_formula_structural   NdAlPd2
_chemical_formula_sum   'Nd2 Al2 Pd4'
_cell_volume   152.28412059
_cell_formula_units_Z   2
loop_
 _symmetry_equiv_pos_site_id
 _symmetry_equiv_pos_as_xyz
  1  'x, y, z'
loop_
 _atom_site_type_symbol
 _atom_site_label
 _atom_site_symmetry_multiplicity
 _atom_site_fract_x
 _atom_site_fract_y
 _atom_site_fract_z
 _atom_site_occupancy
  Nd  Nd0  1  0.66666669  0.33333334  0.74999999  1
  Nd  Nd1  1  0.33333337  0.66666667  0.25000000  1
  Al  Al2  1  0.00000000  0.00000000  0.50000000  1
  Al  Al3  1  0.00000000  0.00000000  0.00000000  1
  Pd  Pd4  1  0.66666669  0.33333334  0.07814700  1
  Pd  Pd5  1  0.33333337  0.66666667  0.92185299  1
  Pd  Pd6  1  0.33333337  0.66666667  0.57814700  1
  Pd  Pd7  1  0.66666669  0.33333334  0.42185300  1
