# generated using pymatgen
data_MnCu3(RuO3)4
_symmetry_space_group_name_H-M   'P 1'
_cell_length_a   6.41573095
_cell_length_b   6.41573095
_cell_length_c   6.41573095
_cell_angle_alpha   109.47122192
_cell_angle_beta   109.47122192
_cell_angle_gamma   109.47122192
_symmetry_Int_Tables_number   1
_chemical_formula_structural   MnCu3(RuO3)4
_chemical_formula_sum   'Mn1 Cu3 Ru4 O12'
_cell_volume   203.29023525
_cell_formula_units_Z   1
loop_
 _symmetry_equiv_pos_site_id
 _symmetry_equiv_pos_as_xyz
  1  'x, y, z'
loop_
 _atom_site_type_symbol
 _atom_site_label
 _atom_site_symmetry_multiplicity
 _atom_site_fract_x
 _atom_site_fract_y
 _atom_site_fract_z
 _atom_site_occupancy
  Mn  Mn0  1  0.00000000  0.00000000  0.00000000  1
  Cu  Cu1  1  0.50000007  1.00000004  0.00000007  1
  Cu  Cu2  1  0.00000000  0.00000000  0.50000000  1
  Cu  Cu3  1  0.50000004  0.50000002  0.50000004  1
  Ru  Ru4  1  0.00000003  0.50000002  0.00000003  1
  Ru  Ru5  1  0.50000007  1.00000004  0.50000007  1
  Ru  Ru6  1  0.00000003  0.50000002  0.50000003  1
  Ru  Ru7  1  0.50000004  0.50000002  1.00000004  1
  O  O8  1  0.47175202  0.30188501  0.16986703  1
  O  O9  1  0.13201802  0.30188501  0.83013302  1
  O  O10  1  0.30188501  0.16986701  0.47175202  1
  O  O11  1  0.16986703  0.47175202  0.30188503  1
  O  O12  1  0.69811502  0.16986701  0.86798203  1
  O  O13  1  0.30188506  0.83013304  0.13201805  1
  O  O14  1  0.16986706  0.86798204  0.69811505  1
  O  O15  1  0.52824805  0.69811503  0.83013305  1
  O  O16  1  0.83013302  0.13201801  0.30188503  1
  O  O17  1  0.69811506  0.83013304  0.52824806  1
  O  O18  1  0.86798205  0.69811503  0.16986706  1
  O  O19  1  0.83013304  0.52824802  0.69811505  1
