# generated using pymatgen
data_Nd2Si5Mo3
_symmetry_space_group_name_H-M   'P 1'
_cell_length_a   5.89850998
_cell_length_b   8.23156357
_cell_length_c   8.23156357
_cell_angle_alpha   73.13343048
_cell_angle_beta   69.00502014
_cell_angle_gamma   69.00502014
_symmetry_Int_Tables_number   1
_chemical_formula_structural   Nd2Si5Mo3
_chemical_formula_sum   'Nd4 Si10 Mo6'
_cell_volume   342.31634504
_cell_formula_units_Z   2
loop_
 _symmetry_equiv_pos_site_id
 _symmetry_equiv_pos_as_xyz
  1  'x, y, z'
loop_
 _atom_site_type_symbol
 _atom_site_label
 _atom_site_symmetry_multiplicity
 _atom_site_fract_x
 _atom_site_fract_y
 _atom_site_fract_z
 _atom_site_occupancy
  Nd  Nd0  1  0.86556598  0.89857499  0.37029299  1
  Nd  Nd1  1  0.13443400  0.10142500  0.62970699  1
  Nd  Nd2  1  0.36556699  0.37029300  0.89857399  1
  Nd  Nd3  1  0.63443299  0.62970699  0.10142600  1
  Si  Si4  1  0.63723598  0.97046299  0.75506499  1
  Si  Si5  1  0.36276400  0.02953700  0.24493499  1
  Si  Si6  1  0.13723498  0.75506499  0.97046400  1
  Si  Si7  1  0.86276500  0.24493500  0.02953599  1
  Si  Si8  1  0.24999999  0.49999999  0.50000000  1
  Si  Si9  1  0.74999999  0.49999999  0.49999999  1
  Si  Si10  1  0.51795098  0.73204899  0.73204899  1
  Si  Si11  1  0.48204900  0.26795100  0.26795099  1
  Si  Si12  1  0.98204900  0.26795100  0.26795098  1
  Mo  Mo13  1  0.01795098  0.73204899  0.73204900  1
  Mo  Mo14  1  0.59732000  0.24430000  0.56106099  1
  Mo  Mo15  1  0.40267998  0.75569999  0.43893900  1
  Si  Si16  1  0.09731898  0.56106199  0.24430000  1
  Mo  Mo17  1  0.90268100  0.43893800  0.75569998  1
  Mo  Mo18  1  0.24999997  0.99999999  1.00000000  1
  Mo  Mo19  1  0.75000001  0.00000000  0.99999997  1
