# generated using pymatgen
data_MnCoS5
_symmetry_space_group_name_H-M   'P 1'
_cell_length_a   5.67608595
_cell_length_b   5.67608595
_cell_length_c   7.76591921
_cell_angle_alpha   70.14363861
_cell_angle_beta   70.14363861
_cell_angle_gamma   72.16072083
_symmetry_Int_Tables_number   1
_chemical_formula_structural   MnCoS5
_chemical_formula_sum   'Mn2 Co2 S10'
_cell_volume   216.11661959
_cell_formula_units_Z   2
loop_
 _symmetry_equiv_pos_site_id
 _symmetry_equiv_pos_as_xyz
  1  'x, y, z'
loop_
 _atom_site_type_symbol
 _atom_site_label
 _atom_site_symmetry_multiplicity
 _atom_site_fract_x
 _atom_site_fract_y
 _atom_site_fract_z
 _atom_site_occupancy
  Mn  Mn0  1  0.54077499  0.45922501  0.24999997  1
  Mn  Mn1  1  0.45922499  0.54077501  0.74999996  1
  Co  Co2  1  0.00000000  0.00000000  0.00000000  1
  Co  Co3  1  0.00000000  0.00000000  0.49999999  1
  S  S4  1  0.79180598  0.75134201  0.11821795  1
  S  S5  1  0.24865800  0.20819400  0.38178198  1
  S  S6  1  0.20819399  0.24865800  0.88178197  1
  S  S7  1  0.75134198  0.79180601  0.61821795  1
  S  S8  1  0.90447400  0.09552600  0.24999997  1
  S  S9  1  0.09552598  0.90447401  0.74999996  1
  S  S10  1  0.71016100  0.31179700  0.53085596  1
  S  S11  1  0.68820300  0.28983900  0.96914396  1
  S  S12  1  0.28983898  0.68820301  0.46914397  1
  S  S13  1  0.31179698  0.71016101  0.03085597  1
