# generated using pymatgen
data_TaP2
_symmetry_space_group_name_H-M   'P 1'
_cell_length_a   3.69342709
_cell_length_b   6.24052000
_cell_length_c   7.07895422
_cell_angle_alpha   90.00000000
_cell_angle_beta   90.00000000
_cell_angle_gamma   90.00000000
_symmetry_Int_Tables_number   1
_chemical_formula_structural   TaP2
_chemical_formula_sum   'Ta4 P8'
_cell_volume   163.16214756
_cell_formula_units_Z   4
loop_
 _symmetry_equiv_pos_site_id
 _symmetry_equiv_pos_as_xyz
  1  'x, y, z'
loop_
 _atom_site_type_symbol
 _atom_site_label
 _atom_site_symmetry_multiplicity
 _atom_site_fract_x
 _atom_site_fract_y
 _atom_site_fract_z
 _atom_site_occupancy
  Ta  Ta0  1  0.74999998  0.48107300  0.32357199  1
  Ta  Ta1  1  0.74999998  0.98107300  0.17642799  1
  Ta  Ta2  1  0.24999999  0.51892700  0.67642798  1
  Ta  Ta3  1  0.24999999  0.01892700  0.82357197  1
  P  P4  1  0.74999998  0.71939600  0.88296197  1
  P  P5  1  0.74999998  0.21939600  0.61703798  1
  P  P6  1  0.24999999  0.28060400  0.11703800  1
  P  P7  1  0.24999999  0.78060400  0.38296199  1
  P  P8  1  0.74999998  0.34538400  0.93257697  1
  P  P9  1  0.74999998  0.84538400  0.56742298  1
  P  P10  1  0.24999999  0.65461600  0.06742300  1
  P  P11  1  0.24999999  0.15461600  0.43257699  1
