# generated using pymatgen
data_Nb6Sn(MoS3)2
_symmetry_space_group_name_H-M   'P 1'
_cell_length_a   3.39564395
_cell_length_b   9.74993610
_cell_length_c   9.74993610
_cell_angle_alpha   120.00000000
_cell_angle_beta   90.00000000
_cell_angle_gamma   90.00000000
_symmetry_Int_Tables_number   1
_chemical_formula_structural   Nb6Sn(MoS3)2
_chemical_formula_sum   'Nb6 Sn1 Mo2 S6'
_cell_volume   279.54795321
_cell_formula_units_Z   1
loop_
 _symmetry_equiv_pos_site_id
 _symmetry_equiv_pos_as_xyz
  1  'x, y, z'
loop_
 _atom_site_type_symbol
 _atom_site_label
 _atom_site_symmetry_multiplicity
 _atom_site_fract_x
 _atom_site_fract_y
 _atom_site_fract_z
 _atom_site_occupancy
  Nb  Nb0  1  -0.00000000  0.96028198  0.18209598  1
  Nb  Nb1  1  -0.00000000  0.81790398  0.77818596  1
  Nb  Nb2  1  -0.00000000  0.22181400  0.03971800  1
  Nb  Nb3  1  0.50000001  0.70937099  0.15409198  1
  Nb  Nb4  1  0.50000001  0.84590798  0.55527897  1
  Nb  Nb5  1  0.50000001  0.44472099  0.29062898  1
  Sn  Sn6  1  -0.00000000  0.33333333  0.66666664  1
  Mo  Mo7  1  -0.00000000  0.68163299  0.95647396  1
  Mo  Mo8  1  -0.00000000  0.04352600  0.72515897  1
  S  S9  1  -0.00000000  0.27484099  0.31836698  1
  S  S10  1  0.50000001  0.98889598  0.38087997  1
  S  S11  1  0.50000001  0.61911999  0.60801597  1
  S  S12  1  0.50000001  0.39198399  0.01110399  1
  S  S13  1  1.00000001  0.66666665  0.33333331  1
  S  S14  1  0.50000001  0.00000000  -0.00000000  1
