# generated using pymatgen
data_NaLaS2
_symmetry_space_group_name_H-M   'P 1'
_cell_length_a   5.69264412
_cell_length_b   5.69264412
_cell_length_c   7.26442242
_cell_angle_alpha   113.06758881
_cell_angle_beta   113.06758881
_cell_angle_gamma   90.00000000
_symmetry_Int_Tables_number   1
_chemical_formula_structural   NaLaS2
_chemical_formula_sum   'Na2 La2 S4'
_cell_volume   195.96703593
_cell_formula_units_Z   2
loop_
 _symmetry_equiv_pos_site_id
 _symmetry_equiv_pos_as_xyz
  1  'x, y, z'
loop_
 _atom_site_type_symbol
 _atom_site_label
 _atom_site_symmetry_multiplicity
 _atom_site_fract_x
 _atom_site_fract_y
 _atom_site_fract_z
 _atom_site_occupancy
  Na  Na0  1  0.00000000  0.00000000  0.00000000  1
  Na  Na1  1  0.75000001  0.25000000  0.50000004  1
  La  La2  1  0.50000002  0.50000000  0.00000004  1
  La  La3  1  0.25000003  0.75000000  0.50000005  1
  S  S4  1  0.23632301  0.23632300  0.47264603  1
  S  S5  1  0.76367703  0.76367700  0.52735407  1
  S  S6  1  0.51367700  0.01367700  0.02735402  1
  S  S7  1  0.98632302  0.48632300  0.97264607  1
