# generated using pymatgen
data_Al5FeP7H
_symmetry_space_group_name_H-M   'P 1'
_cell_length_a   4.80517817
_cell_length_b   6.47968388
_cell_length_c   6.47968483
_cell_angle_alpha   81.85326385
_cell_angle_beta   68.23577118
_cell_angle_gamma   68.23578644
_symmetry_Int_Tables_number   1
_chemical_formula_structural   Al5FeP7H
_chemical_formula_sum   'Al5 Fe1 P7 H1'
_cell_volume   174.01203655
_cell_formula_units_Z   1
loop_
 _symmetry_equiv_pos_site_id
 _symmetry_equiv_pos_as_xyz
  1  'x, y, z'
loop_
 _atom_site_type_symbol
 _atom_site_label
 _atom_site_symmetry_multiplicity
 _atom_site_fract_x
 _atom_site_fract_y
 _atom_site_fract_z
 _atom_site_occupancy
  Fe  Fe0  1  0.99999998  0.99240602  0.00759396  1
  Al  Al1  1  0.00000001  0.36569701  0.63430297  1
  Al  Al2  1  0.50000000  0.77602002  0.22397996  1
  Al  Al3  1  0.49999998  0.22178200  0.77821798  1
  Al  Al4  1  0.72009899  0.78189202  0.77790895  1
  Al  Al5  1  0.27989999  0.22209100  0.21810799  1
  P  P6  1  0.00098302  0.99765002  0.49917894  1
  P  P7  1  0.50218800  0.99765002  0.49917894  1
  P  P8  1  0.49781199  0.50082101  0.00234998  1
  P  P9  1  0.99901697  0.50082101  0.00234998  1
  P  P10  1  0.00000001  0.64436301  0.35563696  1
  P  P11  1  0.64222998  0.35792201  0.35761798  1
  P  P12  1  0.35777000  0.64238201  0.64207796  1
  H  H13  1  0.50000000  0.99850202  0.00149795  1
