# generated using pymatgen
data_LiCuP
_symmetry_space_group_name_H-M   'P 1'
_cell_length_a   3.72149396
_cell_length_b   6.33003569
_cell_length_c   6.33057737
_cell_angle_alpha   116.48968506
_cell_angle_beta   90.00000000
_cell_angle_gamma   90.00000000
_symmetry_Int_Tables_number   1
_chemical_formula_structural   LiCuP
_chemical_formula_sum   'Li3 Cu3 P3'
_cell_volume   133.47408573
_cell_formula_units_Z   3
loop_
 _symmetry_equiv_pos_site_id
 _symmetry_equiv_pos_as_xyz
  1  'x, y, z'
loop_
 _atom_site_type_symbol
 _atom_site_label
 _atom_site_symmetry_multiplicity
 _atom_site_fract_x
 _atom_site_fract_y
 _atom_site_fract_z
 _atom_site_occupancy
  Li  Li0  1  1.00000001  0.99512002  0.74040402  1
  Li  Li1  1  1.00000001  0.74025301  0.99482602  1
  Li  Li2  1  0.50000001  0.98159302  0.98161302  1
  Cu  Cu3  1  1.00000001  0.68442901  0.34167201  1
  P  P4  1  1.00000001  0.34163701  0.68445101  1
  Cu  Cu5  1  1.00000001  0.25596600  0.25600301  1
  Cu  Cu6  1  0.50000001  0.99544502  0.40240601  1
  P  P7  1  0.50000001  0.40246001  0.99554502  1
  P  P8  1  0.50000001  0.60309601  0.60317801  1
