# generated using pymatgen
data_CaCrO3
_symmetry_space_group_name_H-M   'P 1'
_cell_length_a   5.41824722
_cell_length_b   5.54264593
_cell_length_c   7.71332693
_cell_angle_alpha   90.00000000
_cell_angle_beta   90.00000000
_cell_angle_gamma   90.00000000
_symmetry_Int_Tables_number   1
_chemical_formula_structural   CaCrO3
_chemical_formula_sum   'Ca4 Cr4 O12'
_cell_volume   231.64220636
_cell_formula_units_Z   4
loop_
 _symmetry_equiv_pos_site_id
 _symmetry_equiv_pos_as_xyz
  1  'x, y, z'
loop_
 _atom_site_type_symbol
 _atom_site_label
 _atom_site_symmetry_multiplicity
 _atom_site_fract_x
 _atom_site_fract_y
 _atom_site_fract_z
 _atom_site_occupancy
  Ca  Ca0  1  0.01165900  0.95456001  0.75000001  1
  Ca  Ca1  1  0.48834098  0.45456001  0.75000001  1
  Ca  Ca2  1  0.51165898  0.54544001  0.25000000  1
  Ca  Ca3  1  0.98834096  0.04544000  0.25000000  1
  Cr  Cr4  1  0.49999998  0.00000000  0.50000000  1
  Cr  Cr5  1  0.00000000  0.50000001  0.00000000  1
  Cr  Cr6  1  0.00000000  0.50000001  0.50000000  1
  Cr  Cr7  1  0.49999998  0.00000000  0.00000000  1
  O  O8  1  0.71320597  0.28876100  0.45740900  1
  O  O9  1  0.78679397  0.78876101  0.04259100  1
  O  O10  1  0.21320599  0.21123900  0.54259100  1
  O  O11  1  0.28679399  0.71123901  0.95740901  1
  O  O12  1  0.28679399  0.71123901  0.54259100  1
  O  O13  1  0.21320599  0.21123900  0.95740901  1
  O  O14  1  0.78679397  0.78876101  0.45740900  1
  O  O15  1  0.71320597  0.28876100  0.04259100  1
  O  O16  1  0.07821800  0.48273201  0.25000000  1
  O  O17  1  0.42178198  0.98273201  0.25000000  1
  O  O18  1  0.57821798  0.01726800  0.75000001  1
  O  O19  1  0.92178196  0.51726801  0.75000001  1
