# generated using pymatgen
data_Sr3LiTi4O12
_symmetry_space_group_name_H-M   'P 1'
_cell_length_a   5.55585814
_cell_length_b   5.55585814
_cell_length_c   8.79821682
_cell_angle_alpha   108.40535736
_cell_angle_beta   108.40535736
_cell_angle_gamma   90.00000000
_symmetry_Int_Tables_number   1
_chemical_formula_structural   Sr3LiTi4O12
_chemical_formula_sum   'Sr3 Li1 Ti4 O12'
_cell_volume   243.00208118
_cell_formula_units_Z   1
loop_
 _symmetry_equiv_pos_site_id
 _symmetry_equiv_pos_as_xyz
  1  'x, y, z'
loop_
 _atom_site_type_symbol
 _atom_site_label
 _atom_site_symmetry_multiplicity
 _atom_site_fract_x
 _atom_site_fract_y
 _atom_site_fract_z
 _atom_site_occupancy
  Li  Li0  1  0.50000000  0.49999999  1.00000002  1
  Sr  Sr1  1  0.74846801  0.74846799  0.49693603  1
  Sr  Sr2  1  0.25153200  0.25153200  0.50306401  1
  Sr  Sr3  1  0.00000000  0.00000000  0.00000000  1
  Ti  Ti4  1  0.87739900  0.37739900  0.75479802  1
  Ti  Ti5  1  0.37739901  0.87739899  0.75479802  1
  Ti  Ti6  1  0.12260101  0.62260099  0.24520202  1
  Ti  Ti7  1  0.62260099  0.12260100  0.24520201  1
  O  O8  1  0.00000001  0.49999999  1.00000001  1
  O  O9  1  0.49999999  0.00000000  0.00000001  1
  O  O10  1  0.62684400  0.62684399  0.74412502  1
  O  O11  1  0.11728100  0.11728100  0.74412500  1
  O  O12  1  0.88271901  0.88271899  0.25587504  1
  O  O13  1  0.37315600  0.37315600  0.25587501  1
  O  O14  1  0.11728101  0.62684399  0.74412501  1
  O  O15  1  0.62684399  0.11728100  0.74412501  1
  O  O16  1  0.37315601  0.88271899  0.25587503  1
  O  O17  1  0.88271900  0.37315600  0.25587502  1
  O  O18  1  0.74999999  0.25000000  0.50000002  1
  O  O19  1  0.25000001  0.74999999  0.50000002  1
