# generated using pymatgen
data_YSiPt
_symmetry_space_group_name_H-M   'P 1'
_cell_length_a   4.04058790
_cell_length_b   4.08506584
_cell_length_c   7.07751751
_cell_angle_alpha   90.07824707
_cell_angle_beta   90.00000000
_cell_angle_gamma   90.00000000
_symmetry_Int_Tables_number   1
_chemical_formula_structural   YSiPt
_chemical_formula_sum   'Y2 Si2 Pt2'
_cell_volume   116.82187365
_cell_formula_units_Z   2
loop_
 _symmetry_equiv_pos_site_id
 _symmetry_equiv_pos_as_xyz
  1  'x, y, z'
loop_
 _atom_site_type_symbol
 _atom_site_label
 _atom_site_symmetry_multiplicity
 _atom_site_fract_x
 _atom_site_fract_y
 _atom_site_fract_z
 _atom_site_occupancy
  Y  Y0  1  -0.00000000  0.99998898  0.00333001  1
  Y  Y1  1  -0.00000000  0.49991599  0.49663001  1
  Si  Si2  1  0.50000001  0.50022199  0.83517302  1
  Si  Si3  1  0.50000001  0.00012000  0.33221601  1
  Pt  Pt4  1  0.50000001  0.49978199  0.17280201  1
  Pt  Pt5  1  0.50000001  0.99976998  0.65984902  1
