# generated using pymatgen
data_Lu4Sn5Pt7
_symmetry_space_group_name_H-M   'P 1'
_cell_length_a   4.37244797
_cell_length_b   6.62519979
_cell_length_c   10.01507282
_cell_angle_alpha   90.00000000
_cell_angle_beta   90.00000000
_cell_angle_gamma   90.00000000
_symmetry_Int_Tables_number   1
_chemical_formula_structural   Lu4Sn5Pt7
_chemical_formula_sum   'Lu4 Sn5 Pt7'
_cell_volume   290.12004844
_cell_formula_units_Z   1
loop_
 _symmetry_equiv_pos_site_id
 _symmetry_equiv_pos_as_xyz
  1  'x, y, z'
loop_
 _atom_site_type_symbol
 _atom_site_label
 _atom_site_symmetry_multiplicity
 _atom_site_fract_x
 _atom_site_fract_y
 _atom_site_fract_z
 _atom_site_occupancy
  Lu  Lu0  1  0.25000000  0.27988701  0.66391801  1
  Lu  Lu1  1  0.25000000  0.77988702  0.83608201  1
  Lu  Lu2  1  0.75000001  0.72011302  0.33608201  1
  Lu  Lu3  1  0.75000001  0.22011301  0.16391800  1
  Sn  Sn4  1  0.25000000  0.53611102  0.10347800  1
  Sn  Sn5  1  0.25000000  0.03611100  0.39652201  1
  Sn  Sn6  1  0.75000001  0.46388901  0.89652202  1
  Sn  Sn7  1  0.75000001  0.96388903  0.60347801  1
  Pt  Pt8  1  0.25000000  0.91879903  0.14864900  1
  Pt  Pt9  1  0.25000000  0.41879901  0.35135101  1
  Pt  Pt10  1  0.75000001  0.08120100  0.85135102  1
  Sn  Sn11  1  0.75000001  0.58120102  0.64864901  1
  Pt  Pt12  1  0.25000000  0.21693101  0.95697102  1
  Pt  Pt13  1  0.25000000  0.71693102  0.54302901  1
  Pt  Pt14  1  0.75000001  0.78306902  0.04302900  1
  Pt  Pt15  1  0.75000001  0.28306901  0.45697101  1
