# generated using pymatgen
data_CaGaAu
_symmetry_space_group_name_H-M   'P 1'
_cell_length_a   4.66616678
_cell_length_b   7.56493807
_cell_length_c   8.02715969
_cell_angle_alpha   90.00000000
_cell_angle_beta   90.00000000
_cell_angle_gamma   90.00000000
_symmetry_Int_Tables_number   1
_chemical_formula_structural   CaGaAu
_chemical_formula_sum   'Ca4 Ga4 Au4'
_cell_volume   283.35281887
_cell_formula_units_Z   4
loop_
 _symmetry_equiv_pos_site_id
 _symmetry_equiv_pos_as_xyz
  1  'x, y, z'
loop_
 _atom_site_type_symbol
 _atom_site_label
 _atom_site_symmetry_multiplicity
 _atom_site_fract_x
 _atom_site_fract_y
 _atom_site_fract_z
 _atom_site_occupancy
  Ca  Ca0  1  0.25000001  0.52117600  0.18895801  1
  Ca  Ca1  1  0.75000003  0.47882400  0.81104203  1
  Ca  Ca2  1  0.75000003  0.97882399  0.68895803  1
  Ca  Ca3  1  0.25000001  0.02117600  0.31104201  1
  Ga  Ga4  1  0.25000001  0.67065399  0.58470502  1
  Ga  Ga5  1  0.75000003  0.32934600  0.41529502  1
  Ga  Ga6  1  0.75000003  0.82934599  0.08470500  1
  Ga  Ga7  1  0.25000001  0.17065400  0.91529504  1
  Au  Au8  1  0.25000001  0.79738599  0.90595903  1
  Au  Au9  1  0.75000003  0.20261400  0.09404100  1
  Au  Au10  1  0.75000003  0.70261399  0.40595902  1
  Au  Au11  1  0.25000001  0.29738600  0.59404102  1
