# generated using pymatgen
data_LaNd4YS8
_symmetry_space_group_name_H-M   'P 1'
_cell_length_a   7.65514708
_cell_length_b   7.65514708
_cell_length_c   7.65514708
_cell_angle_alpha   105.63668060
_cell_angle_beta   111.42184448
_cell_angle_gamma   111.42184448
_symmetry_Int_Tables_number   1
_chemical_formula_structural   LaNd4YS8
_chemical_formula_sum   'La1 Nd4 Y1 S8'
_cell_volume   344.18355827
_cell_formula_units_Z   1
loop_
 _symmetry_equiv_pos_site_id
 _symmetry_equiv_pos_as_xyz
  1  'x, y, z'
loop_
 _atom_site_type_symbol
 _atom_site_label
 _atom_site_symmetry_multiplicity
 _atom_site_fract_x
 _atom_site_fract_y
 _atom_site_fract_z
 _atom_site_occupancy
  Nd  Nd0  1  0.62003792  0.37499997  0.49503791  1
  Nd  Nd1  1  0.12003796  0.24503798  0.62499996  1
  Nd  Nd2  1  0.37996184  0.87499992  0.75496187  1
  Nd  Nd3  1  0.87996190  0.50496195  0.12499988  1
  La  La4  1  0.00000000  0.00000000  0.00000000  1
  Y  Y5  1  0.49999986  0.74999993  0.24999987  1
  S  S6  1  0.73251797  0.10879499  0.23659094  1
  S  S7  1  0.12779589  0.62372294  0.89120492  1
  S  S8  1  0.26748191  0.50407295  0.37627592  1
  S  S9  1  0.87220385  0.76340993  0.49592685  1
  S  S10  1  0.62779588  0.64120494  0.87372288  1
  S  S11  1  0.76748196  0.12627599  0.75407293  1
  S  S12  1  0.37220395  0.24592698  0.01340994  1
  S  S13  1  0.23251783  0.98659091  0.35879486  1
