# generated using pymatgen
data_Na2O
_symmetry_space_group_name_H-M   'P 1'
_cell_length_a   3.61022615
_cell_length_b   3.61022615
_cell_length_c   6.55757236
_cell_angle_alpha   74.02181244
_cell_angle_beta   74.02181244
_cell_angle_gamma   59.99999619
_symmetry_Int_Tables_number   1
_chemical_formula_structural   Na2O
_chemical_formula_sum   'Na2 O1'
_cell_volume   70.18018884
_cell_formula_units_Z   1
loop_
 _symmetry_equiv_pos_site_id
 _symmetry_equiv_pos_as_xyz
  1  'x, y, z'
loop_
 _atom_site_type_symbol
 _atom_site_label
 _atom_site_symmetry_multiplicity
 _atom_site_fract_x
 _atom_site_fract_y
 _atom_site_fract_z
 _atom_site_occupancy
  Na  Na0  1  0.73949299  0.73949301  0.78152106  1
  Na  Na1  1  0.26050700  0.26050700  0.21847902  1
  O  O2  1  0.00000000  0.00000000  0.00000000  1
