# generated using pymatgen
data_Ho3Pt
_symmetry_space_group_name_H-M   'P 1'
_cell_length_a   6.50855112
_cell_length_b   7.42492294
_cell_length_c   9.73727703
_cell_angle_alpha   90.00000000
_cell_angle_beta   90.00000000
_cell_angle_gamma   90.00000000
_symmetry_Int_Tables_number   1
_chemical_formula_structural   Ho3Pt
_chemical_formula_sum   'Ho12 Pt4'
_cell_volume   470.55868907
_cell_formula_units_Z   4
loop_
 _symmetry_equiv_pos_site_id
 _symmetry_equiv_pos_as_xyz
  1  'x, y, z'
loop_
 _atom_site_type_symbol
 _atom_site_label
 _atom_site_symmetry_multiplicity
 _atom_site_fract_x
 _atom_site_fract_y
 _atom_site_fract_z
 _atom_site_occupancy
  Ho  Ho0  1  0.32635499  0.67538501  0.06782800  1
  Ho  Ho1  1  0.17364500  0.17538500  0.43217200  1
  Ho  Ho2  1  0.67364499  0.32461500  0.56782800  1
  Ho  Ho3  1  0.82635498  0.82461501  0.93217200  1
  Ho  Ho4  1  0.67364499  0.32461500  0.93217200  1
  Ho  Ho5  1  0.82635498  0.82461501  0.56782800  1
  Ho  Ho6  1  0.32635499  0.67538501  0.43217200  1
  Ho  Ho7  1  0.17364500  0.17538500  0.06782800  1
  Ho  Ho8  1  0.85698198  0.53991500  0.25000000  1
  Ho  Ho9  1  0.64301799  0.03991500  0.25000000  1
  Ho  Ho10  1  0.14301800  0.46008500  0.75000000  1
  Ho  Ho11  1  0.35698199  0.96008501  0.75000000  1
  Pt  Pt12  1  0.05001600  0.88587201  0.25000000  1
  Pt  Pt13  1  0.44998399  0.38587200  0.25000000  1
  Pt  Pt14  1  0.94998398  0.11412800  0.75000000  1
  Pt  Pt15  1  0.55001599  0.61412800  0.75000000  1
