# generated using pymatgen
data_Ho3Hg5
_symmetry_space_group_name_H-M   'P 1'
_cell_length_a   5.06123590
_cell_length_b   6.87041616
_cell_length_c   6.87041616
_cell_angle_alpha   120.00000000
_cell_angle_beta   90.00000000
_cell_angle_gamma   90.00000000
_symmetry_Int_Tables_number   1
_chemical_formula_structural   Ho3Hg5
_chemical_formula_sum   'Ho3 Hg5'
_cell_volume   206.89657487
_cell_formula_units_Z   1
loop_
 _symmetry_equiv_pos_site_id
 _symmetry_equiv_pos_as_xyz
  1  'x, y, z'
loop_
 _atom_site_type_symbol
 _atom_site_label
 _atom_site_symmetry_multiplicity
 _atom_site_fract_x
 _atom_site_fract_y
 _atom_site_fract_z
 _atom_site_occupancy
  Ho  Ho0  1  0.75000001  0.66666666  0.33333335  1
  Ho  Ho1  1  0.25000000  0.33333333  0.66666667  1
  Ho  Ho2  1  0.75000001  0.16393400  0.32786800  1
  Hg  Hg3  1  0.75000001  0.16393400  0.83606500  1
  Hg  Hg4  1  0.75000001  0.67213099  0.83606501  1
  Hg  Hg5  1  0.25000000  0.83606599  0.67213202  1
  Hg  Hg6  1  0.25000000  0.83606599  0.16393502  1
  Hg  Hg7  1  0.25000000  0.32786899  0.16393501  1
