# generated using pymatgen
data_SrNiHSO5
_symmetry_space_group_name_H-M   'P 1'
_cell_length_a   4.57483816
_cell_length_b   5.93990707
_cell_length_c   8.99511528
_cell_angle_alpha   90.00000000
_cell_angle_beta   96.24055481
_cell_angle_gamma   90.00000000
_symmetry_Int_Tables_number   1
_chemical_formula_structural   SrNiHSO5
_chemical_formula_sum   'Sr2 Ni2 H2 S2 O10'
_cell_volume   242.98583285
_cell_formula_units_Z   2
loop_
 _symmetry_equiv_pos_site_id
 _symmetry_equiv_pos_as_xyz
  1  'x, y, z'
loop_
 _atom_site_type_symbol
 _atom_site_label
 _atom_site_symmetry_multiplicity
 _atom_site_fract_x
 _atom_site_fract_y
 _atom_site_fract_z
 _atom_site_occupancy
  Sr  Sr0  1  0.90219597  0.25000000  0.60615403  1
  Sr  Sr1  1  0.09780400  0.74999999  0.39384601  1
  Ni  Ni2  1  -0.00000000  0.49999999  1.00000004  1
  Ni  Ni3  1  0.00000000  0.00000000  0.00000000  1
  H  H4  1  0.60850098  0.25000000  0.88245803  1
  H  H5  1  0.39149899  0.74999999  0.11754201  1
  S  S6  1  0.51334998  0.25000000  0.22472201  1
  S  S7  1  0.48664998  0.74999999  0.77527803  1
  O  O8  1  0.82418597  0.25000000  0.88704904  1
  O  O9  1  0.17581399  0.74999999  0.11295100  1
  O  O10  1  0.68989698  0.45730299  0.21360401  1
  O  O11  1  0.31010299  0.95730299  0.78639603  1
  O  O12  1  0.31010299  0.54269699  0.78639603  1
  O  O13  1  0.68989698  0.04269700  0.21360401  1
  O  O14  1  0.35852299  0.25000000  0.36007901  1
  O  O15  1  0.64147698  0.74999999  0.63992103  1
  O  O16  1  0.28593699  0.25000000  0.08200100  1
  O  O17  1  0.71406298  0.74999999  0.91799904  1
