# generated using pymatgen
data_LaYbMg4
_symmetry_space_group_name_H-M   'P 1'
_cell_length_a   6.09889793
_cell_length_b   6.09889793
_cell_length_c   6.09889793
_cell_angle_alpha   60.00000000
_cell_angle_beta   60.00000000
_cell_angle_gamma   60.00000000
_symmetry_Int_Tables_number   1
_chemical_formula_structural   LaYbMg4
_chemical_formula_sum   'La1 Yb1 Mg4'
_cell_volume   160.41282917
_cell_formula_units_Z   1
loop_
 _symmetry_equiv_pos_site_id
 _symmetry_equiv_pos_as_xyz
  1  'x, y, z'
loop_
 _atom_site_type_symbol
 _atom_site_label
 _atom_site_symmetry_multiplicity
 _atom_site_fract_x
 _atom_site_fract_y
 _atom_site_fract_z
 _atom_site_occupancy
  La  La0  1  0.00000000  0.00000000  0.00000000  1
  Yb  Yb1  1  0.74999998  0.74999998  0.74999998  1
  Mg  Mg2  1  0.87499998  0.37499999  0.37499999  1
  Mg  Mg3  1  0.37499999  0.37499999  0.87499998  1
  Mg  Mg4  1  0.37499999  0.37499999  0.37499999  1
  Mg  Mg5  1  0.37499999  0.87499998  0.37499999  1
