# generated using pymatgen
data_Li2VO6
_symmetry_space_group_name_H-M   'P 1'
_cell_length_a   2.91012001
_cell_length_b   5.79852724
_cell_length_c   6.50481749
_cell_angle_alpha   101.72441101
_cell_angle_beta   102.92583466
_cell_angle_gamma   90.00000000
_symmetry_Int_Tables_number   1
_chemical_formula_structural   Li2VO6
_chemical_formula_sum   'Li2 V1 O6'
_cell_volume   104.63260211
_cell_formula_units_Z   1
loop_
 _symmetry_equiv_pos_site_id
 _symmetry_equiv_pos_as_xyz
  1  'x, y, z'
loop_
 _atom_site_type_symbol
 _atom_site_label
 _atom_site_symmetry_multiplicity
 _atom_site_fract_x
 _atom_site_fract_y
 _atom_site_fract_z
 _atom_site_occupancy
  Li  Li0  1  0.33255200  0.16615900  0.66510398  1
  Li  Li1  1  0.66744802  0.83384102  0.33489602  1
  V  V2  1  0.00000001  0.50000001  0.00000002  1
  O  O3  1  0.84219901  0.38918601  0.68439799  1
  O  O4  1  0.17696800  0.05896400  0.35393599  1
  O  O5  1  0.15780101  0.61081402  0.31560201  1
  O  O6  1  0.51095502  0.72511002  0.02191003  1
  O  O7  1  0.48904501  0.27489001  0.97808998  1
  O  O8  1  0.82303202  0.94103603  0.64606402  1
