# generated using pymatgen
data_NdAgPb
_symmetry_space_group_name_H-M   'P 1'
_cell_length_a   4.93507624
_cell_length_b   4.93507576
_cell_length_c   7.64262819
_cell_angle_alpha   90.00000000
_cell_angle_beta   90.00000000
_cell_angle_gamma   120.00000000
_symmetry_Int_Tables_number   1
_chemical_formula_structural   NdAgPb
_chemical_formula_sum   'Nd2 Ag2 Pb2'
_cell_volume   161.19852136
_cell_formula_units_Z   2
loop_
 _symmetry_equiv_pos_site_id
 _symmetry_equiv_pos_as_xyz
  1  'x, y, z'
loop_
 _atom_site_type_symbol
 _atom_site_label
 _atom_site_symmetry_multiplicity
 _atom_site_fract_x
 _atom_site_fract_y
 _atom_site_fract_z
 _atom_site_occupancy
  Nd  Nd0  1  0.00000000  0.00000000  0.74999998  1
  Nd  Nd1  1  0.00000000  0.00000000  0.24999999  1
  Ag  Ag2  1  0.66666663  0.33333334  0.95365898  1
  Ag  Ag3  1  0.66666663  0.33333334  0.54634099  1
  Pb  Pb4  1  0.33333330  0.66666667  0.04634100  1
  Pb  Pb5  1  0.33333330  0.66666667  0.45365899  1
