# generated using pymatgen
data_KPS3
_symmetry_space_group_name_H-M   'P 1'
_cell_length_a   7.12569380
_cell_length_b   7.15846109
_cell_length_c   7.15846109
_cell_angle_alpha   100.49767303
_cell_angle_beta   119.84869385
_cell_angle_gamma   60.15130234
_symmetry_Int_Tables_number   1
_chemical_formula_structural   KPS3
_chemical_formula_sum   'K2 P2 S6'
_cell_volume   273.64940690
_cell_formula_units_Z   2
loop_
 _symmetry_equiv_pos_site_id
 _symmetry_equiv_pos_as_xyz
  1  'x, y, z'
loop_
 _atom_site_type_symbol
 _atom_site_label
 _atom_site_symmetry_multiplicity
 _atom_site_fract_x
 _atom_site_fract_y
 _atom_site_fract_z
 _atom_site_occupancy
  K  K0  1  0.74985400  0.25014600  0.74985396  1
  K  K1  1  0.25014599  0.74985400  0.25014600  1
  P  P2  1  -0.00000000  0.66208100  0.66208101  1
  P  P3  1  1.00000000  0.33791900  0.33791895  1
  S  S4  1  0.23662999  0.77674200  0.77674200  1
  S  S5  1  0.23663000  0.22325800  0.22325799  1
  S  S6  1  0.18625100  0.31374900  0.68625099  1
  S  S7  1  0.81374900  0.68625100  0.31374897  1
  S  S8  1  0.76337000  0.22325800  0.22325796  1
  S  S9  1  0.76337000  0.77674200  0.77674197  1
