# generated using pymatgen
data_Li6Cd5Ga9
_symmetry_space_group_name_H-M   'P 1'
_cell_length_a   4.20775700
_cell_length_b   4.20775700
_cell_length_c   21.10191536
_cell_angle_alpha   90.00000000
_cell_angle_beta   90.00000000
_cell_angle_gamma   90.00000000
_symmetry_Int_Tables_number   1
_chemical_formula_structural   Li6Cd5Ga9
_chemical_formula_sum   'Li6 Cd5 Ga9'
_cell_volume   373.61403147
_cell_formula_units_Z   1
loop_
 _symmetry_equiv_pos_site_id
 _symmetry_equiv_pos_as_xyz
  1  'x, y, z'
loop_
 _atom_site_type_symbol
 _atom_site_label
 _atom_site_symmetry_multiplicity
 _atom_site_fract_x
 _atom_site_fract_y
 _atom_site_fract_z
 _atom_site_occupancy
  Li  Li0  1  0.00000000  0.00000000  0.19781301  1
  Li  Li1  1  0.00000000  0.00000000  0.39962201  1
  Li  Li2  1  0.00000000  0.00000000  0.60037802  1
  Li  Li3  1  0.00000000  0.00000000  0.80218702  1
  Li  Li4  1  0.00000000  0.00000000  0.00000000  1
  Li  Li5  1  0.50000000  0.50000000  0.00000000  1
  Cd  Cd6  1  0.50000000  0.50000000  0.19837701  1
  Cd  Cd7  1  0.50000000  0.50000000  0.39949001  1
  Cd  Cd8  1  0.50000000  0.50000000  0.60051002  1
  Cd  Cd9  1  0.50000000  0.50000000  0.80162302  1
  Cd  Cd10  1  0.50000000  0.00000000  0.09656200  1
  Ga  Ga11  1  0.50000000  0.00000000  0.29915701  1
  Ga  Ga12  1  0.50000000  0.00000000  0.50000002  1
  Ga  Ga13  1  0.50000000  0.00000000  0.70084302  1
  Ga  Ga14  1  0.50000000  0.00000000  0.90343803  1
  Ga  Ga15  1  0.00000000  0.50000000  0.09656200  1
  Ga  Ga16  1  0.00000000  0.50000000  0.29915701  1
  Ga  Ga17  1  0.00000000  0.50000000  0.50000002  1
  Ga  Ga18  1  0.00000000  0.50000000  0.70084302  1
  Ga  Ga19  1  0.00000000  0.50000000  0.90343803  1
