# generated using pymatgen
data_KPaO3
_symmetry_space_group_name_H-M   'P 1'
_cell_length_a   4.56773663
_cell_length_b   4.59345770
_cell_length_c   4.59345770
_cell_angle_alpha   87.59780884
_cell_angle_beta   86.45145416
_cell_angle_gamma   86.45145416
_symmetry_Int_Tables_number   1
_chemical_formula_structural   KPaO3
_chemical_formula_sum   'K1 Pa1 O3'
_cell_volume   95.93917411
_cell_formula_units_Z   1
loop_
 _symmetry_equiv_pos_site_id
 _symmetry_equiv_pos_as_xyz
  1  'x, y, z'
loop_
 _atom_site_type_symbol
 _atom_site_label
 _atom_site_symmetry_multiplicity
 _atom_site_fract_x
 _atom_site_fract_y
 _atom_site_fract_z
 _atom_site_occupancy
  K  K0  1  0.99054199  0.99767302  0.99767306  1
  Pa  Pa1  1  0.48397299  0.49747201  0.49747203  1
  O  O2  1  0.48721199  0.49475501  0.99930304  1
  O  O3  1  0.98066399  0.50980001  0.50980003  1
  O  O4  1  0.48721199  0.99930302  0.49475505  1
