# generated using pymatgen
data_AlCuH7
_symmetry_space_group_name_H-M   'P 1'
_cell_length_a   4.53800774
_cell_length_b   4.53800774
_cell_length_c   4.53800774
_cell_angle_alpha   60.00000000
_cell_angle_beta   60.00000000
_cell_angle_gamma   60.00000000
_symmetry_Int_Tables_number   1
_chemical_formula_structural   AlCuH7
_chemical_formula_sum   'Al1 Cu1 H7'
_cell_volume   66.08162254
_cell_formula_units_Z   1
loop_
 _symmetry_equiv_pos_site_id
 _symmetry_equiv_pos_as_xyz
  1  'x, y, z'
loop_
 _atom_site_type_symbol
 _atom_site_label
 _atom_site_symmetry_multiplicity
 _atom_site_fract_x
 _atom_site_fract_y
 _atom_site_fract_z
 _atom_site_occupancy
  Al  Al0  1  0.25000000  0.25000000  0.25000000  1
  Cu  Cu1  1  0.74999999  0.74999999  0.74999999  1
  H  H2  1  0.00000000  0.00000000  0.00000000  1
  H  H3  1  0.75692299  0.75692299  0.24307700  1
  H  H4  1  0.24307700  0.75692299  0.75692299  1
  H  H5  1  0.24307700  0.75692299  0.24307700  1
  H  H6  1  0.24307700  0.24307700  0.75692299  1
  H  H7  1  0.75692299  0.24307700  0.24307700  1
  H  H8  1  0.75692299  0.24307700  0.75692299  1
