# generated using pymatgen
data_LaFeSi
_symmetry_space_group_name_H-M   'P 1'
_cell_length_a   4.01508617
_cell_length_b   4.01508617
_cell_length_c   7.12134409
_cell_angle_alpha   90.00000000
_cell_angle_beta   90.00000000
_cell_angle_gamma   90.00000000
_symmetry_Int_Tables_number   1
_chemical_formula_structural   LaFeSi
_chemical_formula_sum   'La2 Fe2 Si2'
_cell_volume   114.80259689
_cell_formula_units_Z   2
loop_
 _symmetry_equiv_pos_site_id
 _symmetry_equiv_pos_as_xyz
  1  'x, y, z'
loop_
 _atom_site_type_symbol
 _atom_site_label
 _atom_site_symmetry_multiplicity
 _atom_site_fract_x
 _atom_site_fract_y
 _atom_site_fract_z
 _atom_site_occupancy
  La  La0  1  0.49999998  0.00000000  0.68737899  1
  La  La1  1  -0.00000000  0.49999998  0.31262100  1
  Fe  Fe2  1  0.00000000  0.00000000  0.00000000  1
  Fe  Fe3  1  0.49999998  0.49999998  0.00000000  1
  Si  Si4  1  -0.00000000  0.49999998  0.83358899  1
  Si  Si5  1  0.49999998  0.00000000  0.16641100  1
