# generated using pymatgen
data_BaLaUO6
_symmetry_space_group_name_H-M   'P 1'
_cell_length_a   3.29101992
_cell_length_b   6.99499321
_cell_length_c   9.33278847
_cell_angle_alpha   80.08967590
_cell_angle_beta   79.84481049
_cell_angle_gamma   76.39416504
_symmetry_Int_Tables_number   1
_chemical_formula_structural   BaLaUO6
_chemical_formula_sum   'Ba1 La1 U1 O6'
_cell_volume   203.62129205
_cell_formula_units_Z   1
loop_
 _symmetry_equiv_pos_site_id
 _symmetry_equiv_pos_as_xyz
  1  'x, y, z'
loop_
 _atom_site_type_symbol
 _atom_site_label
 _atom_site_symmetry_multiplicity
 _atom_site_fract_x
 _atom_site_fract_y
 _atom_site_fract_z
 _atom_site_occupancy
  La  La0  1  0.31937501  0.06671900  0.29453100  1
  Ba  Ba1  1  0.68062509  0.93328100  0.70546897  1
  U  U2  1  0.00000000  0.00000000  0.00000000  1
  O  O3  1  0.67196503  0.19097800  0.46509200  1
  O  O4  1  0.02378801  0.18849400  0.76393001  1
  O  O5  1  0.97621209  0.81150600  0.23606996  1
  O  O6  1  0.32803507  0.80902200  0.53490797  1
  O  O7  1  0.79676104  0.27126800  0.13520998  1
  O  O8  1  0.20323906  0.72873200  0.86478998  1
