# generated using pymatgen
data_Be3B2Mo5
_symmetry_space_group_name_H-M   'P 1'
_cell_length_a   3.01784301
_cell_length_b   5.73047400
_cell_length_c   5.73047400
_cell_angle_alpha   90.00000000
_cell_angle_beta   90.00000000
_cell_angle_gamma   90.00000000
_symmetry_Int_Tables_number   1
_chemical_formula_structural   Be3B2Mo5
_chemical_formula_sum   'Be3 B2 Mo5'
_cell_volume   99.10093125
_cell_formula_units_Z   1
loop_
 _symmetry_equiv_pos_site_id
 _symmetry_equiv_pos_as_xyz
  1  'x, y, z'
loop_
 _atom_site_type_symbol
 _atom_site_label
 _atom_site_symmetry_multiplicity
 _atom_site_fract_x
 _atom_site_fract_y
 _atom_site_fract_z
 _atom_site_occupancy
  Be  Be0  1  0.00000000  0.00000000  0.00000000  1
  Be  Be1  1  0.00000000  0.50000000  0.50000000  1
  Be  Be2  1  0.50000000  0.32167800  0.82167800  1
  Mo  Mo3  1  0.50000000  0.82167800  0.67832200  1
  Mo  Mo4  1  0.50000000  0.17832200  0.32167800  1
  Mo  Mo5  1  0.50000000  0.67832200  0.17832200  1
  B  B6  1  0.00000000  0.11057900  0.61057900  1
  B  B7  1  0.00000000  0.61057900  0.88942100  1
  Mo  Mo8  1  0.00000000  0.38942100  0.11057900  1
  Mo  Mo9  1  0.00000000  0.88942100  0.38942100  1
