# generated using pymatgen
data_Zr3Ge2
_symmetry_space_group_name_H-M   'P 1'
_cell_length_a   3.61498308
_cell_length_b   7.53327322
_cell_length_c   7.53327322
_cell_angle_alpha   90.00000000
_cell_angle_beta   90.00000000
_cell_angle_gamma   90.00000000
_symmetry_Int_Tables_number   1
_chemical_formula_structural   Zr3Ge2
_chemical_formula_sum   'Zr6 Ge4'
_cell_volume   205.15103244
_cell_formula_units_Z   2
loop_
 _symmetry_equiv_pos_site_id
 _symmetry_equiv_pos_as_xyz
  1  'x, y, z'
loop_
 _atom_site_type_symbol
 _atom_site_label
 _atom_site_symmetry_multiplicity
 _atom_site_fract_x
 _atom_site_fract_y
 _atom_site_fract_z
 _atom_site_occupancy
  Zr  Zr0  1  0.49999999  0.33116699  0.83116698  1
  Zr  Zr1  1  0.49999999  0.83116698  0.66883298  1
  Zr  Zr2  1  0.49999999  0.16883300  0.33116699  1
  Zr  Zr3  1  0.49999999  0.66883298  0.16883300  1
  Zr  Zr4  1  -0.00000000  0.49999999  0.49999999  1
  Zr  Zr5  1  0.00000000  0.00000000  0.00000000  1
  Ge  Ge6  1  0.00000000  0.12836800  0.62836798  1
  Ge  Ge7  1  -0.00000000  0.62836798  0.87163197  1
  Ge  Ge8  1  0.99999998  0.87163197  0.37163199  1
  Ge  Ge9  1  -0.00000000  0.37163199  0.12836800  1
