# generated using pymatgen
data_Ca2SeO2
_symmetry_space_group_name_H-M   'P 1'
_cell_length_a   3.87802196
_cell_length_b   3.87802243
_cell_length_c   7.19902420
_cell_angle_alpha   90.00000000
_cell_angle_beta   90.00000000
_cell_angle_gamma   120.00000000
_symmetry_Int_Tables_number   1
_chemical_formula_structural   Ca2SeO2
_chemical_formula_sum   'Ca2 Se1 O2'
_cell_volume   93.76156456
_cell_formula_units_Z   1
loop_
 _symmetry_equiv_pos_site_id
 _symmetry_equiv_pos_as_xyz
  1  'x, y, z'
loop_
 _atom_site_type_symbol
 _atom_site_label
 _atom_site_symmetry_multiplicity
 _atom_site_fract_x
 _atom_site_fract_y
 _atom_site_fract_z
 _atom_site_occupancy
  Ca  Ca0  1  0.33333338  0.66666668  0.80580398  1
  Ca  Ca1  1  0.66666670  0.33333334  0.19419599  1
  Se  Se2  1  0.00000000  0.00000000  0.49999999  1
  O  O3  1  0.33333338  0.66666668  0.11991300  1
  O  O4  1  0.66666670  0.33333334  0.88008698  1
