# generated using pymatgen
data_Al2CuS5
_symmetry_space_group_name_H-M   'P 1'
_cell_length_a   5.32683992
_cell_length_b   5.32683992
_cell_length_c   6.47619247
_cell_angle_alpha   114.28421783
_cell_angle_beta   114.28421783
_cell_angle_gamma   90.00000000
_symmetry_Int_Tables_number   1
_chemical_formula_structural   Al2CuS5
_chemical_formula_sum   'Al2 Cu1 S5'
_cell_volume   149.48506747
_cell_formula_units_Z   1
loop_
 _symmetry_equiv_pos_site_id
 _symmetry_equiv_pos_as_xyz
  1  'x, y, z'
loop_
 _atom_site_type_symbol
 _atom_site_label
 _atom_site_symmetry_multiplicity
 _atom_site_fract_x
 _atom_site_fract_y
 _atom_site_fract_z
 _atom_site_occupancy
  Al  Al0  1  0.50000004  0.50000002  0.00000005  1
  Al  Al1  1  0.25000005  0.75000003  0.50000006  1
  Cu  Cu2  1  0.75000004  0.25000001  0.50000005  1
  S  S3  1  0.00000000  0.00000000  0.00000000  1
  S  S4  1  0.87500005  0.38171602  0.25000006  1
  S  S5  1  0.13171601  0.12500001  0.75000002  1
  S  S6  1  0.37500006  0.86828404  0.25000007  1
  S  S7  1  0.61828405  0.62500003  0.75000007  1
