# generated using pymatgen
data_CsK(S2O7)2
_symmetry_space_group_name_H-M   'P 1'
_cell_length_a   7.05921698
_cell_length_b   7.05921698
_cell_length_c   7.17039204
_cell_angle_alpha   60.51157761
_cell_angle_beta   60.51157761
_cell_angle_gamma   59.99999237
_symmetry_Int_Tables_number   1
_chemical_formula_structural   CsK(S2O7)2
_chemical_formula_sum   'Cs1 K1 S4 O14'
_cell_volume   254.59870614
_cell_formula_units_Z   1
loop_
 _symmetry_equiv_pos_site_id
 _symmetry_equiv_pos_as_xyz
  1  'x, y, z'
loop_
 _atom_site_type_symbol
 _atom_site_label
 _atom_site_symmetry_multiplicity
 _atom_site_fract_x
 _atom_site_fract_y
 _atom_site_fract_z
 _atom_site_occupancy
  Cs  Cs0  1  0.00000000  0.00000000  0.00000000  1
  K  K1  1  0.95836102  0.49999999  0.49999994  1
  S  S2  1  0.50000000  0.04163900  0.49999997  1
  S  S3  1  0.04163903  0.95836099  0.49999995  1
  S  S4  1  0.69557302  0.69557299  0.91328093  1
  S  S5  1  0.30442701  0.30442700  0.08671898  1
  O  O6  1  0.61501102  0.61501099  0.15496695  1
  O  O7  1  0.38498901  0.38498900  0.84503295  1
  O  O8  1  0.84022502  0.49510399  0.81939694  1
  O  O9  1  0.49510403  0.84527399  0.81939693  1
  O  O10  1  0.84527403  0.84022499  0.81939692  1
  O  O11  1  0.15472602  0.50489599  0.18060297  1
  O  O12  1  0.50489600  0.15977500  0.18060297  1
  O  O13  1  0.15977500  0.15472600  0.18060298  1
  O  O14  1  0.73084902  0.73320199  0.43066794  1
  O  O15  1  0.73320200  0.10528100  0.43066796  1
  O  O16  1  0.10528102  0.73084899  0.43066796  1
  O  O17  1  0.26679801  0.26915100  0.56933197  1
  O  O18  1  0.26915103  0.89471899  0.56933194  1
  O  O19  1  0.89471901  0.26679800  0.56933195  1
