# generated using pymatgen
data_MgAlC2O
_symmetry_space_group_name_H-M   'P 1'
_cell_length_a   3.44733405
_cell_length_b   3.44733405
_cell_length_c   6.04428244
_cell_angle_alpha   73.43080902
_cell_angle_beta   73.43080902
_cell_angle_gamma   59.99999619
_symmetry_Int_Tables_number   1
_chemical_formula_structural   MgAlC2O
_chemical_formula_sum   'Mg1 Al1 C2 O1'
_cell_volume   58.73804044
_cell_formula_units_Z   1
loop_
 _symmetry_equiv_pos_site_id
 _symmetry_equiv_pos_as_xyz
  1  'x, y, z'
loop_
 _atom_site_type_symbol
 _atom_site_label
 _atom_site_symmetry_multiplicity
 _atom_site_fract_x
 _atom_site_fract_y
 _atom_site_fract_z
 _atom_site_occupancy
  Mg  Mg0  1  0.49783099  0.49783102  0.50650703  1
  Al  Al1  1  0.00305300  0.00305300  0.99084099  1
  C  C2  1  0.11191000  0.11191000  0.66427000  1
  C  C3  1  0.89341197  0.89341203  0.31976406  1
  O  O4  1  0.34332799  0.34332801  0.97001601  1
