# generated using pymatgen
data_LiBe2
_symmetry_space_group_name_H-M   'P 1'
_cell_length_a   4.48778582
_cell_length_b   4.51746798
_cell_length_c   7.99924040
_cell_angle_alpha   81.99063110
_cell_angle_beta   73.70915985
_cell_angle_gamma   60.21711349
_symmetry_Int_Tables_number   1
_chemical_formula_structural   LiBe2
_chemical_formula_sum   'Li4 Be8'
_cell_volume   135.10020585
_cell_formula_units_Z   4
loop_
 _symmetry_equiv_pos_site_id
 _symmetry_equiv_pos_as_xyz
  1  'x, y, z'
loop_
 _atom_site_type_symbol
 _atom_site_label
 _atom_site_symmetry_multiplicity
 _atom_site_fract_x
 _atom_site_fract_y
 _atom_site_fract_z
 _atom_site_occupancy
  Li  Li0  1  0.41655702  0.00000000  0.16688600  1
  Li  Li1  1  0.58344302  0.00000000  0.83311399  1
  Li  Li2  1  0.33515801  0.49999999  0.32968401  1
  Li  Li3  1  0.16484201  0.49999999  0.67031601  1
  Be  Be4  1  0.83292603  0.33414800  0.00000001  1
  Be  Be5  1  0.16707400  0.66585199  0.00000002  1
  Be  Be6  1  0.91857704  0.16284600  0.50000000  1
  Be  Be7  1  0.58142302  0.83715399  0.50000002  1
  Be  Be8  1  0.12247500  0.00000000  0.75504999  1
  Be  Be9  1  0.87752504  0.00000000  0.24495000  1
  Be  Be10  1  0.62281202  0.49999999  0.75437601  1
  Be  Be11  1  0.87718803  0.49999999  0.24562401  1
