# generated using pymatgen
data_Ca4Te3O13
_symmetry_space_group_name_H-M   'P 1'
_cell_length_a   4.44230986
_cell_length_b   5.74715614
_cell_length_c   12.06043243
_cell_angle_alpha   90.00000000
_cell_angle_beta   90.00000000
_cell_angle_gamma   101.88034058
_symmetry_Int_Tables_number   1
_chemical_formula_structural   Ca4Te3O13
_chemical_formula_sum   'Ca4 Te3 O13'
_cell_volume   301.31511513
_cell_formula_units_Z   1
loop_
 _symmetry_equiv_pos_site_id
 _symmetry_equiv_pos_as_xyz
  1  'x, y, z'
loop_
 _atom_site_type_symbol
 _atom_site_label
 _atom_site_symmetry_multiplicity
 _atom_site_fract_x
 _atom_site_fract_y
 _atom_site_fract_z
 _atom_site_occupancy
  Ca  Ca0  1  0.99515003  0.34933499  0.35494099  1
  Ca  Ca1  1  0.49515001  0.84933497  0.14505899  1
  Ca  Ca2  1  0.50485001  0.15066499  0.85494097  1
  Ca  Ca3  1  0.00484999  0.65066497  0.64505898  1
  Te  Te4  1  0.06587900  0.27726599  0.06763400  1
  Te  Te5  1  0.43412101  0.22273399  0.56763398  1
  Te  Te6  1  0.56587901  0.77726597  0.43236598  1
  O  O7  1  0.93412102  0.72273397  0.93236597  1
  O  O8  1  0.11201600  0.49830598  0.17652199  1
  O  O9  1  0.05980300  0.01238300  0.15221599  1
  O  O10  1  0.15116500  0.70977097  0.44993698  1
  O  O11  1  0.34883500  0.79022897  0.94993697  1
  O  O12  1  0.44019701  0.48761698  0.65221598  1
  O  O13  1  0.38798401  0.00169400  0.67652198  1
  O  O14  1  0.61201601  0.99830596  0.32347799  1
  O  O15  1  0.55980301  0.51238298  0.34778399  1
  O  O16  1  0.65116502  0.20977099  0.05006300  1
  O  O17  1  0.84883502  0.29022899  0.55006298  1
  O  O18  1  0.94019702  0.98761696  0.84778397  1
  O  O19  1  0.88798402  0.50169398  0.82347797  1
