# generated using pymatgen
data_LaAu
_symmetry_space_group_name_H-M   'P 1'
_cell_length_a   4.10239601
_cell_length_b   4.53527784
_cell_length_c   5.95423841
_cell_angle_alpha   90.00000000
_cell_angle_beta   110.15089417
_cell_angle_gamma   90.00000000
_symmetry_Int_Tables_number   1
_chemical_formula_structural   LaAu
_chemical_formula_sum   'La2 Au2'
_cell_volume   104.00052119
_cell_formula_units_Z   2
loop_
 _symmetry_equiv_pos_site_id
 _symmetry_equiv_pos_as_xyz
  1  'x, y, z'
loop_
 _atom_site_type_symbol
 _atom_site_label
 _atom_site_symmetry_multiplicity
 _atom_site_fract_x
 _atom_site_fract_y
 _atom_site_fract_z
 _atom_site_occupancy
  La  La0  1  0.14132400  0.00000000  0.28264799  1
  La  La1  1  0.85818898  0.50000002  0.71637795  1
  Au  Au2  1  0.56876699  0.50000002  0.13753398  1
  Au  Au3  1  0.43171999  1.00000003  0.86343996  1
