# generated using pymatgen
data_HfFe2
_symmetry_space_group_name_H-M   'P 1'
_cell_length_a   4.98824310
_cell_length_b   4.98824310
_cell_length_c   7.92026186
_cell_angle_alpha   90.00000000
_cell_angle_beta   90.00000000
_cell_angle_gamma   119.96733093
_symmetry_Int_Tables_number   1
_chemical_formula_structural   HfFe2
_chemical_formula_sum   'Hf4 Fe8'
_cell_volume   170.72938158
_cell_formula_units_Z   4
loop_
 _symmetry_equiv_pos_site_id
 _symmetry_equiv_pos_as_xyz
  1  'x, y, z'
loop_
 _atom_site_type_symbol
 _atom_site_label
 _atom_site_symmetry_multiplicity
 _atom_site_fract_x
 _atom_site_fract_y
 _atom_site_fract_z
 _atom_site_occupancy
  Hf  Hf0  1  0.33329799  0.66666666  0.93753802  1
  Hf  Hf1  1  0.66666666  0.33329800  0.06246200  1
  Hf  Hf2  1  0.66666666  0.33329800  0.43753801  1
  Hf  Hf3  1  0.33329799  0.66666666  0.56246201  1
  Fe  Fe4  1  0.65785999  0.82896499  0.25000000  1
  Fe  Fe5  1  0.17105799  0.82894199  0.25000000  1
  Fe  Fe6  1  0.17103500  0.34214000  0.25000000  1
  Fe  Fe7  1  0.34214000  0.17103500  0.75000001  1
  Fe  Fe8  1  0.82894199  0.17105800  0.75000001  1
  Fe  Fe9  1  0.82896499  0.65785999  0.75000001  1
  Fe  Fe10  1  0.00000000  0.00000000  0.50000001  1
  Fe  Fe11  1  0.00000000  0.00000000  0.00000000  1
