# generated using pymatgen
data_Er(CoGe)2
_symmetry_space_group_name_H-M   'P 1'
_cell_length_a   4.03660202
_cell_length_b   4.03660202
_cell_length_c   5.67210436
_cell_angle_alpha   110.84427643
_cell_angle_beta   110.84427643
_cell_angle_gamma   90.00000000
_symmetry_Int_Tables_number   1
_chemical_formula_structural   Er(CoGe)2
_chemical_formula_sum   'Er1 Co2 Ge2'
_cell_volume   79.86745078
_cell_formula_units_Z   1
loop_
 _symmetry_equiv_pos_site_id
 _symmetry_equiv_pos_as_xyz
  1  'x, y, z'
loop_
 _atom_site_type_symbol
 _atom_site_label
 _atom_site_symmetry_multiplicity
 _atom_site_fract_x
 _atom_site_fract_y
 _atom_site_fract_z
 _atom_site_occupancy
  Er  Er0  1  0.00000000  0.00000000  0.00000000  1
  Co  Co1  1  0.74999998  0.24999999  0.49999998  1
  Co  Co2  1  0.24999997  0.74999998  0.49999998  1
  Ge  Ge3  1  0.61923996  0.61923998  0.23847996  1
  Ge  Ge4  1  0.38075998  0.38075999  0.76152000  1
