# generated using pymatgen
data_Mg2RuO4
_symmetry_space_group_name_H-M   'P 1'
_cell_length_a   6.08723783
_cell_length_b   6.20421553
_cell_length_c   6.20421553
_cell_angle_alpha   61.07910538
_cell_angle_beta   60.62176895
_cell_angle_gamma   60.62176895
_symmetry_Int_Tables_number   1
_chemical_formula_structural   Mg2RuO4
_chemical_formula_sum   'Mg4 Ru2 O8'
_cell_volume   168.57014352
_cell_formula_units_Z   2
loop_
 _symmetry_equiv_pos_site_id
 _symmetry_equiv_pos_as_xyz
  1  'x, y, z'
loop_
 _atom_site_type_symbol
 _atom_site_label
 _atom_site_symmetry_multiplicity
 _atom_site_fract_x
 _atom_site_fract_y
 _atom_site_fract_z
 _atom_site_occupancy
  Mg  Mg0  1  0.86180602  0.38819401  0.88819405  1
  Mg  Mg1  1  0.13819400  0.61180602  0.11180602  1
  Mg  Mg2  1  0.50000001  0.00000000  0.50000003  1
  Mg  Mg3  1  1.00000002  0.00000000  0.50000003  1
  Ru  Ru4  1  0.50000001  1.00000003  0.00000003  1
  Ru  Ru5  1  0.50000001  0.50000001  0.50000003  1
  O  O6  1  0.73149002  0.75174202  0.25174203  1
  O  O7  1  0.26502601  0.75174202  0.25174203  1
  O  O8  1  0.26474101  0.21715401  0.25336402  1
  O  O9  1  0.26474101  0.75336402  0.71715404  1
  O  O10  1  0.73525902  0.24663601  0.28284603  1
  O  O11  1  0.73525902  0.78284602  0.74663605  1
  O  O12  1  0.73497402  0.24825801  0.74825804  1
  O  O13  1  0.26851001  0.24825801  0.74825804  1
