# generated using pymatgen
data_CeMn5S8
_symmetry_space_group_name_H-M   'P 1'
_cell_length_a   6.56415844
_cell_length_b   6.56415844
_cell_length_c   6.56415796
_cell_angle_alpha   94.20851135
_cell_angle_beta   94.20851135
_cell_angle_gamma   94.20849609
_symmetry_Int_Tables_number   1
_chemical_formula_structural   CeMn5S8
_chemical_formula_sum   'Ce1 Mn5 S8'
_cell_volume   280.43071722
_cell_formula_units_Z   1
loop_
 _symmetry_equiv_pos_site_id
 _symmetry_equiv_pos_as_xyz
  1  'x, y, z'
loop_
 _atom_site_type_symbol
 _atom_site_label
 _atom_site_symmetry_multiplicity
 _atom_site_fract_x
 _atom_site_fract_y
 _atom_site_fract_z
 _atom_site_occupancy
  Ce  Ce0  1  0.59173699  0.45063800  0.77962504  1
  Mn  Mn1  1  0.77962498  0.59173700  0.45063806  1
  Mn  Mn2  1  0.45063798  0.77962500  0.59173705  1
  Mn  Mn3  1  0.40826298  0.54936200  0.22037504  1
  Mn  Mn4  1  0.22037499  0.40826300  0.54936202  1
  Mn  Mn5  1  0.54936199  0.22037500  0.40826303  1
  S  S6  1  0.86552499  0.28256000  0.62264305  1
  S  S7  1  0.62264297  0.86552500  0.28256006  1
  S  S8  1  0.28255998  0.62264300  0.86552503  1
  S  S9  1  0.13447498  0.71744000  0.37735703  1
  S  S10  1  0.37735700  0.13447500  0.71744002  1
  S  S11  1  0.71743999  0.37735700  0.13447505  1
  S  S12  1  0.80932297  0.80932300  0.80932306  1
  S  S13  1  0.19067699  0.19067700  0.19067702  1
