# generated using pymatgen
data_Sr2In2Sn2PtAu
_symmetry_space_group_name_H-M   'P 1'
_cell_length_a   4.71228218
_cell_length_b   4.83157492
_cell_length_c   9.70231056
_cell_angle_alpha   90.00000000
_cell_angle_beta   90.00000000
_cell_angle_gamma   90.00000000
_symmetry_Int_Tables_number   1
_chemical_formula_structural   Sr2In2Sn2PtAu
_chemical_formula_sum   'Sr2 In2 Sn2 Pt1 Au1'
_cell_volume   220.89972683
_cell_formula_units_Z   1
loop_
 _symmetry_equiv_pos_site_id
 _symmetry_equiv_pos_as_xyz
  1  'x, y, z'
loop_
 _atom_site_type_symbol
 _atom_site_label
 _atom_site_symmetry_multiplicity
 _atom_site_fract_x
 _atom_site_fract_y
 _atom_site_fract_z
 _atom_site_occupancy
  Sr  Sr0  1  0.00000000  0.00000000  0.76092403  1
  Sr  Sr1  1  0.00000000  0.00000000  0.23907601  1
  In  In2  1  0.49999998  0.00000000  0.50000002  1
  In  In3  1  0.00000000  0.50000001  0.00000000  1
  Sn  Sn4  1  0.00000000  0.50000001  0.50000002  1
  Au  Au5  1  0.49999998  0.50000001  0.75342803  1
  Sn  Sn6  1  0.49999998  0.50000001  0.24657201  1
  Pt  Pt7  1  0.49999998  0.00000000  0.00000000  1
