# generated using pymatgen
data_KCr2Cu2MoF12
_symmetry_space_group_name_H-M   'P 1'
_cell_length_a   7.44611788
_cell_length_b   7.46771002
_cell_length_c   7.46771002
_cell_angle_alpha   60.31843185
_cell_angle_beta   60.09560013
_cell_angle_gamma   60.09560013
_symmetry_Int_Tables_number   1
_chemical_formula_structural   KCr2Cu2MoF12
_chemical_formula_sum   'K1 Cr2 Cu2 Mo1 F12'
_cell_volume   294.74953909
_cell_formula_units_Z   1
loop_
 _symmetry_equiv_pos_site_id
 _symmetry_equiv_pos_as_xyz
  1  'x, y, z'
loop_
 _atom_site_type_symbol
 _atom_site_label
 _atom_site_symmetry_multiplicity
 _atom_site_fract_x
 _atom_site_fract_y
 _atom_site_fract_z
 _atom_site_occupancy
  K  K0  1  0.48572300  0.48242401  0.98242303  1
  Cr  Cr1  1  0.95056901  0.51757701  0.01757700  1
  Mo  Mo2  1  0.00153999  0.50000001  0.50000002  1
  Cr  Cr3  1  0.00153998  1.00000002  1.00000005  1
  Cu  Cu4  1  0.00204800  0.00032300  0.50032301  1
  Cu  Cu5  1  0.50269399  0.99967702  0.49967703  1
  F  F6  1  0.93457402  0.31370301  0.81370301  1
  F  F7  1  0.30654099  0.94348402  0.44348403  1
  F  F8  1  0.31420499  0.93827702  0.80539504  1
  F  F9  1  0.94121302  0.30511801  0.44021400  1
  F  F10  1  0.94121401  0.94021302  0.80511803  1
  F  F11  1  0.31420500  0.30539501  0.43827701  1
  F  F12  1  0.06197999  0.68629701  0.18629702  1
  F  F13  1  0.69350902  0.05651700  0.55651600  1
  F  F14  1  0.68654502  0.05978600  0.19488199  1
  F  F15  1  0.05787699  0.69460401  0.56172303  1
  F  F16  1  0.05787700  0.06172200  0.19460500  1
  F  F17  1  0.68654600  0.69488101  0.55978602  1
