# generated using pymatgen
data_Li4Fe(SbO4)3
_symmetry_space_group_name_H-M   'P 1'
_cell_length_a   5.41302967
_cell_length_b   5.72349596
_cell_length_c   9.42926598
_cell_angle_alpha   73.70510864
_cell_angle_beta   89.31766510
_cell_angle_gamma   62.14404678
_symmetry_Int_Tables_number   1
_chemical_formula_structural   Li4Fe(SbO4)3
_chemical_formula_sum   'Li4 Fe1 Sb3 O12'
_cell_volume   245.44892782
_cell_formula_units_Z   1
loop_
 _symmetry_equiv_pos_site_id
 _symmetry_equiv_pos_as_xyz
  1  'x, y, z'
loop_
 _atom_site_type_symbol
 _atom_site_label
 _atom_site_symmetry_multiplicity
 _atom_site_fract_x
 _atom_site_fract_y
 _atom_site_fract_z
 _atom_site_occupancy
  Li  Li0  1  0.71123899  0.57366702  0.57582297  1
  Li  Li1  1  0.28782399  0.42790402  0.44408097  1
  Li  Li2  1  0.76728300  0.45415502  0.92490096  1
  Li  Li3  1  0.23819098  0.57056602  0.06915398  1
  Fe  Fe4  1  0.53552697  0.90710304  0.17585296  1
  Sb  Sb5  1  0.02433195  0.95153004  0.67034194  1
  Sb  Sb6  1  0.96814603  0.06391500  0.32457900  1
  Sb  Sb7  1  0.45816601  0.05147800  0.82958998  1
  O  O8  1  0.48165198  0.75186803  0.01990897  1
  O  O9  1  0.46736198  0.75634003  0.71145695  1
  O  O10  1  0.97910599  0.75207403  0.22717497  1
  O  O11  1  0.42257497  0.74649503  0.38180096  1
  O  O12  1  0.07784899  0.25834301  0.12590099  1
  O  O13  1  0.02512799  0.25931201  0.47008898  1
  O  O14  1  0.54704901  0.24363001  0.97586597  1
  O  O15  1  0.96494299  0.75494803  0.52399896  1
  O  O16  1  0.94214899  0.73624103  0.86902296  1
  O  O17  1  0.56759801  0.24156201  0.62768798  1
  O  O18  1  0.52382200  0.23843901  0.28230499  1
  O  O19  1  0.01005799  0.26043001  0.77046397  1
