# generated using pymatgen
data_Cs2Te2Se3
_symmetry_space_group_name_H-M   'P 1'
_cell_length_a   7.46358299
_cell_length_b   7.46358299
_cell_length_c   12.01011753
_cell_angle_alpha   90.00000000
_cell_angle_beta   90.00000000
_cell_angle_gamma   109.58452606
_symmetry_Int_Tables_number   1
_chemical_formula_structural   Cs2Te2Se3
_chemical_formula_sum   'Cs4 Te4 Se6'
_cell_volume   630.32005780
_cell_formula_units_Z   2
loop_
 _symmetry_equiv_pos_site_id
 _symmetry_equiv_pos_as_xyz
  1  'x, y, z'
loop_
 _atom_site_type_symbol
 _atom_site_label
 _atom_site_symmetry_multiplicity
 _atom_site_fract_x
 _atom_site_fract_y
 _atom_site_fract_z
 _atom_site_occupancy
  Cs  Cs0  1  0.61255400  0.61255401  0.50000002  1
  Cs  Cs1  1  0.61255400  0.61255401  -0.00000000  1
  Cs  Cs2  1  0.89400702  0.25015901  0.75000003  1
  Cs  Cs3  1  0.25015898  0.89400702  0.25000001  1
  Te  Te4  1  0.29890098  0.84738802  0.75000003  1
  Te  Te5  1  0.84738802  0.29890101  0.25000001  1
  Te  Te6  1  0.47332901  0.05032700  0.55853202  1
  Te  Te7  1  0.05032699  0.47332901  0.44146802  1
  Se  Se8  1  0.47332901  0.05032700  0.94146804  1
  Se  Se9  1  0.05032699  0.47332901  0.05853200  1
  Se  Se10  1  0.36203400  0.51698001  0.75000003  1
  Se  Se11  1  0.51698001  0.36203401  0.25000001  1
  Se  Se12  1  0.92504901  0.77106102  0.75000003  1
  Se  Se13  1  0.77106100  0.92504902  0.25000001  1
