# generated using pymatgen
data_Er2Ni3
_symmetry_space_group_name_H-M   'P 1'
_cell_length_a   3.69040704
_cell_length_b   3.86479592
_cell_length_c   7.35556889
_cell_angle_alpha   105.23105621
_cell_angle_beta   90.00000000
_cell_angle_gamma   90.00000000
_symmetry_Int_Tables_number   1
_chemical_formula_structural   Er2Ni3
_chemical_formula_sum   'Er2 Ni3'
_cell_volume   101.22500665
_cell_formula_units_Z   1
loop_
 _symmetry_equiv_pos_site_id
 _symmetry_equiv_pos_as_xyz
  1  'x, y, z'
loop_
 _atom_site_type_symbol
 _atom_site_label
 _atom_site_symmetry_multiplicity
 _atom_site_fract_x
 _atom_site_fract_y
 _atom_site_fract_z
 _atom_site_occupancy
  Er  Er0  1  0.49999999  0.36248600  0.72497201  1
  Er  Er1  1  0.49999999  0.63751401  0.27502800  1
  Ni  Ni2  1  0.00000000  0.00000000  0.00000000  1
  Ni  Ni3  1  -0.00000000  0.20128400  0.40256800  1
  Ni  Ni4  1  -0.00000000  0.79871601  0.59743200  1
