# generated using pymatgen
data_Ti7Ga3(NiSb)5
_symmetry_space_group_name_H-M   'P 1'
_cell_length_a   7.61908197
_cell_length_b   7.61908197
_cell_length_c   7.61908197
_cell_angle_alpha   109.47122192
_cell_angle_beta   109.47122192
_cell_angle_gamma   109.47122192
_symmetry_Int_Tables_number   1
_chemical_formula_structural   Ti7Ga3(NiSb)5
_chemical_formula_sum   'Ti7 Ga3 Ni5 Sb5'
_cell_volume   340.47562603
_cell_formula_units_Z   1
loop_
 _symmetry_equiv_pos_site_id
 _symmetry_equiv_pos_as_xyz
  1  'x, y, z'
loop_
 _atom_site_type_symbol
 _atom_site_label
 _atom_site_symmetry_multiplicity
 _atom_site_fract_x
 _atom_site_fract_y
 _atom_site_fract_z
 _atom_site_occupancy
  Ti  Ti0  1  0.50000005  0.75000002  0.25000005  1
  Ti  Ti1  1  0.25000003  0.50000002  0.75000003  1
  Ti  Ti2  1  0.75000003  0.50000002  0.25000004  1
  Ti  Ti3  1  0.25000005  0.75000002  0.50000004  1
  Ga  Ga4  1  0.75000002  0.25000001  0.50000003  1
  Ti  Ti5  1  0.50000002  0.25000001  0.75000002  1
  Ti  Ti6  1  0.66536506  1.00000003  1.00000006  1
  Ti  Ti7  1  0.66536504  0.66536502  0.66536505  1
  Ga  Ga8  1  0.00000000  0.00000000  0.33463500  1
  Ga  Ga9  1  1.00000002  0.33463501  1.00000004  1
  Sb  Sb10  1  0.00000000  0.00000000  0.66536500  1
  Ni  Ni11  1  1.00000004  0.66536502  0.00000006  1
  Sb  Sb12  1  0.33463502  0.33463501  0.33463502  1
  Sb  Sb13  1  0.33463506  1.00000003  1.00000006  1
  Ni  Ni14  1  0.00000002  0.33974801  0.33974802  1
  Ni  Ni15  1  0.66025206  1.00000003  0.66025207  1
  Sb  Sb16  1  0.33974806  1.00000003  0.33974806  1
  Ni  Ni17  1  0.33974802  0.33974801  1.00000002  1
  Sb  Sb18  1  0.66025204  0.66025202  1.00000005  1
  Ni  Ni19  1  1.00000004  0.66025202  0.66025206  1
