# generated using pymatgen
data_LiInSb
_symmetry_space_group_name_H-M   'P 1'
_cell_length_a   4.61540413
_cell_length_b   4.61540461
_cell_length_c   7.34112883
_cell_angle_alpha   90.00000000
_cell_angle_beta   90.00000000
_cell_angle_gamma   119.99999237
_symmetry_Int_Tables_number   1
_chemical_formula_structural   LiInSb
_chemical_formula_sum   'Li2 In2 Sb2'
_cell_volume   135.42942165
_cell_formula_units_Z   2
loop_
 _symmetry_equiv_pos_site_id
 _symmetry_equiv_pos_as_xyz
  1  'x, y, z'
loop_
 _atom_site_type_symbol
 _atom_site_label
 _atom_site_symmetry_multiplicity
 _atom_site_fract_x
 _atom_site_fract_y
 _atom_site_fract_z
 _atom_site_occupancy
  Li  Li0  1  0.00000000  0.00000000  0.50000001  1
  Li  Li1  1  0.33333330  0.66666668  0.64776402  1
  In  In2  1  0.66666663  0.33333334  0.35223601  1
  In  In3  1  0.00000000  0.00000000  0.00000000  1
  Sb  Sb4  1  0.33333330  0.66666668  0.25437601  1
  Sb  Sb5  1  0.66666663  0.33333334  0.74562402  1
