# generated using pymatgen
data_Bi2BrO2
_symmetry_space_group_name_H-M   'P 1'
_cell_length_a   4.02394819
_cell_length_b   4.02394819
_cell_length_c   7.05118799
_cell_angle_alpha   106.58343506
_cell_angle_beta   106.58343506
_cell_angle_gamma   89.98534393
_symmetry_Int_Tables_number   1
_chemical_formula_structural   Bi2BrO2
_chemical_formula_sum   'Bi2 Br1 O2'
_cell_volume   104.46276953
_cell_formula_units_Z   1
loop_
 _symmetry_equiv_pos_site_id
 _symmetry_equiv_pos_as_xyz
  1  'x, y, z'
loop_
 _atom_site_type_symbol
 _atom_site_label
 _atom_site_symmetry_multiplicity
 _atom_site_fract_x
 _atom_site_fract_y
 _atom_site_fract_z
 _atom_site_occupancy
  Bi  Bi0  1  0.34707601  0.34707600  0.69174601  1
  Bi  Bi1  1  0.65533002  0.65532999  0.30825400  1
  Br  Br2  1  0.00828800  0.00828800  -0.00000000  1
  O  O3  1  0.75257500  0.25257500  0.50000000  1
  O  O4  1  0.25257503  0.75257499  0.50000001  1
