# generated using pymatgen
data_Sr2RuF6
_symmetry_space_group_name_H-M   'P 1'
_cell_length_a   6.72964478
_cell_length_b   6.72964478
_cell_length_c   7.42427731
_cell_angle_alpha   89.67481232
_cell_angle_beta   89.67481232
_cell_angle_gamma   117.35503387
_symmetry_Int_Tables_number   1
_chemical_formula_structural   Sr2RuF6
_chemical_formula_sum   'Sr4 Ru2 F12'
_cell_volume   298.61509136
_cell_formula_units_Z   2
loop_
 _symmetry_equiv_pos_site_id
 _symmetry_equiv_pos_as_xyz
  1  'x, y, z'
loop_
 _atom_site_type_symbol
 _atom_site_label
 _atom_site_symmetry_multiplicity
 _atom_site_fract_x
 _atom_site_fract_y
 _atom_site_fract_z
 _atom_site_occupancy
  Sr  Sr0  1  0.68626397  0.36337898  0.99852207  1
  Sr  Sr1  1  0.63662097  0.31373599  0.50147805  1
  Sr  Sr2  1  0.36337896  0.68626397  0.49852206  1
  Sr  Sr3  1  0.31373596  0.63662097  0.00147804  1
  Ru  Ru4  1  0.96157998  0.03842000  0.75000006  1
  Ru  Ru5  1  0.03841995  0.96157996  0.25000005  1
  F  F6  1  0.06134595  0.84939796  0.95644506  1
  F  F7  1  0.15060195  0.93865396  0.54355506  1
  F  F8  1  0.93865397  0.15060199  0.04355505  1
  F  F9  1  0.84939798  0.06134600  0.45644505  1
  F  F10  1  0.39822099  0.01120700  0.22419702  1
  F  F11  1  0.98879295  0.60177897  0.27580307  1
  F  F12  1  0.32314098  0.29292799  0.79061505  1
  F  F13  1  0.70707195  0.67685897  0.70938508  1
  F  F14  1  0.67685895  0.70707197  0.20938506  1
  F  F15  1  0.29292798  0.32314099  0.29061503  1
  F  F16  1  0.01120698  0.39822098  0.72419704  1
  F  F17  1  0.60177894  0.98879295  0.77580309  1
