# generated using pymatgen
data_Ba2NiF6
_symmetry_space_group_name_H-M   'P 1'
_cell_length_a   4.22296000
_cell_length_b   4.22296000
_cell_length_c   8.49515533
_cell_angle_alpha   104.39179230
_cell_angle_beta   104.39179230
_cell_angle_gamma   90.00000000
_symmetry_Int_Tables_number   1
_chemical_formula_structural   Ba2NiF6
_chemical_formula_sum   'Ba2 Ni1 F6'
_cell_volume   141.82980657
_cell_formula_units_Z   1
loop_
 _symmetry_equiv_pos_site_id
 _symmetry_equiv_pos_as_xyz
  1  'x, y, z'
loop_
 _atom_site_type_symbol
 _atom_site_label
 _atom_site_symmetry_multiplicity
 _atom_site_fract_x
 _atom_site_fract_y
 _atom_site_fract_z
 _atom_site_occupancy
  Ba  Ba0  1  0.14943501  0.14943500  0.29887002  1
  Ba  Ba1  1  0.85056505  0.85056502  0.70113008  1
  Ni  Ni2  1  0.50000003  0.50000001  0.00000004  1
  F  F3  1  0.38034002  0.38034001  0.76068005  1
  F  F4  1  0.00000002  0.50000001  0.00000002  1
  F  F5  1  0.50000001  0.00000000  0.00000002  1
  F  F6  1  0.61966003  0.61966001  0.23932005  1
  F  F7  1  0.25000003  0.75000001  0.50000005  1
  F  F8  1  0.75000002  0.25000000  0.50000005  1
