# generated using pymatgen
data_NdMgAu
_symmetry_space_group_name_H-M   'P 1'
_cell_length_a   4.31446314
_cell_length_b   7.72818613
_cell_length_c   7.72818565
_cell_angle_alpha   120.00000000
_cell_angle_beta   90.00000000
_cell_angle_gamma   90.00000000
_symmetry_Int_Tables_number   1
_chemical_formula_structural   NdMgAu
_chemical_formula_sum   'Nd3 Mg3 Au3'
_cell_volume   223.15802774
_cell_formula_units_Z   3
loop_
 _symmetry_equiv_pos_site_id
 _symmetry_equiv_pos_as_xyz
  1  'x, y, z'
loop_
 _atom_site_type_symbol
 _atom_site_label
 _atom_site_symmetry_multiplicity
 _atom_site_fract_x
 _atom_site_fract_y
 _atom_site_fract_z
 _atom_site_occupancy
  Nd  Nd0  1  0.49999998  0.00000000  0.41450700  1
  Nd  Nd1  1  0.49999998  0.41450699  -0.00000001  1
  Nd  Nd2  1  0.49999998  0.58549298  0.58549298  1
  Mg  Mg3  1  0.00000000  0.00000000  0.75746000  1
  Mg  Mg4  1  -0.00000000  0.75745998  0.99999998  1
  Mg  Mg5  1  0.99999997  0.24253999  0.24253999  1
  Au  Au6  1  -0.00000000  0.66666665  0.33333331  1
  Au  Au7  1  0.99999997  0.33333332  0.66666666  1
  Au  Au8  1  0.49999998  0.00000000  -0.00000000  1
