# generated using pymatgen
data_Cs2Te3ClO12
_symmetry_space_group_name_H-M   'P 1'
_cell_length_a   7.42152977
_cell_length_b   7.42152977
_cell_length_c   7.42152977
_cell_angle_alpha   60.00000000
_cell_angle_beta   60.00000000
_cell_angle_gamma   60.00000000
_symmetry_Int_Tables_number   1
_chemical_formula_structural   Cs2Te3ClO12
_chemical_formula_sum   'Cs2 Te3 Cl1 O12'
_cell_volume   289.04489523
_cell_formula_units_Z   1
loop_
 _symmetry_equiv_pos_site_id
 _symmetry_equiv_pos_as_xyz
  1  'x, y, z'
loop_
 _atom_site_type_symbol
 _atom_site_label
 _atom_site_symmetry_multiplicity
 _atom_site_fract_x
 _atom_site_fract_y
 _atom_site_fract_z
 _atom_site_occupancy
  Cs  Cs0  1  0.25000000  0.25000000  0.25000000  1
  Cs  Cs1  1  0.50000000  0.50000000  0.50000000  1
  Te  Te2  1  0.37500000  0.87500000  0.87500000  1
  Te  Te3  1  0.87500000  0.87500000  0.37500000  1
  Te  Te4  1  0.87500000  0.87500000  0.87500000  1
  Cl  Cl5  1  0.87500000  0.37500000  0.87500000  1
  O  O6  1  0.93632499  0.56367500  0.93632499  1
  O  O7  1  0.81367500  0.81367500  0.18632500  1
  O  O8  1  0.18632500  0.81367500  0.18632500  1
  O  O9  1  0.56367500  0.93632499  0.93632499  1
  O  O10  1  0.56367500  0.56367500  0.93632499  1
  O  O11  1  0.93632499  0.56367500  0.56367500  1
  O  O12  1  0.18632500  0.18632500  0.81367500  1
  O  O13  1  0.18632500  0.81367500  0.81367500  1
  O  O14  1  0.81367500  0.18632500  0.18632500  1
  O  O15  1  0.56367500  0.93632499  0.56367500  1
  O  O16  1  0.93632499  0.93632499  0.56367500  1
  O  O17  1  0.81367500  0.18632500  0.81367500  1
