# generated using pymatgen
data_MnFeS4
_symmetry_space_group_name_H-M   'P 1'
_cell_length_a   3.25803304
_cell_length_b   4.68157291
_cell_length_c   5.55288076
_cell_angle_alpha   90.00000000
_cell_angle_beta   90.00000000
_cell_angle_gamma   90.00000000
_symmetry_Int_Tables_number   1
_chemical_formula_structural   MnFeS4
_chemical_formula_sum   'Mn1 Fe1 S4'
_cell_volume   84.69653116
_cell_formula_units_Z   1
loop_
 _symmetry_equiv_pos_site_id
 _symmetry_equiv_pos_as_xyz
  1  'x, y, z'
loop_
 _atom_site_type_symbol
 _atom_site_label
 _atom_site_symmetry_multiplicity
 _atom_site_fract_x
 _atom_site_fract_y
 _atom_site_fract_z
 _atom_site_occupancy
  Mn  Mn0  1  0.49999999  0.50000001  0.50000002  1
  Fe  Fe1  1  0.00000000  0.00000000  0.00000000  1
  S  S2  1  0.49999999  0.69813801  0.13161801  1
  S  S3  1  0.49999999  0.30186201  0.86838204  1
  S  S4  1  -0.00000000  0.19813800  0.36838202  1
  S  S5  1  -0.00000000  0.80186201  0.63161803  1
