# generated using pymatgen
data_NaN
_symmetry_space_group_name_H-M   'P 1'
_cell_length_a   3.70152593
_cell_length_b   3.70152545
_cell_length_c   14.26444244
_cell_angle_alpha   90.00000000
_cell_angle_beta   90.00000000
_cell_angle_gamma   120.00000763
_symmetry_Int_Tables_number   1
_chemical_formula_structural   NaN
_chemical_formula_sum   'Na4 N4'
_cell_volume   169.25711525
_cell_formula_units_Z   4
loop_
 _symmetry_equiv_pos_site_id
 _symmetry_equiv_pos_as_xyz
  1  'x, y, z'
loop_
 _atom_site_type_symbol
 _atom_site_label
 _atom_site_symmetry_multiplicity
 _atom_site_fract_x
 _atom_site_fract_y
 _atom_site_fract_z
 _atom_site_occupancy
  Na  Na0  1  0.66666670  0.33333335  0.40981499  1
  Na  Na1  1  0.33333338  0.66666670  0.59018498  1
  Na  Na2  1  0.33333338  0.66666670  0.90981497  1
  Na  Na3  1  0.66666670  0.33333335  0.09018500  1
  N  N4  1  0.00000000  0.00000000  0.00000000  1
  N  N5  1  0.00000000  0.00000000  0.49999998  1
  N  N6  1  0.66666670  0.33333335  0.74999998  1
  N  N7  1  0.33333338  0.66666670  0.24999999  1
