# generated using pymatgen
data_TaNb3C2
_symmetry_space_group_name_H-M   'P 1'
_cell_length_a   2.84936595
_cell_length_b   2.84936666
_cell_length_c   9.74436188
_cell_angle_alpha   90.00000000
_cell_angle_beta   90.00000000
_cell_angle_gamma   119.99999237
_symmetry_Int_Tables_number   1
_chemical_formula_structural   TaNb3C2
_chemical_formula_sum   'Ta1 Nb3 C2'
_cell_volume   68.51420746
_cell_formula_units_Z   1
loop_
 _symmetry_equiv_pos_site_id
 _symmetry_equiv_pos_as_xyz
  1  'x, y, z'
loop_
 _atom_site_type_symbol
 _atom_site_label
 _atom_site_symmetry_multiplicity
 _atom_site_fract_x
 _atom_site_fract_y
 _atom_site_fract_z
 _atom_site_occupancy
  Ta  Ta0  1  0.66666667  0.33333332  0.60797101  1
  Nb  Nb1  1  0.33333333  0.66666664  0.39202900  1
  Nb  Nb2  1  0.33333333  0.66666664  0.10797100  1
  Nb  Nb3  1  0.66666667  0.33333332  0.89202901  1
  C  C4  1  0.66666667  0.33333332  0.25000000  1
  C  C5  1  0.33333333  0.66666664  0.75000001  1
