# generated using pymatgen
data_CsBa2Bi(Cl3O2)2
_symmetry_space_group_name_H-M   'P 1'
_cell_length_a   5.02085781
_cell_length_b   6.24523783
_cell_length_c   15.05198956
_cell_angle_alpha   90.00000000
_cell_angle_beta   90.00000000
_cell_angle_gamma   113.70169830
_symmetry_Int_Tables_number   1
_chemical_formula_structural   CsBa2Bi(Cl3O2)2
_chemical_formula_sum   'Cs1 Ba2 Bi1 Cl6 O4'
_cell_volume   432.16603740
_cell_formula_units_Z   1
loop_
 _symmetry_equiv_pos_site_id
 _symmetry_equiv_pos_as_xyz
  1  'x, y, z'
loop_
 _atom_site_type_symbol
 _atom_site_label
 _atom_site_symmetry_multiplicity
 _atom_site_fract_x
 _atom_site_fract_y
 _atom_site_fract_z
 _atom_site_occupancy
  Cs  Cs0  1  0.80489401  0.60978797  0.88861603  1
  Ba  Ba1  1  0.19510600  0.39021198  0.11138400  1
  Bi  Bi2  1  0.80489401  0.60978797  0.61138402  1
  Ba  Ba3  1  0.19510600  0.39021198  0.38861601  1
  Cl  Cl4  1  0.51804302  0.03608600  0.75000002  1
  O  O5  1  0.48195699  0.96391396  0.25000001  1
  Cl  Cl6  1  0.50000002  0.00000000  1.00000003  1
  Cl  Cl7  1  0.50000002  0.00000000  0.50000001  1
  O  O8  1  0.88639501  0.77278997  0.37494201  1
  O  O9  1  0.11360500  0.22720999  0.62505802  1
  Cl  Cl10  1  0.11360500  0.22720999  0.87494203  1
  Cl  Cl11  1  0.88639501  0.77278997  0.12505800  1
  Cl  Cl12  1  0.21219700  0.42439398  0.75000002  1
  O  O13  1  0.78780301  0.57560597  0.25000001  1
