# generated using pymatgen
data_Ce2Pt3
_symmetry_space_group_name_H-M   'P 1'
_cell_length_a   4.23003006
_cell_length_b   5.51189423
_cell_length_c   5.56002617
_cell_angle_alpha   119.71404266
_cell_angle_beta   112.35825348
_cell_angle_gamma   90.00000000
_symmetry_Int_Tables_number   1
_chemical_formula_structural   Ce2Pt3
_chemical_formula_sum   'Ce2 Pt3'
_cell_volume   101.21538560
_cell_formula_units_Z   1
loop_
 _symmetry_equiv_pos_site_id
 _symmetry_equiv_pos_as_xyz
  1  'x, y, z'
loop_
 _atom_site_type_symbol
 _atom_site_label
 _atom_site_symmetry_multiplicity
 _atom_site_fract_x
 _atom_site_fract_y
 _atom_site_fract_z
 _atom_site_occupancy
  Ce  Ce0  1  0.79518700  0.29518698  0.59037400  1
  Ce  Ce1  1  0.20481300  0.70481295  0.40962595  1
  Pt  Pt2  1  0.00000000  0.00000000  0.00000000  1
  Pt  Pt3  1  0.50000000  0.26732698  0.00000000  1
  Pt  Pt4  1  0.50000000  0.73267295  -0.00000003  1
