# generated using pymatgen
data_Li2CuF6
_symmetry_space_group_name_H-M   'P 1'
_cell_length_a   4.61463690
_cell_length_b   4.62036419
_cell_length_c   8.74836254
_cell_angle_alpha   90.00000000
_cell_angle_beta   90.00000000
_cell_angle_gamma   90.00000000
_symmetry_Int_Tables_number   1
_chemical_formula_structural   Li2CuF6
_chemical_formula_sum   'Li4 Cu2 F12'
_cell_volume   186.52648910
_cell_formula_units_Z   2
loop_
 _symmetry_equiv_pos_site_id
 _symmetry_equiv_pos_as_xyz
  1  'x, y, z'
loop_
 _atom_site_type_symbol
 _atom_site_label
 _atom_site_symmetry_multiplicity
 _atom_site_fract_x
 _atom_site_fract_y
 _atom_site_fract_z
 _atom_site_occupancy
  Li  Li0  1  0.75746602  0.98150296  0.18074801  1
  Li  Li1  1  0.77438902  0.03322100  0.50000003  1
  Li  Li2  1  0.75746602  0.98150296  0.81925204  1
  Li  Li3  1  0.24253401  0.48150298  0.31925202  1
  Cu  Cu4  1  0.22561100  0.53322098  0.00000000  1
  Cu  Cu5  1  0.24253401  0.48150298  0.68074804  1
  F  F6  1  0.95335502  0.79657097  0.33508302  1
  F  F7  1  0.95335502  0.79657097  0.66491703  1
  F  F8  1  0.93777802  0.81051297  0.00000000  1
  F  F9  1  0.04664500  0.29657099  0.16491701  1
  F  F10  1  0.06222200  0.31051299  0.50000003  1
  F  F11  1  0.04664500  0.29657099  0.83508304  1
  F  F12  1  0.44900701  0.70003097  0.16492301  1
  F  F13  1  0.44900701  0.70003097  0.83507704  1
  F  F14  1  0.55099301  0.20003099  0.33507702  1
  F  F15  1  0.55099301  0.20003099  0.66492303  1
  F  F16  1  0.45048401  0.69980197  0.50000003  1
  F  F17  1  0.54951601  0.19980199  0.00000000  1
