# generated using pymatgen
data_Cs2LiHN
_symmetry_space_group_name_H-M   'P 1'
_cell_length_a   5.25844288
_cell_length_b   5.75721979
_cell_length_c   5.75722027
_cell_angle_alpha   60.00000000
_cell_angle_beta   90.00000000
_cell_angle_gamma   90.00000000
_symmetry_Int_Tables_number   1
_chemical_formula_structural   Cs2LiHN
_chemical_formula_sum   'Cs2 Li1 H1 N1'
_cell_volume   150.94316346
_cell_formula_units_Z   1
loop_
 _symmetry_equiv_pos_site_id
 _symmetry_equiv_pos_as_xyz
  1  'x, y, z'
loop_
 _atom_site_type_symbol
 _atom_site_label
 _atom_site_symmetry_multiplicity
 _atom_site_fract_x
 _atom_site_fract_y
 _atom_site_fract_z
 _atom_site_occupancy
  Cs  Cs0  1  0.73064502  0.33333335  0.33333332  1
  Cs  Cs1  1  0.26935501  0.66666670  0.66666664  1
  Li  Li2  1  0.00000000  0.00000000  0.00000000  1
  N  N3  1  0.62131801  0.00000000  -0.00000000  1
  H  H4  1  0.37868201  0.00000000  0.00000000  1
