# generated using pymatgen
data_Ta4Co7Si
_symmetry_space_group_name_H-M   'P 1'
_cell_length_a   4.73833179
_cell_length_b   4.73833227
_cell_length_c   7.80804396
_cell_angle_alpha   90.00000000
_cell_angle_beta   90.00000000
_cell_angle_gamma   120.00000000
_symmetry_Int_Tables_number   1
_chemical_formula_structural   Ta4Co7Si
_chemical_formula_sum   'Ta4 Co7 Si1'
_cell_volume   151.81820824
_cell_formula_units_Z   1
loop_
 _symmetry_equiv_pos_site_id
 _symmetry_equiv_pos_as_xyz
  1  'x, y, z'
loop_
 _atom_site_type_symbol
 _atom_site_label
 _atom_site_symmetry_multiplicity
 _atom_site_fract_x
 _atom_site_fract_y
 _atom_site_fract_z
 _atom_site_occupancy
  Ta  Ta0  1  0.66666670  0.33333332  0.56293600  1
  Ta  Ta1  1  0.33333336  0.66666665  0.06293600  1
  Ta  Ta2  1  0.33333336  0.66666665  0.43706400  1
  Ta  Ta3  1  0.66666670  0.33333332  0.93706401  1
  Co  Co4  1  0.34433602  0.17216799  0.25000000  1
  Co  Co5  1  0.65566404  0.82783198  0.75000000  1
  Co  Co6  1  0.17216801  0.34433599  0.75000000  1
  Co  Co7  1  0.82783204  0.17216799  0.25000000  1
  Co  Co8  1  0.82783205  0.65566398  0.25000000  1
  Co  Co9  1  0.17216802  0.82783198  0.75000000  1
  Co  Co10  1  0.00000000  0.00000000  0.50000000  1
  Si  Si11  1  0.00000000  0.00000000  0.00000000  1
