# generated using pymatgen
data_LiZrO2
_symmetry_space_group_name_H-M   'P 1'
_cell_length_a   5.99263811
_cell_length_b   6.12554789
_cell_length_c   6.04219341
_cell_angle_alpha   90.00000000
_cell_angle_beta   61.82712173
_cell_angle_gamma   90.00000000
_symmetry_Int_Tables_number   1
_chemical_formula_structural   LiZrO2
_chemical_formula_sum   'Li4 Zr4 O8'
_cell_volume   195.52092963
_cell_formula_units_Z   4
loop_
 _symmetry_equiv_pos_site_id
 _symmetry_equiv_pos_as_xyz
  1  'x, y, z'
loop_
 _atom_site_type_symbol
 _atom_site_label
 _atom_site_symmetry_multiplicity
 _atom_site_fract_x
 _atom_site_fract_y
 _atom_site_fract_z
 _atom_site_occupancy
  Li  Li0  1  0.27845300  0.85253702  0.45442099  1
  Li  Li1  1  0.72154700  0.35253701  0.04557898  1
  Li  Li2  1  0.27845300  0.64746301  0.95442100  1
  Li  Li3  1  0.72154700  0.14746300  0.54557898  1
  Zr  Zr4  1  0.23888100  0.12853900  0.01405999  1
  Zr  Zr5  1  0.23888100  0.37146101  0.51406000  1
  Zr  Zr6  1  0.76111900  0.62853901  0.48593998  1
  Zr  Zr7  1  0.76111900  0.87146102  0.98593998  1
  O  O8  1  0.99945800  0.84286502  0.17838797  1
  O  O9  1  0.99945800  0.65713501  0.67838797  1
  O  O10  1  0.45844200  0.11247100  0.23440499  1
  O  O11  1  0.54155800  0.61247101  0.26559498  1
  O  O12  1  0.45844200  0.38752901  0.73440499  1
  O  O13  1  0.54155800  0.88752902  0.76559499  1
  O  O14  1  0.00054200  0.34286501  0.32161200  1
  O  O15  1  0.00054200  0.15713500  0.82161201  1
