# generated using pymatgen
data_Li2CuH5
_symmetry_space_group_name_H-M   'P 1'
_cell_length_a   3.56452608
_cell_length_b   3.56452584
_cell_length_c   6.34897995
_cell_angle_alpha   90.00000000
_cell_angle_beta   90.00000000
_cell_angle_gamma   120.00000000
_symmetry_Int_Tables_number   1
_chemical_formula_structural   Li2CuH5
_chemical_formula_sum   'Li2 Cu1 H5'
_cell_volume   69.86153949
_cell_formula_units_Z   1
loop_
 _symmetry_equiv_pos_site_id
 _symmetry_equiv_pos_as_xyz
  1  'x, y, z'
loop_
 _atom_site_type_symbol
 _atom_site_label
 _atom_site_symmetry_multiplicity
 _atom_site_fract_x
 _atom_site_fract_y
 _atom_site_fract_z
 _atom_site_occupancy
  Li  Li0  1  0.00000000  0.00000000  0.75000001  1
  Li  Li1  1  0.00000000  0.00000000  0.25000000  1
  Cu  Cu2  1  0.66666665  0.33333334  0.42334700  1
  H  H3  1  0.33333332  0.66666668  0.92334701  1
  H  H4  1  0.33333332  0.66666668  0.57665300  1
  H  H5  1  0.66666665  0.33333334  0.07665300  1
  H  H6  1  0.66666665  0.33333334  0.75000001  1
  H  H7  1  0.33333332  0.66666668  0.25000000  1
