# generated using pymatgen
data_BaAg2Pt3
_symmetry_space_group_name_H-M   'P 1'
_cell_length_a   4.51110792
_cell_length_b   5.51429796
_cell_length_c   10.03019333
_cell_angle_alpha   90.00000000
_cell_angle_beta   90.00000000
_cell_angle_gamma   90.00000000
_symmetry_Int_Tables_number   1
_chemical_formula_structural   BaAg2Pt3
_chemical_formula_sum   'Ba2 Ag4 Pt6'
_cell_volume   249.50700916
_cell_formula_units_Z   2
loop_
 _symmetry_equiv_pos_site_id
 _symmetry_equiv_pos_as_xyz
  1  'x, y, z'
loop_
 _atom_site_type_symbol
 _atom_site_label
 _atom_site_symmetry_multiplicity
 _atom_site_fract_x
 _atom_site_fract_y
 _atom_site_fract_z
 _atom_site_occupancy
  Ba  Ba0  1  0.00000000  0.50000000  0.00000000  1
  Ba  Ba1  1  0.00000000  0.00000000  0.49999998  1
  Ag  Ag2  1  0.50000001  0.00000000  0.00000000  1
  Ag  Ag3  1  0.50000001  0.75136201  0.25188099  1
  Ag  Ag4  1  0.50000001  0.24863800  0.74811898  1
  Ag  Ag5  1  0.50000001  0.24863800  0.25188099  1
  Pt  Pt6  1  0.50000001  0.75136201  0.74811898  1
  Pt  Pt7  1  0.00000000  0.50000000  0.31629299  1
  Pt  Pt8  1  0.00000000  0.00000000  0.83283497  1
  Pt  Pt9  1  0.00000000  0.00000000  0.16716499  1
  Pt  Pt10  1  0.00000000  0.50000000  0.68370698  1
  Pt  Pt11  1  0.50000001  0.50000000  0.49999998  1
