# generated using pymatgen
data_Ce2Ni2Sn
_symmetry_space_group_name_H-M   'P 1'
_cell_length_a   4.27708817
_cell_length_b   5.45296431
_cell_length_c   5.45296431
_cell_angle_alpha   63.35200882
_cell_angle_beta   66.90978241
_cell_angle_gamma   66.90978241
_symmetry_Int_Tables_number   1
_chemical_formula_structural   Ce2Ni2Sn
_chemical_formula_sum   'Ce2 Ni2 Sn1'
_cell_volume   100.88032616
_cell_formula_units_Z   1
loop_
 _symmetry_equiv_pos_site_id
 _symmetry_equiv_pos_as_xyz
  1  'x, y, z'
loop_
 _atom_site_type_symbol
 _atom_site_label
 _atom_site_symmetry_multiplicity
 _atom_site_fract_x
 _atom_site_fract_y
 _atom_site_fract_z
 _atom_site_occupancy
  Ce  Ce0  1  0.79668198  0.70331802  0.70331801  1
  Ce  Ce1  1  0.20331800  0.29668201  0.29668200  1
  Ni  Ni2  1  0.49999999  0.70783502  0.29216499  1
  Ni  Ni3  1  0.49999998  0.29216501  0.70783501  1
  Sn  Sn4  1  0.00000000  0.00000000  0.00000000  1
