# generated using pymatgen
data_Cu2O3
_symmetry_space_group_name_H-M   'P 1'
_cell_length_a   6.48098707
_cell_length_b   6.48098707
_cell_length_c   6.48098707
_cell_angle_alpha   60.00000000
_cell_angle_beta   60.00000000
_cell_angle_gamma   60.00000000
_symmetry_Int_Tables_number   1
_chemical_formula_structural   Cu2O3
_chemical_formula_sum   'Cu6 O9'
_cell_volume   192.49013079
_cell_formula_units_Z   3
loop_
 _symmetry_equiv_pos_site_id
 _symmetry_equiv_pos_as_xyz
  1  'x, y, z'
loop_
 _atom_site_type_symbol
 _atom_site_label
 _atom_site_symmetry_multiplicity
 _atom_site_fract_x
 _atom_site_fract_y
 _atom_site_fract_z
 _atom_site_occupancy
  Cu  Cu0  1  0.00000000  0.00000000  0.00000000  1
  Cu  Cu1  1  -0.00000000  1.00000002  0.50000001  1
  Cu  Cu2  1  0.50000001  0.00000000  0.50000001  1
  Cu  Cu3  1  0.50000001  1.00000002  1.00000002  1
  Cu  Cu4  1  0.50000001  0.50000001  -0.00000000  1
  Cu  Cu5  1  -0.00000000  0.50000001  0.50000001  1
  O  O6  1  -0.00000000  0.50000001  1.00000002  1
  O  O7  1  0.14485400  0.56544001  0.14485300  1
  O  O8  1  0.43455901  0.85514702  0.85514702  1
  O  O9  1  0.85514602  0.85514702  0.43456001  1
  O  O10  1  0.14485400  0.14485300  0.14485300  1
  O  O11  1  0.14485400  0.14485300  0.56544001  1
  O  O12  1  0.85514602  0.85514702  0.85514702  1
  O  O13  1  0.56544101  0.14485300  0.14485300  1
  O  O14  1  0.85514602  0.43456001  0.85514702  1
