# generated using pymatgen
data_SmSnPt
_symmetry_space_group_name_H-M   'P 1'
_cell_length_a   4.06376219
_cell_length_b   7.80600023
_cell_length_c   7.80599976
_cell_angle_alpha   120.00000000
_cell_angle_beta   90.00000000
_cell_angle_gamma   90.00000000
_symmetry_Int_Tables_number   1
_chemical_formula_structural   SmSnPt
_chemical_formula_sum   'Sm3 Sn3 Pt3'
_cell_volume   214.44504212
_cell_formula_units_Z   3
loop_
 _symmetry_equiv_pos_site_id
 _symmetry_equiv_pos_as_xyz
  1  'x, y, z'
loop_
 _atom_site_type_symbol
 _atom_site_label
 _atom_site_symmetry_multiplicity
 _atom_site_fract_x
 _atom_site_fract_y
 _atom_site_fract_z
 _atom_site_occupancy
  Sm  Sm0  1  0.49999998  0.99999996  0.40813698  1
  Sm  Sm1  1  0.49999998  0.40813698  -0.00000001  1
  Sm  Sm2  1  0.49999998  0.59186298  0.59186299  1
  Sn  Sn3  1  0.99999995  0.00000000  0.74282300  1
  Sn  Sn4  1  -0.00000000  0.74282297  -0.00000002  1
  Sn  Sn5  1  -0.00000000  0.25717699  0.25717699  1
  Pt  Pt6  1  0.49999998  0.00000000  -0.00000000  1
  Pt  Pt7  1  0.99999995  0.66666664  0.33333332  1
  Pt  Pt8  1  -0.00000000  0.33333332  0.66666666  1
