# generated using pymatgen
data_SmMgPt
_symmetry_space_group_name_H-M   'P 1'
_cell_length_a   4.10635710
_cell_length_b   7.77109814
_cell_length_c   7.77109861
_cell_angle_alpha   120.00000000
_cell_angle_beta   90.00000000
_cell_angle_gamma   90.00000000
_symmetry_Int_Tables_number   1
_chemical_formula_structural   SmMgPt
_chemical_formula_sum   'Sm3 Mg3 Pt3'
_cell_volume   214.75938871
_cell_formula_units_Z   3
loop_
 _symmetry_equiv_pos_site_id
 _symmetry_equiv_pos_as_xyz
  1  'x, y, z'
loop_
 _atom_site_type_symbol
 _atom_site_label
 _atom_site_symmetry_multiplicity
 _atom_site_fract_x
 _atom_site_fract_y
 _atom_site_fract_z
 _atom_site_occupancy
  Sm  Sm0  1  -0.00000000  0.40837700  0.40837702  1
  Sm  Sm1  1  0.99999998  1.00000001  0.59162305  1
  Sm  Sm2  1  -0.00000000  0.59162301  0.00000003  1
  Mg  Mg3  1  0.49999999  0.74885801  0.74885804  1
  Mg  Mg4  1  0.49999999  1.00000001  0.25114205  1
  Mg  Mg5  1  0.49999999  0.25114200  0.00000001  1
  Pt  Pt6  1  0.49999999  0.66666667  0.33333337  1
  Pt  Pt7  1  0.49999999  0.33333334  0.66666668  1
  Pt  Pt8  1  0.00000000  0.00000000  0.00000000  1
