# generated using pymatgen
data_Ca3CeNd8
_symmetry_space_group_name_H-M   'P 1'
_cell_length_a   3.65135407
_cell_length_b   3.65135455
_cell_length_c   35.59005737
_cell_angle_alpha   90.00000000
_cell_angle_beta   90.00000000
_cell_angle_gamma   119.99999237
_symmetry_Int_Tables_number   1
_chemical_formula_structural   Ca3CeNd8
_chemical_formula_sum   'Ca3 Ce1 Nd8'
_cell_volume   410.92948854
_cell_formula_units_Z   1
loop_
 _symmetry_equiv_pos_site_id
 _symmetry_equiv_pos_as_xyz
  1  'x, y, z'
loop_
 _atom_site_type_symbol
 _atom_site_label
 _atom_site_symmetry_multiplicity
 _atom_site_fract_x
 _atom_site_fract_y
 _atom_site_fract_z
 _atom_site_occupancy
  Nd  Nd0  1  0.66666664  0.33333333  0.33343200  1
  Nd  Nd1  1  0.66666664  0.33333333  0.66656799  1
  Nd  Nd2  1  0.00000000  0.00000000  0.08314700  1
  Nd  Nd3  1  0.00000000  0.00000000  0.41914200  1
  Ca  Ca4  1  0.00000000  0.00000000  0.75262699  1
  Ca  Ca5  1  0.00000000  0.00000000  0.91685299  1
  Nd  Nd6  1  0.00000000  0.00000000  0.24737300  1
  Nd  Nd7  1  0.00000000  0.00000000  0.58085799  1
  Nd  Nd8  1  0.33333330  0.66666666  0.16632800  1
  Nd  Nd9  1  0.33333330  0.66666666  0.49999999  1
  Ca  Ca10  1  0.33333330  0.66666666  0.83367199  1
  Ce  Ce11  1  0.66666664  0.33333333  -0.00000000  1
