# generated using pymatgen
data_NdFe3P13
_symmetry_space_group_name_H-M   'P 1'
_cell_length_a   6.76394224
_cell_length_b   6.76394272
_cell_length_c   6.76394272
_cell_angle_alpha   109.47121429
_cell_angle_beta   109.47122192
_cell_angle_gamma   109.47122192
_symmetry_Int_Tables_number   1
_chemical_formula_structural   NdFe3P13
_chemical_formula_sum   'Nd1 Fe3 P13'
_cell_volume   238.21980343
_cell_formula_units_Z   1
loop_
 _symmetry_equiv_pos_site_id
 _symmetry_equiv_pos_as_xyz
  1  'x, y, z'
loop_
 _atom_site_type_symbol
 _atom_site_label
 _atom_site_symmetry_multiplicity
 _atom_site_fract_x
 _atom_site_fract_y
 _atom_site_fract_z
 _atom_site_occupancy
  Nd  Nd0  1  0.00000000  0.00000000  0.00000000  1
  Fe  Fe1  1  0.00000000  0.00000000  0.49999999  1
  Fe  Fe2  1  0.50000002  0.49999999  0.49999999  1
  Fe  Fe3  1  0.00000000  0.49999999  -0.00000001  1
  P  P4  1  0.50000002  0.00000000  0.99999999  1
  P  P5  1  0.35316801  0.20241300  0.84924499  1
  P  P6  1  0.64683202  0.49607699  0.84924599  1
  P  P7  1  0.35316801  0.50392299  0.15075400  1
  P  P8  1  0.49607702  0.84924499  0.64683198  1
  P  P9  1  0.84924503  0.35316800  0.20241302  1
  P  P10  1  0.64683202  0.79758699  0.15075500  1
  P  P11  1  0.20241401  0.84924599  0.35316898  1
  P  P12  1  0.15075501  0.35316900  0.50392298  1
  P  P13  1  0.50392302  0.15075500  0.35316801  1
  P  P14  1  0.84924503  0.64683099  0.49607700  1
  P  P15  1  0.79758602  0.15075400  0.64683101  1
  P  P16  1  0.15075501  0.64683199  0.79758697  1
