# generated using pymatgen
data_SrZrO3
_symmetry_space_group_name_H-M   'P 1'
_cell_length_a   5.75375223
_cell_length_b   5.75708055
_cell_length_c   5.75814629
_cell_angle_alpha   60.04134750
_cell_angle_beta   60.03148270
_cell_angle_gamma   89.85979462
_symmetry_Int_Tables_number   1
_chemical_formula_structural   SrZrO3
_chemical_formula_sum   'Sr2 Zr2 O6'
_cell_volume   135.18370384
_cell_formula_units_Z   2
loop_
 _symmetry_equiv_pos_site_id
 _symmetry_equiv_pos_as_xyz
  1  'x, y, z'
loop_
 _atom_site_type_symbol
 _atom_site_label
 _atom_site_symmetry_multiplicity
 _atom_site_fract_x
 _atom_site_fract_y
 _atom_site_fract_z
 _atom_site_occupancy
  Sr  Sr0  1  0.25054798  0.74925198  0.50012003  1
  Sr  Sr1  1  0.74953800  0.25057099  0.49992902  1
  Zr  Zr2  1  0.49993599  0.50005099  0.00000603  1
  Zr  Zr3  1  0.99999801  0.00001000  0.99999400  1
  O  O4  1  0.76022399  0.76036098  0.99993903  1
  O  O5  1  0.76059999  0.76070498  0.47876504  1
  O  O6  1  0.75907700  0.24062699  0.00013202  1
  O  O7  1  0.23980600  0.23964199  0.00005201  1
  O  O8  1  0.23943600  0.23929999  0.52120601  1
  O  O9  1  0.24083598  0.75948098  0.99985802  1
