# generated using pymatgen
data_Ba2(LaIn)3
_symmetry_space_group_name_H-M   'P 1'
_cell_length_a   5.50370312
_cell_length_b   7.95689821
_cell_length_c   7.95689821
_cell_angle_alpha   120.00000000
_cell_angle_beta   90.00000000
_cell_angle_gamma   90.00000000
_symmetry_Int_Tables_number   1
_chemical_formula_structural   Ba2(LaIn)3
_chemical_formula_sum   'Ba2 La3 In3'
_cell_volume   301.76803546
_cell_formula_units_Z   1
loop_
 _symmetry_equiv_pos_site_id
 _symmetry_equiv_pos_as_xyz
  1  'x, y, z'
loop_
 _atom_site_type_symbol
 _atom_site_label
 _atom_site_symmetry_multiplicity
 _atom_site_fract_x
 _atom_site_fract_y
 _atom_site_fract_z
 _atom_site_occupancy
  Ba  Ba0  1  0.24999999  0.66666665  0.33333334  1
  Ba  Ba1  1  0.74999998  0.33333333  0.66666667  1
  La  La2  1  0.74999998  0.87120098  0.12879801  1
  La  La3  1  0.74999998  0.25759699  0.12879800  1
  In  In4  1  0.74999998  0.87120098  0.74240201  1
  La  La5  1  0.24999999  0.12879900  0.87120200  1
  In  In6  1  0.24999999  0.74240299  0.87120201  1
  In  In7  1  0.24999999  0.12879900  0.25759800  1
