# generated using pymatgen
data_LiV4O7F3
_symmetry_space_group_name_H-M   'P 1'
_cell_length_a   3.68001604
_cell_length_b   6.17130709
_cell_length_c   9.57330227
_cell_angle_alpha   100.59273529
_cell_angle_beta   90.00000000
_cell_angle_gamma   107.34683990
_symmetry_Int_Tables_number   1
_chemical_formula_structural   LiV4O7F3
_chemical_formula_sum   'Li1 V4 O7 F3'
_cell_volume   203.64111499
_cell_formula_units_Z   1
loop_
 _symmetry_equiv_pos_site_id
 _symmetry_equiv_pos_as_xyz
  1  'x, y, z'
loop_
 _atom_site_type_symbol
 _atom_site_label
 _atom_site_symmetry_multiplicity
 _atom_site_fract_x
 _atom_site_fract_y
 _atom_site_fract_z
 _atom_site_occupancy
  Li  Li0  1  0.49999999  0.00000000  0.50000000  1
  V  V1  1  0.08860600  0.17721201  0.16246900  1
  V  V2  1  0.20311000  0.40622001  0.83202101  1
  V  V3  1  0.79688999  0.59378002  0.16797901  1
  V  V4  1  0.91139399  0.82278803  0.83753102  1
  O  O5  1  0.06496600  0.12993200  0.90406200  1
  O  O6  1  0.09366300  0.18732601  0.33437200  1
  O  O7  1  0.15023200  0.30046401  0.66166201  1
  O  O8  1  0.62382999  0.24766001  0.13786001  1
  O  O9  1  0.74158099  0.48316202  0.87712001  1
  F  F10  1  0.25841900  0.51683802  0.12288001  1
  F  F11  1  0.37616999  0.75234003  0.86214002  1
  O  O12  1  0.84976799  0.69953603  0.33833802  1
  O  O13  1  0.90633699  0.81267403  0.66562802  1
  F  F14  1  0.93503399  0.87006803  0.09593802  1
