# generated using pymatgen
data_Ho2FeGe4
_symmetry_space_group_name_H-M   'P 1'
_cell_length_a   4.23941612
_cell_length_b   4.26912689
_cell_length_c   7.99043798
_cell_angle_alpha   105.49413300
_cell_angle_beta   90.00000000
_cell_angle_gamma   90.00000000
_symmetry_Int_Tables_number   1
_chemical_formula_structural   Ho2FeGe4
_chemical_formula_sum   'Ho2 Fe1 Ge4'
_cell_volume   139.36012999
_cell_formula_units_Z   1
loop_
 _symmetry_equiv_pos_site_id
 _symmetry_equiv_pos_as_xyz
  1  'x, y, z'
loop_
 _atom_site_type_symbol
 _atom_site_label
 _atom_site_symmetry_multiplicity
 _atom_site_fract_x
 _atom_site_fract_y
 _atom_site_fract_z
 _atom_site_occupancy
  Ho  Ho0  1  0.24999999  0.10154700  0.20309300  1
  Ho  Ho1  1  0.74999998  0.89917303  0.79834601  1
  Fe  Fe2  1  0.24999999  0.30103601  0.60207200  1
  Ge  Ge3  1  0.24999999  0.45308901  0.90617800  1
  Ge  Ge4  1  0.74999998  0.56374402  0.12748801  1
  Ge  Ge5  1  0.24999999  0.74109002  0.48218101  1
  Ge  Ge6  1  0.74999998  0.24632201  0.49264300  1
