# generated using pymatgen
data_Mn2Cu3S8
_symmetry_space_group_name_H-M   'P 1'
_cell_length_a   3.35162807
_cell_length_b   5.76027012
_cell_length_c   12.61599731
_cell_angle_alpha   102.99653625
_cell_angle_beta   97.63330078
_cell_angle_gamma   90.00000000
_symmetry_Int_Tables_number   1
_chemical_formula_structural   Mn2Cu3S8
_chemical_formula_sum   'Mn2 Cu3 S8'
_cell_volume   235.11304591
_cell_formula_units_Z   1
loop_
 _symmetry_equiv_pos_site_id
 _symmetry_equiv_pos_as_xyz
  1  'x, y, z'
loop_
 _atom_site_type_symbol
 _atom_site_label
 _atom_site_symmetry_multiplicity
 _atom_site_fract_x
 _atom_site_fract_y
 _atom_site_fract_z
 _atom_site_occupancy
  Mn  Mn0  1  0.61655598  0.60944497  0.23311199  1
  Mn  Mn1  1  0.11971500  0.12699499  0.23943000  1
  Cu  Cu2  1  0.38344399  0.39055498  0.76688801  1
  Cu  Cu3  1  0.88028397  0.87300496  0.76056799  1
  Cu  Cu4  1  0.00000000  0.00000000  0.00000000  1
  S  S5  1  0.81705498  0.47973398  0.63411000  1
  S  S6  1  0.31769798  0.98672895  0.63539599  1
  S  S7  1  0.68230199  0.01327100  0.36460401  1
  S  S8  1  0.18294499  0.52026597  0.36588999  1
  S  S9  1  0.55300698  0.89158895  0.10601398  1
  S  S10  1  0.05189399  0.38092398  0.10378799  1
  S  S11  1  0.94810598  0.61907597  0.89621200  1
  S  S12  1  0.44699299  0.10841099  0.89398602  1
