# generated using pymatgen
data_Ti3Al
_symmetry_space_group_name_H-M   'P 1'
_cell_length_a   5.24772978
_cell_length_b   5.26156712
_cell_length_c   10.43068123
_cell_angle_alpha   90.00000000
_cell_angle_beta   90.00000000
_cell_angle_gamma   90.00000000
_symmetry_Int_Tables_number   1
_chemical_formula_structural   Ti3Al
_chemical_formula_sum   'Ti12 Al4'
_cell_volume   288.00448538
_cell_formula_units_Z   4
loop_
 _symmetry_equiv_pos_site_id
 _symmetry_equiv_pos_as_xyz
  1  'x, y, z'
loop_
 _atom_site_type_symbol
 _atom_site_label
 _atom_site_symmetry_multiplicity
 _atom_site_fract_x
 _atom_site_fract_y
 _atom_site_fract_z
 _atom_site_occupancy
  Ti  Ti0  1  0.50000002  0.00000000  0.36909899  1
  Ti  Ti1  1  0.50000002  0.00000000  0.87491398  1
  Ti  Ti2  1  0.75855803  0.49999999  0.00000000  1
  Ti  Ti3  1  0.73853203  0.49999999  0.49999999  1
  Ti  Ti4  1  0.00000000  0.74365998  0.24296999  1
  Ti  Ti5  1  0.00000000  0.74365998  0.75702998  1
  Ti  Ti6  1  0.50000002  0.00000000  0.12508600  1
  Ti  Ti7  1  0.50000002  0.00000000  0.63090099  1
  Ti  Ti8  1  0.24144201  0.49999999  0.00000000  1
  Ti  Ti9  1  0.26146801  0.49999999  0.49999999  1
  Ti  Ti10  1  -0.00000000  0.25633999  0.24296999  1
  Ti  Ti11  1  -0.00000000  0.25633999  0.75702998  1
  Al  Al12  1  0.50000002  0.49999999  0.25028399  1
  Al  Al13  1  0.50000002  0.49999999  0.74971598  1
  Al  Al14  1  0.00000000  0.00000000  0.00000000  1
  Al  Al15  1  0.00000000  0.00000000  0.49999999  1
