# generated using pymatgen
data_Ti2CuSe4
_symmetry_space_group_name_H-M   'P 1'
_cell_length_a   3.70184207
_cell_length_b   8.97674179
_cell_length_c   9.53641033
_cell_angle_alpha   103.92610931
_cell_angle_beta   101.19156647
_cell_angle_gamma   90.00000000
_symmetry_Int_Tables_number   1
_chemical_formula_structural   Ti2CuSe4
_chemical_formula_sum   'Ti4 Cu2 Se8'
_cell_volume   301.37239809
_cell_formula_units_Z   2
loop_
 _symmetry_equiv_pos_site_id
 _symmetry_equiv_pos_as_xyz
  1  'x, y, z'
loop_
 _atom_site_type_symbol
 _atom_site_label
 _atom_site_symmetry_multiplicity
 _atom_site_fract_x
 _atom_site_fract_y
 _atom_site_fract_z
 _atom_site_occupancy
  Ti  Ti0  1  0.50000000  0.00000000  0.00000001  1
  Ti  Ti1  1  0.00000003  0.49999999  0.00000003  1
  Ti  Ti2  1  0.65085603  0.48958799  0.30171206  1
  Ti  Ti3  1  0.71221705  0.84881798  0.42443408  1
  Cu  Cu4  1  0.28778301  0.15118200  0.57556604  1
  Cu  Cu5  1  0.34914403  0.51041199  0.69828807  1
  Se  Se6  1  0.57208604  0.67264899  0.14417206  1
  Se  Se7  1  0.08701502  0.32056999  0.17403003  1
  Se  Se8  1  0.16205406  0.98891898  0.32410807  1
  Se  Se9  1  0.23963504  0.65656399  0.47927007  1
  Se  Se10  1  0.76036502  0.34343599  0.52073006  1
  Se  Se11  1  0.83794600  0.01108100  0.67589205  1
  Se  Se12  1  0.91298504  0.67942999  0.82597010  1
  Se  Se13  1  0.42791402  0.32735099  0.85582807  1
