# generated using pymatgen
data_EuAu2
_symmetry_space_group_name_H-M   'P 1'
_cell_length_a   4.70448208
_cell_length_b   5.94179106
_cell_length_c   5.94179106
_cell_angle_alpha   74.53621674
_cell_angle_beta   66.67908478
_cell_angle_gamma   66.67908478
_symmetry_Int_Tables_number   1
_chemical_formula_structural   EuAu2
_chemical_formula_sum   'Eu2 Au4'
_cell_volume   138.86641378
_cell_formula_units_Z   2
loop_
 _symmetry_equiv_pos_site_id
 _symmetry_equiv_pos_as_xyz
  1  'x, y, z'
loop_
 _atom_site_type_symbol
 _atom_site_label
 _atom_site_symmetry_multiplicity
 _atom_site_fract_x
 _atom_site_fract_y
 _atom_site_fract_z
 _atom_site_occupancy
  Eu  Eu0  1  0.45698500  0.29301499  0.79301502  1
  Eu  Eu1  1  0.54301503  0.70698498  0.20698503  1
  Au  Au2  1  0.16247401  0.29023099  0.38482101  1
  Au  Au3  1  0.83752697  0.11517900  0.20976804  1
  Au  Au4  1  0.83752601  0.70976898  0.61517905  1
  Au  Au5  1  0.16247305  0.88482098  0.79023201  1
