# generated using pymatgen
data_ErMgPt
_symmetry_space_group_name_H-M   'P 1'
_cell_length_a   3.92217588
_cell_length_b   7.66560793
_cell_length_c   7.66560793
_cell_angle_alpha   120.00000000
_cell_angle_beta   90.00000000
_cell_angle_gamma   90.00000000
_symmetry_Int_Tables_number   1
_chemical_formula_structural   ErMgPt
_chemical_formula_sum   'Er3 Mg3 Pt3'
_cell_volume   199.59557198
_cell_formula_units_Z   3
loop_
 _symmetry_equiv_pos_site_id
 _symmetry_equiv_pos_as_xyz
  1  'x, y, z'
loop_
 _atom_site_type_symbol
 _atom_site_label
 _atom_site_symmetry_multiplicity
 _atom_site_fract_x
 _atom_site_fract_y
 _atom_site_fract_z
 _atom_site_occupancy
  Er  Er0  1  1.00000003  0.40681900  0.40681898  1
  Er  Er1  1  -0.00000000  1.00000000  0.59318097  1
  Er  Er2  1  -0.00000000  0.59318100  -0.00000001  1
  Mg  Mg3  1  0.50000001  0.74246600  0.74246597  1
  Mg  Mg4  1  0.50000001  1.00000000  0.25753397  1
  Mg  Mg5  1  0.50000001  0.25753400  -0.00000001  1
  Pt  Pt6  1  0.50000001  0.66666667  0.33333331  1
  Pt  Pt7  1  0.50000001  0.33333333  0.66666665  1
  Pt  Pt8  1  0.00000000  0.00000000  0.00000000  1
