# generated using pymatgen
data_Li2Sn
_symmetry_space_group_name_H-M   'P 1'
_cell_length_a   4.19799805
_cell_length_b   7.13425207
_cell_length_c   7.13425255
_cell_angle_alpha   120.00000000
_cell_angle_beta   90.00000000
_cell_angle_gamma   90.00000000
_symmetry_Int_Tables_number   1
_chemical_formula_structural   Li2Sn
_chemical_formula_sum   'Li6 Sn3'
_cell_volume   185.04177807
_cell_formula_units_Z   3
loop_
 _symmetry_equiv_pos_site_id
 _symmetry_equiv_pos_as_xyz
  1  'x, y, z'
loop_
 _atom_site_type_symbol
 _atom_site_label
 _atom_site_symmetry_multiplicity
 _atom_site_fract_x
 _atom_site_fract_y
 _atom_site_fract_z
 _atom_site_occupancy
  Li  Li0  1  0.99999999  0.41614300  0.41614301  1
  Li  Li1  1  0.99999999  0.58385701  1.00000001  1
  Li  Li2  1  0.00000000  0.00000000  0.58385699  1
  Li  Li3  1  0.49999999  0.25129500  1.00000000  1
  Li  Li4  1  0.49999999  0.74870501  0.74870502  1
  Li  Li5  1  0.49999999  0.00000000  0.25129500  1
  Sn  Sn6  1  0.00000000  0.00000000  0.00000000  1
  Sn  Sn7  1  0.49999999  0.33333334  0.66666667  1
  Sn  Sn8  1  0.49999999  0.66666667  0.33333336  1
