# generated using pymatgen
data_BaLa2In(CuS3)2
_symmetry_space_group_name_H-M   'P 1'
_cell_length_a   4.26484299
_cell_length_b   4.26484299
_cell_length_c   14.16153526
_cell_angle_alpha   90.00000000
_cell_angle_beta   90.00000000
_cell_angle_gamma   90.00000000
_symmetry_Int_Tables_number   1
_chemical_formula_structural   BaLa2In(CuS3)2
_chemical_formula_sum   'Ba1 La2 In1 Cu2 S6'
_cell_volume   257.58254630
_cell_formula_units_Z   1
loop_
 _symmetry_equiv_pos_site_id
 _symmetry_equiv_pos_as_xyz
  1  'x, y, z'
loop_
 _atom_site_type_symbol
 _atom_site_label
 _atom_site_symmetry_multiplicity
 _atom_site_fract_x
 _atom_site_fract_y
 _atom_site_fract_z
 _atom_site_occupancy
  Ba  Ba0  1  0.50000000  0.50000000  0.00000000  1
  La  La1  1  0.00000000  0.00000000  0.49999999  1
  La  La2  1  0.50000000  0.00000000  0.75075299  1
  In  In3  1  0.00000000  0.50000000  0.24924700  1
  Cu  Cu4  1  0.00000000  0.00000000  0.91652398  1
  Cu  Cu5  1  0.50000000  0.50000000  0.41547399  1
  S  S6  1  0.00000000  0.50000000  0.83526198  1
  S  S7  1  0.50000000  0.00000000  0.33377399  1
  S  S8  1  0.00000000  0.00000000  0.08347600  1
  S  S9  1  0.50000000  0.50000000  0.58452599  1
  S  S10  1  0.50000000  0.00000000  0.16473800  1
  S  S11  1  0.00000000  0.50000000  0.66622599  1
