# generated using pymatgen
data_LiMnO2
_symmetry_space_group_name_H-M   'P 1'
_cell_length_a   5.87595081
_cell_length_b   5.87595081
_cell_length_c   5.90242052
_cell_angle_alpha   60.14823151
_cell_angle_beta   60.14823151
_cell_angle_gamma   59.99998856
_symmetry_Int_Tables_number   1
_chemical_formula_structural   LiMnO2
_chemical_formula_sum   'Li4 Mn4 O8'
_cell_volume   144.42448766
_cell_formula_units_Z   4
loop_
 _symmetry_equiv_pos_site_id
 _symmetry_equiv_pos_as_xyz
  1  'x, y, z'
loop_
 _atom_site_type_symbol
 _atom_site_label
 _atom_site_symmetry_multiplicity
 _atom_site_fract_x
 _atom_site_fract_y
 _atom_site_fract_z
 _atom_site_occupancy
  Li  Li0  1  0.49999997  0.50000001  0.50000004  1
  Li  Li1  1  -0.00000003  0.50000001  0.50000003  1
  Li  Li2  1  0.00000000  0.00000000  0.50000000  1
  Li  Li3  1  0.50000000  0.00000000  0.50000002  1
  Mn  Mn4  1  0.00000000  0.00000000  0.00000000  1
  Mn  Mn5  1  0.50000000  0.00000000  0.00000002  1
  Mn  Mn6  1  0.49999997  0.50000001  0.00000004  1
  Mn  Mn7  1  -0.00000003  0.50000001  0.00000002  1
  O  O8  1  0.74253295  0.74253301  0.77240106  1
  O  O9  1  0.24410496  0.74425601  0.76753405  1
  O  O10  1  0.24410498  0.24410500  0.76753402  1
  O  O11  1  0.25746698  0.25746700  0.22759902  1
  O  O12  1  0.74425598  0.24410500  0.76753404  1
  O  O13  1  0.75589498  0.25574400  0.23246604  1
  O  O14  1  0.75589495  0.75589501  0.23246606  1
  O  O15  1  0.25574395  0.75589501  0.23246605  1
