# generated using pymatgen
data_KWO3
_symmetry_space_group_name_H-M   'P 1'
_cell_length_a   6.48784065
_cell_length_b   6.48784065
_cell_length_c   8.27244186
_cell_angle_alpha   86.45281982
_cell_angle_beta   86.45281982
_cell_angle_gamma   82.95116425
_symmetry_Int_Tables_number   1
_chemical_formula_structural   KWO3
_chemical_formula_sum   'K4 W4 O12'
_cell_volume   344.39223639
_cell_formula_units_Z   4
loop_
 _symmetry_equiv_pos_site_id
 _symmetry_equiv_pos_as_xyz
  1  'x, y, z'
loop_
 _atom_site_type_symbol
 _atom_site_label
 _atom_site_symmetry_multiplicity
 _atom_site_fract_x
 _atom_site_fract_y
 _atom_site_fract_z
 _atom_site_occupancy
  K  K0  1  0.33624100  0.33624100  0.23817099  1
  K  K1  1  0.66375900  0.66375899  0.76182896  1
  K  K2  1  0.76464699  0.23535300  0.49999998  1
  K  K3  1  0.23535301  0.76464699  0.49999998  1
  W  W4  1  0.81066299  0.18933700  0.99999995  1
  W  W5  1  0.18933701  0.81066299  0.99999995  1
  W  W6  1  0.25959900  0.25959900  0.80481596  1
  W  W7  1  0.74040100  0.74040099  0.19518399  1
  O  O8  1  0.87760000  0.87759999  0.94767895  1
  O  O9  1  0.12240000  0.12240000  0.05232100  1
  O  O10  1  0.22611000  0.54611399  0.89796196  1
  O  O11  1  0.45388600  0.77388999  0.10203799  1
  O  O12  1  0.77389000  0.45388599  0.10203799  1
  O  O13  1  0.54611400  0.22611000  0.89796196  1
  O  O14  1  0.67066600  0.67066599  0.40805998  1
  O  O15  1  0.32933400  0.32933400  0.59193997  1
  O  O16  1  0.71390899  0.04816900  0.21034899  1
  O  O17  1  0.95183099  0.28609100  0.78965096  1
  O  O18  1  0.28609101  0.95183099  0.78965096  1
  O  O19  1  0.04816901  0.71390899  0.21034899  1
