# generated using pymatgen
data_Y(Co3C)2
_symmetry_space_group_name_H-M   'P 1'
_cell_length_a   4.99756193
_cell_length_b   4.99756241
_cell_length_c   9.74310493
_cell_angle_alpha   90.00000000
_cell_angle_beta   90.00000000
_cell_angle_gamma   120.00000000
_symmetry_Int_Tables_number   1
_chemical_formula_structural   Y(Co3C)2
_chemical_formula_sum   'Y2 Co12 C4'
_cell_volume   210.73876113
_cell_formula_units_Z   2
loop_
 _symmetry_equiv_pos_site_id
 _symmetry_equiv_pos_as_xyz
  1  'x, y, z'
loop_
 _atom_site_type_symbol
 _atom_site_label
 _atom_site_symmetry_multiplicity
 _atom_site_fract_x
 _atom_site_fract_y
 _atom_site_fract_z
 _atom_site_occupancy
  Y  Y0  1  0.00000000  0.00000000  0.00000000  1
  Y  Y1  1  0.00000000  0.00000000  0.34225800  1
  Co  Co2  1  0.00000000  0.00000000  0.65774200  1
  Co  Co3  1  0.33333336  0.66666667  1.00000001  1
  Co  Co4  1  0.66666669  0.33333333  1.00000001  1
  Co  Co5  1  0.50000001  0.00000000  0.50000000  1
  Co  Co6  1  0.50000003  0.50000000  0.50000000  1
  Co  Co7  1  0.00000002  0.50000000  0.50000000  1
  Co  Co8  1  0.50000001  0.00000000  0.20160500  1
  Co  Co9  1  0.50000003  0.50000000  0.20160500  1
  Co  Co10  1  0.00000002  0.50000000  0.20160500  1
  Co  Co11  1  0.50000001  0.00000000  0.79839501  1
  Co  Co12  1  0.50000003  0.50000000  0.79839501  1
  Co  Co13  1  0.00000002  0.50000000  0.79839501  1
  C  C14  1  0.33333336  0.66666667  0.34974200  1
  C  C15  1  0.66666669  0.33333333  0.34974200  1
  C  C16  1  0.66666669  0.33333333  0.65025800  1
  C  C17  1  0.33333336  0.66666667  0.65025800  1
