# generated using pymatgen
data_Rb2AlMoF6
_symmetry_space_group_name_H-M   'P 1'
_cell_length_a   6.41114998
_cell_length_b   6.41115046
_cell_length_c   6.41114998
_cell_angle_alpha   59.99999619
_cell_angle_beta   59.99999619
_cell_angle_gamma   59.99999619
_symmetry_Int_Tables_number   1
_chemical_formula_structural   Rb2AlMoF6
_chemical_formula_sum   'Rb2 Al1 Mo1 F6'
_cell_volume   186.33430025
_cell_formula_units_Z   1
loop_
 _symmetry_equiv_pos_site_id
 _symmetry_equiv_pos_as_xyz
  1  'x, y, z'
loop_
 _atom_site_type_symbol
 _atom_site_label
 _atom_site_symmetry_multiplicity
 _atom_site_fract_x
 _atom_site_fract_y
 _atom_site_fract_z
 _atom_site_occupancy
  Rb  Rb0  1  0.75000007  0.74999998  0.75000002  1
  Rb  Rb1  1  0.25000002  0.24999999  0.25000001  1
  Al  Al2  1  0.50000004  0.49999998  0.50000001  1
  Mo  Mo3  1  0.00000000  0.00000000  0.00000000  1
  F  F4  1  0.20994704  0.79005297  0.79005304  1
  F  F5  1  0.79005307  0.79005297  0.20994700  1
  F  F6  1  0.79005305  0.20994699  0.20994698  1
  F  F7  1  0.20994704  0.79005297  0.20994702  1
  F  F8  1  0.79005305  0.20994699  0.79005300  1
  F  F9  1  0.20994702  0.20994699  0.79005302  1
