# generated using pymatgen
data_LiCuF5
_symmetry_space_group_name_H-M   'P 1'
_cell_length_a   4.65461493
_cell_length_b   6.72052383
_cell_length_c   6.72052288
_cell_angle_alpha   89.99999237
_cell_angle_beta   89.99999237
_cell_angle_gamma   89.99996948
_symmetry_Int_Tables_number   1
_chemical_formula_structural   LiCuF5
_chemical_formula_sum   'Li2 Cu2 F10'
_cell_volume   210.22770413
_cell_formula_units_Z   2
loop_
 _symmetry_equiv_pos_site_id
 _symmetry_equiv_pos_as_xyz
  1  'x, y, z'
loop_
 _atom_site_type_symbol
 _atom_site_label
 _atom_site_symmetry_multiplicity
 _atom_site_fract_x
 _atom_site_fract_y
 _atom_site_fract_z
 _atom_site_occupancy
  Li  Li0  1  0.17023800  0.25000001  0.74999902  1
  Li  Li1  1  0.82975299  0.75000002  0.25000003  1
  Cu  Cu2  1  0.50000000  0.25000001  0.25000001  1
  Cu  Cu3  1  0.49999999  0.75000002  0.75000003  1
  F  F4  1  0.27703100  0.21547201  0.03533301  1
  F  F5  1  0.27703099  0.53533301  0.78452803  1
  F  F6  1  0.27703098  0.96466702  0.71547203  1
  F  F7  1  0.27703100  0.28452801  0.46466702  1
  F  F8  1  0.81950001  0.25000001  0.75000003  1
  F  F9  1  0.18049898  0.75000002  0.25000002  1
  F  F10  1  0.72297099  0.71547202  0.53533203  1
  F  F11  1  0.72297101  0.03533200  0.28452801  1
  F  F12  1  0.72297100  0.46466801  0.21547202  1
  F  F13  1  0.72297099  0.78452802  0.96466804  1
