# generated using pymatgen
data_Mn3CuO6
_symmetry_space_group_name_H-M   'P 1'
_cell_length_a   6.49460316
_cell_length_b   6.49460316
_cell_length_c   6.49460316
_cell_angle_alpha   109.47122192
_cell_angle_beta   109.47122192
_cell_angle_gamma   109.47122192
_symmetry_Int_Tables_number   1
_chemical_formula_structural   Mn3CuO6
_chemical_formula_sum   'Mn6 Cu2 O12'
_cell_volume   210.88026878
_cell_formula_units_Z   2
loop_
 _symmetry_equiv_pos_site_id
 _symmetry_equiv_pos_as_xyz
  1  'x, y, z'
loop_
 _atom_site_type_symbol
 _atom_site_label
 _atom_site_symmetry_multiplicity
 _atom_site_fract_x
 _atom_site_fract_y
 _atom_site_fract_z
 _atom_site_occupancy
  Mn  Mn0  1  0.00000000  0.00000000  0.00000000  1
  Mn  Mn1  1  0.50000005  0.50000004  0.00000004  1
  Mn  Mn2  1  0.50000002  0.00000000  0.50000003  1
  Mn  Mn3  1  0.00000003  0.50000004  0.50000004  1
  Mn  Mn4  1  0.50000005  0.50000004  0.50000006  1
  Mn  Mn5  1  0.00000000  0.00000000  0.50000002  1
  Cu  Cu6  1  0.00000003  0.50000004  0.00000003  1
  Cu  Cu7  1  0.50000008  1.00000007  1.00000010  1
  O  O8  1  0.47865704  0.30637002  0.17228703  1
  O  O9  1  0.13408402  0.30637102  0.82771405  1
  O  O10  1  0.86591608  0.69362905  0.17228606  1
  O  O11  1  0.52134306  0.69363005  0.82771308  1
  O  O12  1  0.30637006  0.82771306  0.13408306  1
  O  O13  1  0.30637002  0.17228601  0.47865703  1
  O  O14  1  0.69363008  0.82771406  0.52134308  1
  O  O15  1  0.69363004  0.17228701  0.86591705  1
  O  O16  1  0.17228706  0.86591706  0.69363007  1
  O  O17  1  0.82771307  0.52134304  0.69362907  1
  O  O18  1  0.17228704  0.47865703  0.30637104  1
  O  O19  1  0.82771304  0.13408301  0.30637004  1
