# generated using pymatgen
data_Li2MnNiO4
_symmetry_space_group_name_H-M   'P 1'
_cell_length_a   4.15183210
_cell_length_b   4.15183210
_cell_length_c   5.22875834
_cell_angle_alpha   113.39194489
_cell_angle_beta   113.39194489
_cell_angle_gamma   90.00000000
_symmetry_Int_Tables_number   1
_chemical_formula_structural   Li2MnNiO4
_chemical_formula_sum   'Li2 Mn1 Ni1 O4'
_cell_volume   74.58385127
_cell_formula_units_Z   1
loop_
 _symmetry_equiv_pos_site_id
 _symmetry_equiv_pos_as_xyz
  1  'x, y, z'
loop_
 _atom_site_type_symbol
 _atom_site_label
 _atom_site_symmetry_multiplicity
 _atom_site_fract_x
 _atom_site_fract_y
 _atom_site_fract_z
 _atom_site_occupancy
  Li  Li0  1  0.24999994  0.74999995  0.49999993  1
  Li  Li1  1  0.49999994  0.49999997  -0.00000007  1
  Mn  Mn2  1  0.00000000  0.00000000  0.00000000  1
  Ni  Ni3  1  0.74999994  0.24999998  0.49999994  1
  O  O4  1  0.51680197  0.01680200  0.03360397  1
  O  O5  1  0.23197097  0.23197099  0.46394197  1
  O  O6  1  0.98319792  0.48319797  0.96639592  1
  O  O7  1  0.76802891  0.76802895  0.53605790  1
