# generated using pymatgen
data_Nd2Sb7
_symmetry_space_group_name_H-M   'P 1'
_cell_length_a   4.39439392
_cell_length_b   4.47588778
_cell_length_c   24.47762299
_cell_angle_alpha   95.24577332
_cell_angle_beta   95.15000153
_cell_angle_gamma   90.00000000
_symmetry_Int_Tables_number   1
_chemical_formula_structural   Nd2Sb7
_chemical_formula_sum   'Nd4 Sb14'
_cell_volume   477.47761072
_cell_formula_units_Z   2
loop_
 _symmetry_equiv_pos_site_id
 _symmetry_equiv_pos_as_xyz
  1  'x, y, z'
loop_
 _atom_site_type_symbol
 _atom_site_label
 _atom_site_symmetry_multiplicity
 _atom_site_fract_x
 _atom_site_fract_y
 _atom_site_fract_z
 _atom_site_occupancy
  Nd  Nd0  1  0.32875401  0.32875402  0.65750797  1
  Nd  Nd1  1  0.10325200  0.60325203  0.20650399  1
  Nd  Nd2  1  0.67124601  0.67124603  0.34249199  1
  Nd  Nd3  1  0.89674802  0.39674802  0.79349597  1
  Sb  Sb4  1  0.50000001  0.00000000  0.00000000  1
  Sb  Sb5  1  0.22031300  0.72031304  0.44062598  1
  Sb  Sb6  1  0.84261501  0.84261504  0.68522997  1
  Sb  Sb7  1  0.61526601  0.11526601  0.23053199  1
  Sb  Sb8  1  0.71958701  0.21958701  0.43917398  1
  Sb  Sb9  1  0.38473401  0.88473404  0.76946797  1
  Sb  Sb10  1  0.94687202  0.94687205  0.89374396  1
  Sb  Sb11  1  0.28041300  0.78041304  0.56082598  1
  Sb  Sb12  1  0.77968701  0.27968701  0.55937398  1
  Sb  Sb13  1  0.55240801  0.55240803  0.10481600  1
  Sb  Sb14  1  0.44759201  0.44759202  0.89518397  1
  Sb  Sb15  1  0.15738500  0.15738501  0.31476999  1
  Sb  Sb16  1  -0.00000000  0.50000003  -0.00000000  1
  Sb  Sb17  1  0.05312800  0.05312800  0.10625600  1
