# generated using pymatgen
data_CsLaAgSe3
_symmetry_space_group_name_H-M   'P 1'
_cell_length_a   4.41677618
_cell_length_b   8.83665752
_cell_length_c   11.69019032
_cell_angle_alpha   90.00000000
_cell_angle_beta   90.00000000
_cell_angle_gamma   104.47231293
_symmetry_Int_Tables_number   1
_chemical_formula_structural   CsLaAgSe3
_chemical_formula_sum   'Cs2 La2 Ag2 Se6'
_cell_volume   441.78484017
_cell_formula_units_Z   2
loop_
 _symmetry_equiv_pos_site_id
 _symmetry_equiv_pos_as_xyz
  1  'x, y, z'
loop_
 _atom_site_type_symbol
 _atom_site_label
 _atom_site_symmetry_multiplicity
 _atom_site_fract_x
 _atom_site_fract_y
 _atom_site_fract_z
 _atom_site_occupancy
  Cs  Cs0  1  0.74547496  0.49094998  0.24999999  1
  Cs  Cs1  1  0.25452498  0.50904998  0.74999998  1
  La  La2  1  0.00000000  0.00000000  0.00000000  1
  La  La3  1  0.00000000  0.00000000  0.49999999  1
  Ag  Ag4  1  0.46045696  0.92091397  0.24999999  1
  Ag  Ag5  1  0.53954298  0.07908600  0.74999998  1
  Se  Se6  1  0.05792699  0.11585400  0.24999999  1
  Se  Se7  1  0.62022597  0.24045199  0.94430997  1
  Se  Se8  1  0.94207294  0.88414597  0.74999998  1
  Se  Se9  1  0.37977396  0.75954797  0.44430999  1
  Se  Se10  1  0.37977396  0.75954797  0.05569000  1
  Se  Se11  1  0.62022597  0.24045199  0.55568999  1
