# generated using pymatgen
data_Y(Ni2P)2
_symmetry_space_group_name_H-M   'P 1'
_cell_length_a   3.58317709
_cell_length_b   6.92840385
_cell_length_c   6.92840385
_cell_angle_alpha   90.00000000
_cell_angle_beta   90.00000000
_cell_angle_gamma   90.00000000
_symmetry_Int_Tables_number   1
_chemical_formula_structural   Y(Ni2P)2
_chemical_formula_sum   'Y2 Ni8 P4'
_cell_volume   172.00246143
_cell_formula_units_Z   2
loop_
 _symmetry_equiv_pos_site_id
 _symmetry_equiv_pos_as_xyz
  1  'x, y, z'
loop_
 _atom_site_type_symbol
 _atom_site_label
 _atom_site_symmetry_multiplicity
 _atom_site_fract_x
 _atom_site_fract_y
 _atom_site_fract_z
 _atom_site_occupancy
  Y  Y0  1  0.49999999  0.00000000  0.00000000  1
  Y  Y1  1  0.99999997  0.50000001  0.50000001  1
  Ni  Ni2  1  -0.00000000  0.33484101  0.08514700  1
  Ni  Ni3  1  0.49999999  0.58514701  0.16515900  1
  Ni  Ni4  1  0.49999999  0.41485301  0.83484102  1
  Ni  Ni5  1  0.00000000  0.66515901  0.91485302  1
  Ni  Ni6  1  0.49999999  0.16515900  0.58514701  1
  Ni  Ni7  1  0.49999999  0.83484102  0.41485301  1
  Ni  Ni8  1  0.99999997  0.08514700  0.33484101  1
  Ni  Ni9  1  0.00000000  0.91485302  0.66515901  1
  P  P10  1  0.00000000  0.78045902  0.21954100  1
  P  P11  1  0.49999999  0.71954102  0.71954102  1
  P  P12  1  0.49999999  0.28045901  0.28045901  1
  P  P13  1  0.00000000  0.21954100  0.78045902  1
