# generated using pymatgen
data_NaZrS2
_symmetry_space_group_name_H-M   'P 1'
_cell_length_a   3.93821001
_cell_length_b   6.81993818
_cell_length_c   7.61064959
_cell_angle_alpha   107.38909149
_cell_angle_beta   90.00000000
_cell_angle_gamma   90.00000000
_symmetry_Int_Tables_number   1
_chemical_formula_structural   NaZrS2
_chemical_formula_sum   'Na2 Zr2 S4'
_cell_volume   195.06740498
_cell_formula_units_Z   2
loop_
 _symmetry_equiv_pos_site_id
 _symmetry_equiv_pos_as_xyz
  1  'x, y, z'
loop_
 _atom_site_type_symbol
 _atom_site_label
 _atom_site_symmetry_multiplicity
 _atom_site_fract_x
 _atom_site_fract_y
 _atom_site_fract_z
 _atom_site_occupancy
  Na  Na0  1  0.50000000  0.26920999  0.31374000  1
  Na  Na1  1  -0.00000000  0.77391298  0.31566600  1
  Zr  Zr2  1  0.50000000  0.73078998  0.68626000  1
  Zr  Zr3  1  -0.00000000  0.22608699  0.68433401  1
  S  S4  1  0.50000000  0.49999999  -0.00000000  1
  S  S5  1  1.00000000  0.49999999  0.50000000  1
  S  S6  1  0.50000000  0.00000000  0.50000000  1
  S  S7  1  0.00000000  0.00000000  0.00000000  1
