# generated using pymatgen
data_DyAlSiNi3
_symmetry_space_group_name_H-M   'P 1'
_cell_length_a   4.00916004
_cell_length_b   4.91794920
_cell_length_c   5.02580643
_cell_angle_alpha   118.57782745
_cell_angle_beta   90.00000000
_cell_angle_gamma   90.00000000
_symmetry_Int_Tables_number   1
_chemical_formula_structural   DyAlSiNi3
_chemical_formula_sum   'Dy1 Al1 Si1 Ni3'
_cell_volume   87.02035958
_cell_formula_units_Z   1
loop_
 _symmetry_equiv_pos_site_id
 _symmetry_equiv_pos_as_xyz
  1  'x, y, z'
loop_
 _atom_site_type_symbol
 _atom_site_label
 _atom_site_symmetry_multiplicity
 _atom_site_fract_x
 _atom_site_fract_y
 _atom_site_fract_z
 _atom_site_occupancy
  Dy  Dy0  1  -0.00000000  0.49999997  0.49999997  1
  Al  Al1  1  0.49999999  0.00000000  0.49999999  1
  Si  Si2  1  0.49999999  0.49999997  -0.00000002  1
  Ni  Ni3  1  -0.00000000  0.17372899  0.84823398  1
  Ni  Ni4  1  -0.00000000  0.82627095  0.15176596  1
  Ni  Ni5  1  0.49999999  0.00000000  -0.00000000  1
