# generated using pymatgen
data_Ti5AgSe8
_symmetry_space_group_name_H-M   'P 1'
_cell_length_a   7.75730515
_cell_length_b   7.75730515
_cell_length_c   7.75730515
_cell_angle_alpha   60.00000000
_cell_angle_beta   60.00000000
_cell_angle_gamma   60.00000000
_symmetry_Int_Tables_number   1
_chemical_formula_structural   Ti5AgSe8
_chemical_formula_sum   'Ti5 Ag1 Se8'
_cell_volume   330.07879744
_cell_formula_units_Z   1
loop_
 _symmetry_equiv_pos_site_id
 _symmetry_equiv_pos_as_xyz
  1  'x, y, z'
loop_
 _atom_site_type_symbol
 _atom_site_label
 _atom_site_symmetry_multiplicity
 _atom_site_fract_x
 _atom_site_fract_y
 _atom_site_fract_z
 _atom_site_occupancy
  Ti  Ti0  1  0.37499999  0.87499999  0.87499999  1
  Ti  Ti1  1  0.87499999  0.87499999  0.37499999  1
  Ti  Ti2  1  0.87499999  0.87499999  0.87499999  1
  Ti  Ti3  1  0.87499999  0.37499999  0.87499999  1
  Ti  Ti4  1  0.25000000  0.25000000  0.25000000  1
  Ag  Ag5  1  0.49999999  0.49999999  0.49999999  1
  Se  Se6  1  0.63901699  0.08294900  0.63901699  1
  Se  Se7  1  0.11098300  0.11098300  0.11098300  1
  Se  Se8  1  0.63901699  0.63901699  0.63901699  1
  Se  Se9  1  0.11098300  0.66705099  0.11098300  1
  Se  Se10  1  0.11098300  0.11098300  0.66705099  1
  Se  Se11  1  0.66705099  0.11098300  0.11098300  1
  Se  Se12  1  0.63901699  0.63901699  0.08294900  1
  Se  Se13  1  0.08294900  0.63901699  0.63901699  1
