# generated using pymatgen
data_Ho4AgS7
_symmetry_space_group_name_H-M   'P 1'
_cell_length_a   3.77309990
_cell_length_b   6.62900734
_cell_length_c   11.52492142
_cell_angle_alpha   104.04895782
_cell_angle_beta   90.00000000
_cell_angle_gamma   106.53434753
_symmetry_Int_Tables_number   1
_chemical_formula_structural   Ho4AgS7
_chemical_formula_sum   'Ho4 Ag1 S7'
_cell_volume   267.33407802
_cell_formula_units_Z   1
loop_
 _symmetry_equiv_pos_site_id
 _symmetry_equiv_pos_as_xyz
  1  'x, y, z'
loop_
 _atom_site_type_symbol
 _atom_site_label
 _atom_site_symmetry_multiplicity
 _atom_site_fract_x
 _atom_site_fract_y
 _atom_site_fract_z
 _atom_site_occupancy
  Ho  Ho0  1  0.00000000  0.00000000  0.00000000  1
  Ho  Ho1  1  0.88768695  0.77537396  0.57790398  1
  Ho  Ho2  1  0.11231298  0.22462599  0.42209600  1
  Ho  Ho3  1  0.69876698  0.39753398  0.81085400  1
  Ag  Ag4  1  0.30123295  0.60246597  0.18914598  1
  S  S5  1  0.50000001  0.00000000  0.50000001  1
  S  S6  1  0.34034895  0.68069796  0.94842899  1
  S  S7  1  0.65965099  0.31930198  0.05157099  1
  S  S8  1  0.04034799  0.08069600  0.78462001  1
  S  S9  1  0.95965194  0.91930395  0.21537997  1
  S  S10  1  0.74060198  0.48120397  0.35266799  1
  S  S11  1  0.25939796  0.51879597  0.64733199  1
