# generated using pymatgen
data_LiMnO2
_symmetry_space_group_name_H-M   'P 1'
_cell_length_a   5.98205423
_cell_length_b   5.98205423
_cell_length_c   5.98463011
_cell_angle_alpha   60.01423645
_cell_angle_beta   60.01423645
_cell_angle_gamma   60.00000000
_symmetry_Int_Tables_number   1
_chemical_formula_structural   LiMnO2
_chemical_formula_sum   'Li4 Mn4 O8'
_cell_volume   151.46644313
_cell_formula_units_Z   4
loop_
 _symmetry_equiv_pos_site_id
 _symmetry_equiv_pos_as_xyz
  1  'x, y, z'
loop_
 _atom_site_type_symbol
 _atom_site_label
 _atom_site_symmetry_multiplicity
 _atom_site_fract_x
 _atom_site_fract_y
 _atom_site_fract_z
 _atom_site_occupancy
  Li  Li0  1  0.49999997  0.49999998  0.50000004  1
  Li  Li1  1  -0.00000001  0.49999998  0.50000003  1
  Li  Li2  1  0.49999997  0.99999996  0.50000005  1
  Li  Li3  1  0.00000000  0.00000000  0.50000002  1
  Mn  Mn4  1  0.49999997  0.99999996  0.00000003  1
  Mn  Mn5  1  -0.00000001  0.49999998  0.00000001  1
  Mn  Mn6  1  0.49999997  0.49999998  0.00000002  1
  Mn  Mn7  1  0.00000000  0.00000000  0.00000000  1
  O  O8  1  0.26272099  0.26272099  0.21183702  1
  O  O9  1  0.76184496  0.24080099  0.23550903  1
  O  O10  1  0.24080098  0.76184497  0.23550903  1
  O  O11  1  0.73727896  0.73727897  0.78816306  1
  O  O12  1  0.76184496  0.76184497  0.23550904  1
  O  O13  1  0.23815498  0.75919897  0.76449105  1
  O  O14  1  0.75919896  0.23815499  0.76449105  1
  O  O15  1  0.23815499  0.23815499  0.76449104  1
