# generated using pymatgen
data_LiPO3
_symmetry_space_group_name_H-M   'P 1'
_cell_length_a   5.39201736
_cell_length_b   6.77681303
_cell_length_c   6.78857851
_cell_angle_alpha   86.18257141
_cell_angle_beta   75.73327637
_cell_angle_gamma   75.75190735
_symmetry_Int_Tables_number   1
_chemical_formula_structural   LiPO3
_chemical_formula_sum   'Li4 P4 O12'
_cell_volume   233.00914330
_cell_formula_units_Z   4
loop_
 _symmetry_equiv_pos_site_id
 _symmetry_equiv_pos_as_xyz
  1  'x, y, z'
loop_
 _atom_site_type_symbol
 _atom_site_label
 _atom_site_symmetry_multiplicity
 _atom_site_fract_x
 _atom_site_fract_y
 _atom_site_fract_z
 _atom_site_occupancy
  Li  Li0  1  0.24948406  0.74587098  0.75447802  1
  Li  Li1  1  0.75029105  0.25425199  0.24571701  1
  Li  Li2  1  0.25015902  0.09755200  0.40232101  1
  Li  Li3  1  0.74987909  0.90229297  0.59748202  1
  P  P4  1  0.23091502  0.21335599  0.88473602  1
  P  P5  1  0.26900505  0.61514498  0.28664301  1
  P  P6  1  0.76911508  0.78661797  0.11511002  1
  P  P7  1  0.73099205  0.38489099  0.71342902  1
  O  O8  1  0.96493606  0.37275599  0.83511502  1
  O  O9  1  0.53503907  0.66460898  0.12741301  1
  O  O10  1  0.03499405  0.62721098  0.16505601  1
  O  O11  1  0.46483704  0.33544699  0.87250602  1
  O  O12  1  0.13445901  0.14018200  0.11824800  1
  O  O13  1  0.36575904  0.38141299  0.36022701  1
  O  O14  1  0.86568809  0.85961997  0.88164103  1
  O  O15  1  0.63445707  0.61869698  0.64010202  1
  O  O16  1  0.83984305  0.21056299  0.53615302  1
  O  O17  1  0.66002109  0.96401497  0.28916502  1
  O  O18  1  0.16020606  0.78944597  0.46390702  1
  O  O19  1  0.33992402  0.03606400  0.71055301  1
