# generated using pymatgen
data_SrIn2Pt
_symmetry_space_group_name_H-M   'P 1'
_cell_length_a   4.53933191
_cell_length_b   5.81639290
_cell_length_c   8.23798275
_cell_angle_alpha   90.00000000
_cell_angle_beta   90.00000000
_cell_angle_gamma   112.96811676
_symmetry_Int_Tables_number   1
_chemical_formula_structural   SrIn2Pt
_chemical_formula_sum   'Sr2 In4 Pt2'
_cell_volume   200.26042776
_cell_formula_units_Z   2
loop_
 _symmetry_equiv_pos_site_id
 _symmetry_equiv_pos_as_xyz
  1  'x, y, z'
loop_
 _atom_site_type_symbol
 _atom_site_label
 _atom_site_symmetry_multiplicity
 _atom_site_fract_x
 _atom_site_fract_y
 _atom_site_fract_z
 _atom_site_occupancy
  Sr  Sr0  1  0.06313601  0.12627201  0.75000002  1
  Sr  Sr1  1  0.93686405  0.87372805  0.25000001  1
  In  In2  1  0.35027104  0.70054204  0.55476402  1
  In  In3  1  0.64972903  0.29945802  0.44523601  1
  In  In4  1  0.35027104  0.70054204  0.94523603  1
  In  In5  1  0.64972903  0.29945802  0.05476400  1
  Pt  Pt6  1  0.77776404  0.55552803  0.75000002  1
  Pt  Pt7  1  0.22223602  0.44447202  0.25000001  1
