# generated using pymatgen
data_Y2FeC4
_symmetry_space_group_name_H-M   'P 1'
_cell_length_a   4.99791813
_cell_length_b   6.76942110
_cell_length_c   6.76942110
_cell_angle_alpha   67.07539368
_cell_angle_beta   68.33654785
_cell_angle_gamma   68.33654785
_symmetry_Int_Tables_number   1
_chemical_formula_structural   Y2FeC4
_chemical_formula_sum   'Y4 Fe2 C8'
_cell_volume   189.12497092
_cell_formula_units_Z   2
loop_
 _symmetry_equiv_pos_site_id
 _symmetry_equiv_pos_as_xyz
  1  'x, y, z'
loop_
 _atom_site_type_symbol
 _atom_site_label
 _atom_site_symmetry_multiplicity
 _atom_site_fract_x
 _atom_site_fract_y
 _atom_site_fract_z
 _atom_site_occupancy
  Y  Y0  1  0.35503400  0.47848099  0.81145097  1
  Y  Y1  1  0.64496600  0.52151899  0.18854899  1
  Y  Y2  1  0.85503300  0.81145098  0.47848198  1
  Y  Y3  1  0.14496700  0.18854899  0.52151798  1
  Fe  Fe4  1  0.74999997  0.00000000  0.99999998  1
  Fe  Fe5  1  0.24999999  0.00000000  0.99999998  1
  C  C6  1  0.12809701  0.53985499  0.20394998  1
  C  C7  1  0.87190299  0.46014499  0.79604998  1
  C  C8  1  0.62809799  0.20394899  0.53985499  1
  C  C9  1  0.37190202  0.79605098  0.46014497  1
  C  C10  1  0.07978302  0.75116998  0.08926398  1
  C  C11  1  0.92021698  0.24882999  0.91073598  1
  C  C12  1  0.57978298  0.08926400  0.75116999  1
  C  C13  1  0.42021702  0.91073597  0.24882997  1
