# generated using pymatgen
data_DyNiO3
_symmetry_space_group_name_H-M   'P 1'
_cell_length_a   5.42892408
_cell_length_b   5.90686417
_cell_length_c   7.60301304
_cell_angle_alpha   90.00000000
_cell_angle_beta   90.00000000
_cell_angle_gamma   90.00000000
_symmetry_Int_Tables_number   1
_chemical_formula_structural   DyNiO3
_chemical_formula_sum   'Dy4 Ni4 O12'
_cell_volume   243.81279207
_cell_formula_units_Z   4
loop_
 _symmetry_equiv_pos_site_id
 _symmetry_equiv_pos_as_xyz
  1  'x, y, z'
loop_
 _atom_site_type_symbol
 _atom_site_label
 _atom_site_symmetry_multiplicity
 _atom_site_fract_x
 _atom_site_fract_y
 _atom_site_fract_z
 _atom_site_occupancy
  Dy  Dy0  1  0.01741600  0.92339897  0.75000000  1
  Dy  Dy1  1  0.51741599  0.57660098  0.25000000  1
  Dy  Dy2  1  0.48258399  0.42339899  0.75000000  1
  Dy  Dy3  1  0.98258398  0.07660100  0.25000000  1
  Ni  Ni4  1  0.49999999  0.00000000  0.50000000  1
  Ni  Ni5  1  0.00000000  0.49999999  0.50000000  1
  Ni  Ni6  1  0.00000000  0.49999999  0.00000000  1
  Ni  Ni7  1  0.49999999  0.00000000  0.00000000  1
  O  O8  1  0.70835499  0.31997199  0.44821400  1
  O  O9  1  0.20835500  0.18002799  0.55178600  1
  O  O10  1  0.79164499  0.81997198  0.05178600  1
  O  O11  1  0.29164500  0.68002798  0.94821400  1
  O  O12  1  0.29164500  0.68002798  0.55178600  1
  O  O13  1  0.79164499  0.81997198  0.44821400  1
  O  O14  1  0.20835500  0.18002799  0.94821400  1
  O  O15  1  0.70835499  0.31997199  0.05178600  1
  O  O16  1  0.10564500  0.46744399  0.25000000  1
  O  O17  1  0.60564499  0.03255600  0.75000000  1
  O  O18  1  0.39435499  0.96744397  0.25000000  1
  O  O19  1  0.89435499  0.53255599  0.75000000  1
