# generated using pymatgen
data_Nd7Co3
_symmetry_space_group_name_H-M   'P 1'
_cell_length_a   6.26236391
_cell_length_b   10.05824184
_cell_length_c   10.06539154
_cell_angle_alpha   119.97650146
_cell_angle_beta   90.00000000
_cell_angle_gamma   90.00000000
_symmetry_Int_Tables_number   1
_chemical_formula_structural   Nd7Co3
_chemical_formula_sum   'Nd14 Co6'
_cell_volume   549.19233425
_cell_formula_units_Z   2
loop_
 _symmetry_equiv_pos_site_id
 _symmetry_equiv_pos_as_xyz
  1  'x, y, z'
loop_
 _atom_site_type_symbol
 _atom_site_label
 _atom_site_symmetry_multiplicity
 _atom_site_fract_x
 _atom_site_fract_y
 _atom_site_fract_z
 _atom_site_occupancy
  Nd  Nd0  1  0.46235701  0.66666665  0.33333329  1
  Nd  Nd1  1  0.96235701  0.33333333  0.66666666  1
  Nd  Nd2  1  0.25118000  0.87472698  0.74945396  1
  Nd  Nd3  1  0.25110300  0.87480398  0.12529794  1
  Nd  Nd4  1  0.25110300  0.25049399  0.12529799  1
  Nd  Nd5  1  0.75118001  0.12527300  0.25054600  1
  Nd  Nd6  1  0.75110301  0.12519600  0.87470201  1
  Nd  Nd7  1  0.75110301  0.74950598  0.87470197  1
  Nd  Nd8  1  0.44574501  0.45810099  0.91620199  1
  Nd  Nd9  1  0.44585501  0.45809099  0.54171198  1
  Nd  Nd10  1  0.44585501  0.08362100  0.54171201  1
  Nd  Nd11  1  0.94574501  0.54189899  0.08379796  1
  Nd  Nd12  1  0.94585501  0.54190899  0.45828797  1
  Nd  Nd13  1  0.94585501  0.91637898  0.45828795  1
  Co  Co14  1  0.17965900  0.18826300  0.37652600  1
  Co  Co15  1  0.18007100  0.18821800  0.81175501  1
  Co  Co16  1  0.18007100  0.62353699  0.81175498  1
  Co  Co17  1  0.67965901  0.81173698  0.62347396  1
  Co  Co18  1  0.68007101  0.81178198  0.18824495  1
  Co  Co19  1  0.68007101  0.37646299  0.18824498  1
