# generated using pymatgen
data_NaCeV2O6
_symmetry_space_group_name_H-M   'P 1'
_cell_length_a   5.41785288
_cell_length_b   5.42157412
_cell_length_c   5.47974586
_cell_angle_alpha   119.63052368
_cell_angle_beta   119.45496368
_cell_angle_gamma   90.01367188
_symmetry_Int_Tables_number   1
_chemical_formula_structural   NaCeV2O6
_chemical_formula_sum   'Na1 Ce1 V2 O6'
_cell_volume   115.35660826
_cell_formula_units_Z   1
loop_
 _symmetry_equiv_pos_site_id
 _symmetry_equiv_pos_as_xyz
  1  'x, y, z'
loop_
 _atom_site_type_symbol
 _atom_site_label
 _atom_site_symmetry_multiplicity
 _atom_site_fract_x
 _atom_site_fract_y
 _atom_site_fract_z
 _atom_site_occupancy
  Na  Na0  1  0.75004700  0.74996799  0.49990900  1
  Ce  Ce1  1  0.24977900  0.25276800  0.49992699  1
  V  V2  1  0.50027002  0.00038900  0.00004903  1
  V  V3  1  0.00057097  0.50027899  0.00021198  1
  O  O4  1  0.27737898  0.70197699  0.99143196  1
  O  O5  1  0.20901800  0.22115300  0.00654900  1
  O  O6  1  0.70567102  0.28392000  0.97795500  1
  O  O7  1  0.80697700  0.79452399  0.02411001  1
  O  O8  1  0.24721297  0.73452799  0.49370797  1
  O  O9  1  0.75307702  0.26049400  0.50615002  1
