# generated using pymatgen
data_Ca2AlFeO5
_symmetry_space_group_name_H-M   'P 1'
_cell_length_a   5.41876078
_cell_length_b   5.69567204
_cell_length_c   8.14288044
_cell_angle_alpha   110.47532654
_cell_angle_beta   109.42848969
_cell_angle_gamma   89.98207092
_symmetry_Int_Tables_number   1
_chemical_formula_structural   Ca2AlFeO5
_chemical_formula_sum   'Ca4 Al2 Fe2 O10'
_cell_volume   220.10995851
_cell_formula_units_Z   2
loop_
 _symmetry_equiv_pos_site_id
 _symmetry_equiv_pos_as_xyz
  1  'x, y, z'
loop_
 _atom_site_type_symbol
 _atom_site_label
 _atom_site_symmetry_multiplicity
 _atom_site_fract_x
 _atom_site_fract_y
 _atom_site_fract_z
 _atom_site_occupancy
  Ca  Ca0  1  0.89810599  0.35990801  0.78300099  1
  Ca  Ca1  1  0.61460600  0.07678000  0.21716399  1
  Ca  Ca2  1  0.11505699  0.64038203  0.21727700  1
  Ca  Ca3  1  0.39847798  0.92335204  0.78293801  1
  Al  Al4  1  0.79119299  0.67207503  0.50015899  1
  Al  Al5  1  0.29149299  0.32834401  0.50017500  1
  Fe  Fe6  1  0.99522299  0.00025100  0.00018097  1
  Fe  Fe7  1  0.49532299  0.50015502  0.00017798  1
  O  O8  1  0.11967999  0.60115202  0.50026401  1
  O  O9  1  0.61982499  0.39922302  0.50011499  1
  O  O10  1  0.33079999  0.28418801  0.71038001  1
  O  O11  1  0.61965299  0.71606203  0.28995299  1
  O  O12  1  0.82924698  0.92644404  0.71027999  1
  O  O13  1  0.12047100  0.07387500  0.28995600  1
  O  O14  1  0.26364099  0.26234301  0.03117999  1
  O  O15  1  0.23232599  0.73764603  0.96844402  1
  O  O16  1  0.73264499  0.73119303  0.96900800  1
  O  O17  1  0.76404899  0.26936301  0.03202398  1
