# generated using pymatgen
data_Li2CuF5
_symmetry_space_group_name_H-M   'P 1'
_cell_length_a   4.22023010
_cell_length_b   4.22023010
_cell_length_c   5.90032625
_cell_angle_alpha   110.95452118
_cell_angle_beta   110.95452118
_cell_angle_gamma   90.00000000
_symmetry_Int_Tables_number   1
_chemical_formula_structural   Li2CuF5
_chemical_formula_sum   'Li2 Cu1 F5'
_cell_volume   90.65565760
_cell_formula_units_Z   1
loop_
 _symmetry_equiv_pos_site_id
 _symmetry_equiv_pos_as_xyz
  1  'x, y, z'
loop_
 _atom_site_type_symbol
 _atom_site_label
 _atom_site_symmetry_multiplicity
 _atom_site_fract_x
 _atom_site_fract_y
 _atom_site_fract_z
 _atom_site_occupancy
  Li  Li0  1  0.21197899  0.21197899  0.42395800  1
  Li  Li1  1  0.96197895  0.46197898  0.92395798  1
  Cu  Cu2  1  0.53802098  0.03802100  0.07604199  1
  F  F3  1  0.78802095  0.78802097  0.57604197  1
  F  F4  1  0.00000000  0.00000000  0.00000000  1
  F  F5  1  0.74999997  0.24999999  0.49999998  1
  F  F6  1  0.49999997  0.49999998  -0.00000003  1
  F  F7  1  0.24999997  0.74999997  0.49999998  1
