# generated using pymatgen
data_CaY2O4
_symmetry_space_group_name_H-M   'P 1'
_cell_length_a   6.88897514
_cell_length_b   6.88897514
_cell_length_c   6.88897514
_cell_angle_alpha   60.00000000
_cell_angle_beta   60.00000000
_cell_angle_gamma   60.00000000
_symmetry_Int_Tables_number   1
_chemical_formula_structural   CaY2O4
_chemical_formula_sum   'Ca2 Y4 O8'
_cell_volume   231.17925264
_cell_formula_units_Z   2
loop_
 _symmetry_equiv_pos_site_id
 _symmetry_equiv_pos_as_xyz
  1  'x, y, z'
loop_
 _atom_site_type_symbol
 _atom_site_label
 _atom_site_symmetry_multiplicity
 _atom_site_fract_x
 _atom_site_fract_y
 _atom_site_fract_z
 _atom_site_occupancy
  Ca  Ca0  1  0.37500000  0.87499999  0.37500000  1
  Ca  Ca1  1  0.87499999  0.37500000  0.37500000  1
  Y  Y2  1  0.37500000  0.37500000  0.37500000  1
  Y  Y3  1  0.37500000  0.37500000  0.87499999  1
  Y  Y4  1  0.00000000  0.00000000  0.00000000  1
  Y  Y5  1  0.74999999  0.74999999  0.74999999  1
  O  O6  1  0.61331700  0.61331600  0.16005100  1
  O  O7  1  0.61331700  0.61331600  0.61331600  1
  O  O8  1  0.13668300  0.58994900  0.13668400  1
  O  O9  1  0.13668300  0.13668400  0.13668400  1
  O  O10  1  0.13668300  0.13668400  0.58994900  1
  O  O11  1  0.58994800  0.13668400  0.13668400  1
  O  O12  1  0.16005200  0.61331600  0.61331600  1
  O  O13  1  0.61331700  0.16005100  0.61331600  1
