# generated using pymatgen
data_LiCo3(CuO4)2
_symmetry_space_group_name_H-M   'P 1'
_cell_length_a   6.07841730
_cell_length_b   6.07841730
_cell_length_c   6.07841730
_cell_angle_alpha   60.00000000
_cell_angle_beta   60.00000000
_cell_angle_gamma   60.00000000
_symmetry_Int_Tables_number   1
_chemical_formula_structural   LiCo3(CuO4)2
_chemical_formula_sum   'Li1 Co3 Cu2 O8'
_cell_volume   158.80220896
_cell_formula_units_Z   1
loop_
 _symmetry_equiv_pos_site_id
 _symmetry_equiv_pos_as_xyz
  1  'x, y, z'
loop_
 _atom_site_type_symbol
 _atom_site_label
 _atom_site_symmetry_multiplicity
 _atom_site_fract_x
 _atom_site_fract_y
 _atom_site_fract_z
 _atom_site_occupancy
  Cu  Cu0  1  0.37499999  0.87499998  0.87499998  1
  Li  Li1  1  0.87499998  0.87499998  0.37499999  1
  Co  Co2  1  0.87499998  0.37499999  0.87499998  1
  Co  Co3  1  0.87499998  0.87499998  0.87499998  1
  Cu  Cu4  1  0.24999999  0.24999999  0.24999999  1
  Co  Co5  1  0.49999999  0.49999999  0.49999999  1
  O  O6  1  0.11412400  0.11412400  0.11412400  1
  O  O7  1  0.63587599  0.09237200  0.63587599  1
  O  O8  1  0.09237200  0.63587599  0.63587599  1
  O  O9  1  0.63587599  0.63587599  0.09237200  1
  O  O10  1  0.65762799  0.11412400  0.11412400  1
  O  O11  1  0.11412400  0.11412400  0.65762799  1
  O  O12  1  0.63587599  0.63587599  0.63587599  1
  O  O13  1  0.11412400  0.65762799  0.11412400  1
