# generated using pymatgen
data_LiAl(BO3)2
_symmetry_space_group_name_H-M   'P 1'
_cell_length_a   5.91260958
_cell_length_b   5.91260958
_cell_length_c   5.91260910
_cell_angle_alpha   104.33874512
_cell_angle_beta   104.33874512
_cell_angle_gamma   104.33873749
_symmetry_Int_Tables_number   1
_chemical_formula_structural   LiAl(BO3)2
_chemical_formula_sum   'Li2 Al2 B4 O12'
_cell_volume   183.20817496
_cell_formula_units_Z   2
loop_
 _symmetry_equiv_pos_site_id
 _symmetry_equiv_pos_as_xyz
  1  'x, y, z'
loop_
 _atom_site_type_symbol
 _atom_site_label
 _atom_site_symmetry_multiplicity
 _atom_site_fract_x
 _atom_site_fract_y
 _atom_site_fract_z
 _atom_site_occupancy
  Li  Li0  1  0.00000000  0.00000000  0.00000000  1
  Li  Li1  1  -0.00000005  0.55499996  0.44499997  1
  Al  Al2  1  0.55499994  0.44499997  -0.00000003  1
  Al  Al3  1  0.44499990  0.99999993  0.55499993  1
  B  B4  1  0.94418696  0.05581300  0.49999997  1
  B  B5  1  0.05581295  0.49999997  0.94418696  1
  B  B6  1  0.49999990  0.94418694  0.05581294  1
  B  B7  1  0.49999994  0.49999997  0.49999996  1
  O  O8  1  0.49999997  0.09237799  0.90762197  1
  O  O9  1  0.90762192  0.49999997  0.09237795  1
  O  O10  1  0.09237792  0.90762194  0.49999995  1
  O  O11  1  0.49999995  0.35130798  0.64869196  1
  O  O12  1  0.64869193  0.49999997  0.35130796  1
  O  O13  1  0.35130793  0.64869196  0.49999995  1
  O  O14  1  0.36899490  0.97128594  0.21824194  1
  O  O15  1  0.21824196  0.36899498  0.97128596  1
  O  O16  1  0.97128594  0.21824199  0.36899496  1
  O  O17  1  0.02871394  0.63100496  0.78175796  1
  O  O18  1  0.78175797  0.02871400  0.63100497  1
  O  O19  1  0.63100491  0.78175795  0.02871395  1
