# generated using pymatgen
data_KY2CuS4
_symmetry_space_group_name_H-M   'P 1'
_cell_length_a   4.07319784
_cell_length_b   7.25824547
_cell_length_c   14.03878117
_cell_angle_alpha   90.00000000
_cell_angle_beta   90.00000000
_cell_angle_gamma   106.29548645
_symmetry_Int_Tables_number   1
_chemical_formula_structural   KY2CuS4
_chemical_formula_sum   'K2 Y4 Cu2 S8'
_cell_volume   398.37282370
_cell_formula_units_Z   2
loop_
 _symmetry_equiv_pos_site_id
 _symmetry_equiv_pos_as_xyz
  1  'x, y, z'
loop_
 _atom_site_type_symbol
 _atom_site_label
 _atom_site_symmetry_multiplicity
 _atom_site_fract_x
 _atom_site_fract_y
 _atom_site_fract_z
 _atom_site_occupancy
  K  K0  1  0.89236806  0.78473602  0.74999999  1
  K  K1  1  0.10763201  0.21526400  0.25000000  1
  Y  Y2  1  0.36539003  0.73078001  0.06252500  1
  Y  Y3  1  0.63461003  0.26922001  0.56252499  1
  Y  Y4  1  0.36539003  0.73078001  0.43747499  1
  Y  Y5  1  0.63461003  0.26922001  0.93747499  1
  Cu  Cu6  1  0.83760205  0.67520401  0.25000000  1
  Cu  Cu7  1  0.16239801  0.32479601  0.74999999  1
  S  S8  1  0.00000000  0.00000000  0.49999999  1
  S  S9  1  0.00000000  0.00000000  0.00000000  1
  S  S10  1  0.26276302  0.52552601  0.88489499  1
  S  S11  1  0.73723704  0.47447401  0.11510500  1
  S  S12  1  0.42991804  0.85983602  0.25000000  1
  S  S13  1  0.26276302  0.52552601  0.61510499  1
  S  S14  1  0.57008203  0.14016400  0.74999999  1
  S  S15  1  0.73723704  0.47447401  0.38489500  1
