# generated using pymatgen
data_In7Rh3
_symmetry_space_group_name_H-M   'P 1'
_cell_length_a   8.31642437
_cell_length_b   8.31642437
_cell_length_c   8.31642437
_cell_angle_alpha   109.47122192
_cell_angle_beta   109.47122192
_cell_angle_gamma   109.47122192
_symmetry_Int_Tables_number   1
_chemical_formula_structural   In7Rh3
_chemical_formula_sum   'In14 Rh6'
_cell_volume   442.78002007
_cell_formula_units_Z   2
loop_
 _symmetry_equiv_pos_site_id
 _symmetry_equiv_pos_as_xyz
  1  'x, y, z'
loop_
 _atom_site_type_symbol
 _atom_site_label
 _atom_site_symmetry_multiplicity
 _atom_site_fract_x
 _atom_site_fract_y
 _atom_site_fract_z
 _atom_site_occupancy
  In  In0  1  0.50000007  0.75000005  0.25000006  1
  In  In1  1  0.75000005  0.25000002  0.50000005  1
  In  In2  1  0.25000004  0.50000004  0.75000006  1
  In  In3  1  0.25000006  0.75000005  0.50000006  1
  In  In4  1  0.50000004  0.25000002  0.75000005  1
  In  In5  1  0.75000006  0.50000004  0.25000005  1
  In  In6  1  0.67379107  0.67379105  0.67379107  1
  In  In7  1  0.00000002  0.32620902  0.00000002  1
  In  In8  1  0.00000000  0.00000000  0.32620901  1
  In  In9  1  0.32620908  1.00000007  1.00000009  1
  In  In10  1  0.32620903  0.32620902  0.32620904  1
  In  In11  1  1.00000008  0.67379105  0.00000006  1
  In  In12  1  0.00000000  0.00000000  0.67379102  1
  In  In13  1  0.67379109  1.00000007  1.00000010  1
  Rh  Rh14  1  0.00000004  0.65558505  0.65558506  1
  Rh  Rh15  1  0.65558507  0.65558505  1.00000008  1
  Rh  Rh16  1  0.65558509  1.00000007  0.65558509  1
  Rh  Rh17  1  0.00000002  0.34441502  0.34441503  1
  Rh  Rh18  1  0.34441504  0.34441502  1.00000006  1
  Rh  Rh19  1  0.34441508  1.00000007  0.34441507  1
