# generated using pymatgen
data_K2C2O3
_symmetry_space_group_name_H-M   'P 1'
_cell_length_a   6.99635792
_cell_length_b   6.99635792
_cell_length_c   6.99635792
_cell_angle_alpha   109.47122192
_cell_angle_beta   109.47122192
_cell_angle_gamma   109.47122192
_symmetry_Int_Tables_number   1
_chemical_formula_structural   K2C2O3
_chemical_formula_sum   'K4 C4 O6'
_cell_volume   263.62958452
_cell_formula_units_Z   2
loop_
 _symmetry_equiv_pos_site_id
 _symmetry_equiv_pos_as_xyz
  1  'x, y, z'
loop_
 _atom_site_type_symbol
 _atom_site_label
 _atom_site_symmetry_multiplicity
 _atom_site_fract_x
 _atom_site_fract_y
 _atom_site_fract_z
 _atom_site_occupancy
  K  K0  1  0.00000000  0.00000000  0.00000000  1
  K  K1  1  0.50000002  0.50000000  0.50000002  1
  K  K2  1  0.00000003  0.50000000  0.00000003  1
  K  K3  1  0.00000000  0.00000000  0.49999998  1
  C  C4  1  0.50000005  1.00000001  0.00000007  1
  C  C5  1  0.50000002  0.50000000  1.00000001  1
  C  C6  1  0.50000005  1.00000001  0.50000005  1
  C  C7  1  0.00000003  0.50000000  0.50000001  1
  O  O8  1  0.65363103  0.65363101  1.00000002  1
  O  O9  1  0.65363105  1.00000001  0.65363105  1
  O  O10  1  0.00000004  0.65363101  0.65363102  1
  O  O11  1  0.34636901  0.34636900  0.00000003  1
  O  O12  1  0.00000002  0.34636900  0.34636901  1
  O  O13  1  0.34636906  1.00000001  0.34636905  1
