# generated using pymatgen
data_Ho5SbRh2
_symmetry_space_group_name_H-M   'P 1'
_cell_length_a   7.71844387
_cell_length_b   8.75605869
_cell_length_c   7.71844387
_cell_angle_alpha   63.84833527
_cell_angle_beta   90.00000000
_cell_angle_gamma   116.15166473
_symmetry_Int_Tables_number   1
_chemical_formula_structural   Ho5SbRh2
_chemical_formula_sum   'Ho10 Sb2 Rh4'
_cell_volume   407.90560203
_cell_formula_units_Z   2
loop_
 _symmetry_equiv_pos_site_id
 _symmetry_equiv_pos_as_xyz
  1  'x, y, z'
loop_
 _atom_site_type_symbol
 _atom_site_label
 _atom_site_symmetry_multiplicity
 _atom_site_fract_x
 _atom_site_fract_y
 _atom_site_fract_z
 _atom_site_occupancy
  Ho  Ho0  1  0.00000000  0.00000000  0.00000000  1
  Ho  Ho1  1  0.50000001  0.00000000  0.50000001  1
  Ho  Ho2  1  0.79639202  0.27640302  0.01998899  1
  Ho  Ho3  1  0.20360803  0.72359705  0.98001099  1
  Ho  Ho4  1  0.48001002  0.27640102  0.70360900  1
  Ho  Ho5  1  0.29639202  0.27640202  0.20360799  1
  Ho  Ho6  1  0.01999003  0.72359805  0.48000998  1
  Ho  Ho7  1  0.51999004  0.72359905  0.29639098  1
  Ho  Ho8  1  0.70360804  0.72359805  0.79639199  1
  Ho  Ho9  1  0.98001003  0.27640202  0.51999000  1
  Sb  Sb10  1  0.25000002  0.50000004  0.74999999  1
  Sb  Sb11  1  0.75000003  0.50000004  0.24999999  1
  Rh  Rh12  1  0.13723904  0.99999907  0.63723997  1
  Rh  Rh13  1  0.86276101  0.00000100  0.36276001  1
  Rh  Rh14  1  0.63723901  0.00000000  0.86276101  1
  Rh  Rh15  1  0.36276101  0.00000000  0.13723900  1
