# generated using pymatgen
data_ScRu
_symmetry_space_group_name_H-M   'P 1'
_cell_length_a   4.61916494
_cell_length_b   4.61916494
_cell_length_c   4.61916494
_cell_angle_alpha   60.00000000
_cell_angle_beta   60.00000000
_cell_angle_gamma   60.00000000
_symmetry_Int_Tables_number   1
_chemical_formula_structural   ScRu
_chemical_formula_sum   'Sc2 Ru2'
_cell_volume   69.69079420
_cell_formula_units_Z   2
loop_
 _symmetry_equiv_pos_site_id
 _symmetry_equiv_pos_as_xyz
  1  'x, y, z'
loop_
 _atom_site_type_symbol
 _atom_site_label
 _atom_site_symmetry_multiplicity
 _atom_site_fract_x
 _atom_site_fract_y
 _atom_site_fract_z
 _atom_site_occupancy
  Sc  Sc0  1  0.75000003  0.75000003  0.75000003  1
  Sc  Sc1  1  0.24999701  0.25000101  0.25000101  1
  Ru  Ru2  1  0.00000000  0.00000000  0.00000000  1
  Ru  Ru3  1  0.49999702  0.50000102  0.50000102  1
