# generated using pymatgen
data_MgAl(CuPd2)2
_symmetry_space_group_name_H-M   'P 1'
_cell_length_a   3.65462899
_cell_length_b   3.65462899
_cell_length_c   9.57147312
_cell_angle_alpha   90.00000000
_cell_angle_beta   90.00000000
_cell_angle_gamma   90.00000000
_symmetry_Int_Tables_number   1
_chemical_formula_structural   MgAl(CuPd2)2
_chemical_formula_sum   'Mg1 Al1 Cu2 Pd4'
_cell_volume   127.83959155
_cell_formula_units_Z   1
loop_
 _symmetry_equiv_pos_site_id
 _symmetry_equiv_pos_as_xyz
  1  'x, y, z'
loop_
 _atom_site_type_symbol
 _atom_site_label
 _atom_site_symmetry_multiplicity
 _atom_site_fract_x
 _atom_site_fract_y
 _atom_site_fract_z
 _atom_site_occupancy
  Al  Al0  1  0.00000000  0.50000000  0.78002099  1
  Mg  Mg1  1  0.50000000  0.00000000  0.21997900  1
  Cu  Cu2  1  0.50000000  0.50000000  0.49999999  1
  Cu  Cu3  1  0.00000000  0.00000000  0.49999999  1
  Pd  Pd4  1  0.50000000  0.50000000  0.00000000  1
  Pd  Pd5  1  0.00000000  0.00000000  0.00000000  1
  Pd  Pd6  1  0.00000000  0.50000000  0.31851000  1
  Pd  Pd7  1  0.50000000  0.00000000  0.68148999  1
