# generated using pymatgen
data_SmAl
_symmetry_space_group_name_H-M   'P 1'
_cell_length_a   5.81625509
_cell_length_b   6.03047895
_cell_length_c   11.84445572
_cell_angle_alpha   90.00000000
_cell_angle_beta   90.00000000
_cell_angle_gamma   90.00000000
_symmetry_Int_Tables_number   1
_chemical_formula_structural   SmAl
_chemical_formula_sum   'Sm8 Al8'
_cell_volume   415.44196199
_cell_formula_units_Z   8
loop_
 _symmetry_equiv_pos_site_id
 _symmetry_equiv_pos_as_xyz
  1  'x, y, z'
loop_
 _atom_site_type_symbol
 _atom_site_label
 _atom_site_symmetry_multiplicity
 _atom_site_fract_x
 _atom_site_fract_y
 _atom_site_fract_z
 _atom_site_occupancy
  Sm  Sm0  1  0.74999999  0.16561100  0.48809201  1
  Sm  Sm1  1  0.25000000  0.83438901  0.51190801  1
  Sm  Sm2  1  0.25000000  0.16561100  0.01190800  1
  Sm  Sm3  1  0.74999999  0.83438901  0.98809202  1
  Sm  Sm4  1  0.74999999  0.40386300  0.16535200  1
  Sm  Sm5  1  0.25000000  0.59613700  0.83464802  1
  Sm  Sm6  1  0.25000000  0.40386300  0.33464801  1
  Sm  Sm7  1  0.74999999  0.59613700  0.66535202  1
  Al  Al8  1  0.49999999  0.92723301  0.25000001  1
  Al  Al9  1  0.00000000  0.07276700  0.75000002  1
  Al  Al10  1  0.49999999  0.07276700  0.75000002  1
  Al  Al11  1  0.00000000  0.92723301  0.25000001  1
  Al  Al12  1  0.74999999  0.66760001  0.39727401  1
  Al  Al13  1  0.25000000  0.33240000  0.60272601  1
  Al  Al14  1  0.25000000  0.66760001  0.10272600  1
  Al  Al15  1  0.74999999  0.33240000  0.89727402  1
