# generated using pymatgen
data_Nd2AlGa2
_symmetry_space_group_name_H-M   'P 1'
_cell_length_a   4.25375795
_cell_length_b   4.55367422
_cell_length_c   7.98724461
_cell_angle_alpha   90.00000000
_cell_angle_beta   105.44329071
_cell_angle_gamma   90.00000000
_symmetry_Int_Tables_number   1
_chemical_formula_structural   Nd2AlGa2
_chemical_formula_sum   'Nd2 Al1 Ga2'
_cell_volume   149.12869277
_cell_formula_units_Z   1
loop_
 _symmetry_equiv_pos_site_id
 _symmetry_equiv_pos_as_xyz
  1  'x, y, z'
loop_
 _atom_site_type_symbol
 _atom_site_label
 _atom_site_symmetry_multiplicity
 _atom_site_fract_x
 _atom_site_fract_y
 _atom_site_fract_z
 _atom_site_occupancy
  Nd  Nd0  1  0.36846101  0.49999998  0.73692200  1
  Nd  Nd1  1  0.63153901  0.49999998  0.26307801  1
  Ga  Ga2  1  0.20332600  0.00000000  0.40665200  1
  Al  Al3  1  0.79667402  0.00000000  0.59334801  1
  Ga  Ga4  1  0.00000000  0.00000000  0.00000000  1
