# generated using pymatgen
data_Lu4(GaGe)3
_symmetry_space_group_name_H-M   'P 1'
_cell_length_a   4.08664608
_cell_length_b   4.08664656
_cell_length_c   13.80678082
_cell_angle_alpha   90.00000000
_cell_angle_beta   90.00000000
_cell_angle_gamma   119.99999237
_symmetry_Int_Tables_number   1
_chemical_formula_structural   Lu4(GaGe)3
_chemical_formula_sum   'Lu4 Ga3 Ge3'
_cell_volume   199.69040673
_cell_formula_units_Z   1
loop_
 _symmetry_equiv_pos_site_id
 _symmetry_equiv_pos_as_xyz
  1  'x, y, z'
loop_
 _atom_site_type_symbol
 _atom_site_label
 _atom_site_symmetry_multiplicity
 _atom_site_fract_x
 _atom_site_fract_y
 _atom_site_fract_z
 _atom_site_occupancy
  Lu  Lu0  1  0.66666664  0.33333333  0.11950800  1
  Lu  Lu1  1  0.33333329  0.66666667  0.61950801  1
  Lu  Lu2  1  0.33333329  0.66666667  0.88430601  1
  Lu  Lu3  1  0.66666664  0.33333333  0.38430601  1
  Ga  Ga4  1  0.00000000  0.00000000  0.26534500  1
  Ga  Ga5  1  0.00000000  0.00000000  0.76534501  1
  Ga  Ga6  1  0.00000000  0.00000000  0.49981501  1
  Ge  Ge7  1  0.00000000  0.00000000  0.99981501  1
  Ge  Ge8  1  0.33333329  0.66666667  0.24735700  1
  Ge  Ge9  1  0.66666664  0.33333333  0.74735701  1
