# generated using pymatgen
data_CaCrO3
_symmetry_space_group_name_H-M   'P 1'
_cell_length_a   5.40776014
_cell_length_b   5.50742912
_cell_length_c   7.69401217
_cell_angle_alpha   90.00000000
_cell_angle_beta   90.00000000
_cell_angle_gamma   90.00000000
_symmetry_Int_Tables_number   1
_chemical_formula_structural   CaCrO3
_chemical_formula_sum   'Ca4 Cr4 O12'
_cell_volume   229.14965409
_cell_formula_units_Z   4
loop_
 _symmetry_equiv_pos_site_id
 _symmetry_equiv_pos_as_xyz
  1  'x, y, z'
loop_
 _atom_site_type_symbol
 _atom_site_label
 _atom_site_symmetry_multiplicity
 _atom_site_fract_x
 _atom_site_fract_y
 _atom_site_fract_z
 _atom_site_occupancy
  Ca  Ca0  1  0.50909399  0.54287499  0.74999998  1
  Ca  Ca1  1  0.49090599  0.45712499  0.24999999  1
  Ca  Ca2  1  0.99090597  0.04287500  0.74999998  1
  Ca  Ca3  1  0.00909400  0.95712498  0.24999999  1
  Cr  Cr4  1  0.00000000  0.49999999  0.49999999  1
  Cr  Cr5  1  0.00000000  0.49999999  -0.00000000  1
  Cr  Cr6  1  0.49999999  0.00000000  0.49999999  1
  Cr  Cr7  1  0.49999999  0.00000000  0.00000000  1
  O  O8  1  0.07808600  0.48019399  0.74999998  1
  O  O9  1  0.92191398  0.51980599  0.24999999  1
  O  O10  1  0.42191399  0.98019398  0.74999998  1
  O  O11  1  0.57808598  0.01980600  0.24999999  1
  O  O12  1  0.79062298  0.79003798  0.95897098  1
  O  O13  1  0.20937699  0.20996200  0.45897099  1
  O  O14  1  0.20937699  0.20996200  0.04102900  1
  O  O15  1  0.79062298  0.79003798  0.54102899  1
  O  O16  1  0.70937698  0.29003799  0.95897098  1
  O  O17  1  0.29062299  0.70996198  0.45897099  1
  O  O18  1  0.29062299  0.70996198  0.04102900  1
  O  O19  1  0.70937698  0.29003799  0.54102899  1
