# generated using pymatgen
data_K4BiSb4
_symmetry_space_group_name_H-M   'P 1'
_cell_length_a   6.55516386
_cell_length_b   6.88699913
_cell_length_c   8.47646904
_cell_angle_alpha   91.52931976
_cell_angle_beta   90.04318237
_cell_angle_gamma   96.19120789
_symmetry_Int_Tables_number   1
_chemical_formula_structural   K4BiSb4
_chemical_formula_sum   'K4 Bi1 Sb4'
_cell_volume   380.30366351
_cell_formula_units_Z   1
loop_
 _symmetry_equiv_pos_site_id
 _symmetry_equiv_pos_as_xyz
  1  'x, y, z'
loop_
 _atom_site_type_symbol
 _atom_site_label
 _atom_site_symmetry_multiplicity
 _atom_site_fract_x
 _atom_site_fract_y
 _atom_site_fract_z
 _atom_site_occupancy
  K  K0  1  0.73540401  0.29230200  0.97725794  1
  K  K1  1  0.70907099  0.97777102  0.35921191  1
  K  K2  1  -0.00000001  0.50000001  0.49999997  1
  K  K3  1  0.29092901  0.02222900  0.64078798  1
  Bi  Bi4  1  0.26459599  0.70769801  0.02274195  1
  Sb  Sb5  1  0.51675200  0.47557401  0.33384895  1
  Sb  Sb6  1  0.77956299  0.82119401  0.78609791  1
  Sb  Sb7  1  0.22043700  0.17880600  0.21390198  1
  Sb  Sb8  1  0.48324800  0.52442601  0.66615094  1
