# generated using pymatgen
data_La4MgGa5
_symmetry_space_group_name_H-M   'P 1'
_cell_length_a   3.71265507
_cell_length_b   3.71265507
_cell_length_c   18.57556915
_cell_angle_alpha   90.00000000
_cell_angle_beta   90.00000000
_cell_angle_gamma   90.00000000
_symmetry_Int_Tables_number   1
_chemical_formula_structural   La4MgGa5
_chemical_formula_sum   'La4 Mg1 Ga5'
_cell_volume   256.04207219
_cell_formula_units_Z   1
loop_
 _symmetry_equiv_pos_site_id
 _symmetry_equiv_pos_as_xyz
  1  'x, y, z'
loop_
 _atom_site_type_symbol
 _atom_site_label
 _atom_site_symmetry_multiplicity
 _atom_site_fract_x
 _atom_site_fract_y
 _atom_site_fract_z
 _atom_site_occupancy
  La  La0  1  0.00000000  0.00000000  0.19871100  1
  La  La1  1  0.00000000  0.00000000  0.39977400  1
  La  La2  1  0.00000000  0.00000000  0.60022600  1
  La  La3  1  0.00000000  0.00000000  0.80128899  1
  Mg  Mg4  1  0.00000000  0.00000000  0.00000000  1
  Ga  Ga5  1  0.49999999  0.49999999  0.09765700  1
  Ga  Ga6  1  0.49999999  0.49999999  0.29996100  1
  Ga  Ga7  1  0.49999999  0.49999999  0.50000000  1
  Ga  Ga8  1  0.49999999  0.49999999  0.70003899  1
  Ga  Ga9  1  0.49999999  0.49999999  0.90234299  1
