# generated using pymatgen
data_LiCdAu3
_symmetry_space_group_name_H-M   'P 1'
_cell_length_a   5.73520613
_cell_length_b   5.73520613
_cell_length_c   14.25910568
_cell_angle_alpha   90.00000000
_cell_angle_beta   90.00000000
_cell_angle_gamma   120.00000000
_symmetry_Int_Tables_number   1
_chemical_formula_structural   LiCdAu3
_chemical_formula_sum   'Li4 Cd4 Au12'
_cell_volume   406.18228857
_cell_formula_units_Z   4
loop_
 _symmetry_equiv_pos_site_id
 _symmetry_equiv_pos_as_xyz
  1  'x, y, z'
loop_
 _atom_site_type_symbol
 _atom_site_label
 _atom_site_symmetry_multiplicity
 _atom_site_fract_x
 _atom_site_fract_y
 _atom_site_fract_z
 _atom_site_occupancy
  Li  Li0  1  0.00000000  0.00000000  0.75000002  1
  Li  Li1  1  0.00000000  0.00000000  0.25000001  1
  Li  Li2  1  0.66666665  0.33333332  0.75000002  1
  Cd  Cd3  1  0.33333332  0.66666664  0.25000001  1
  Li  Li4  1  0.66666665  0.33333332  0.41067001  1
  Cd  Cd5  1  0.33333332  0.66666664  0.91067002  1
  Cd  Cd6  1  0.33333332  0.66666664  0.58933001  1
  Cd  Cd7  1  0.66666665  0.33333332  0.08933000  1
  Au  Au8  1  0.83460098  0.16539899  0.58722901  1
  Au  Au9  1  0.83460098  0.66920197  0.58722901  1
  Au  Au10  1  0.33079799  0.16539899  0.58722901  1
  Au  Au11  1  0.16539899  0.33079799  0.08722900  1
  Au  Au12  1  0.66920198  0.83460097  0.08722900  1
  Au  Au13  1  0.16539899  0.83460097  0.08722900  1
  Au  Au14  1  0.16539899  0.83460097  0.41277101  1
  Au  Au15  1  0.16539899  0.33079799  0.41277101  1
  Au  Au16  1  0.66920198  0.83460097  0.41277101  1
  Au  Au17  1  0.83460098  0.66920197  0.91277102  1
  Au  Au18  1  0.33079799  0.16539899  0.91277102  1
  Au  Au19  1  0.83460098  0.16539899  0.91277102  1
