# generated using pymatgen
data_ErZnSi
_symmetry_space_group_name_H-M   'P 1'
_cell_length_a   3.74440098
_cell_length_b   4.24214935
_cell_length_c   4.24307203
_cell_angle_alpha   119.99324036
_cell_angle_beta   90.00000000
_cell_angle_gamma   90.00000000
_symmetry_Int_Tables_number   1
_chemical_formula_structural   ErZnSi
_chemical_formula_sum   'Er1 Zn1 Si1'
_cell_volume   58.37258400
_cell_formula_units_Z   1
loop_
 _symmetry_equiv_pos_site_id
 _symmetry_equiv_pos_as_xyz
  1  'x, y, z'
loop_
 _atom_site_type_symbol
 _atom_site_label
 _atom_site_symmetry_multiplicity
 _atom_site_fract_x
 _atom_site_fract_y
 _atom_site_fract_z
 _atom_site_occupancy
  Er  Er0  1  0.00000000  0.00005000  0.00009000  1
  Zn  Zn1  1  0.50000000  0.33333332  0.66674997  1
  Si  Si2  1  0.50000000  0.66653498  0.33315996  1
