# generated using pymatgen
data_Li2Ni3O5
_symmetry_space_group_name_H-M   'P 1'
_cell_length_a   4.16614819
_cell_length_b   5.10153103
_cell_length_c   5.10153103
_cell_angle_alpha   80.40237427
_cell_angle_beta   65.90045166
_cell_angle_gamma   65.90045166
_symmetry_Int_Tables_number   1
_chemical_formula_structural   Li2Ni3O5
_chemical_formula_sum   'Li2 Ni3 O5'
_cell_volume   90.34884919
_cell_formula_units_Z   1
loop_
 _symmetry_equiv_pos_site_id
 _symmetry_equiv_pos_as_xyz
  1  'x, y, z'
loop_
 _atom_site_type_symbol
 _atom_site_label
 _atom_site_symmetry_multiplicity
 _atom_site_fract_x
 _atom_site_fract_y
 _atom_site_fract_z
 _atom_site_occupancy
  Li  Li0  1  0.00000000  0.00000000  0.00000000  1
  Li  Li1  1  0.60115097  0.19534099  0.60235702  1
  Ni  Ni2  1  0.20350801  0.39764298  0.19534101  1
  Ni  Ni3  1  0.79649198  0.60235697  0.80465903  1
  Ni  Ni4  1  0.39884902  0.80465896  0.39764303  1
  O  O5  1  0.69096198  0.41189898  0.20617704  1
  O  O6  1  0.30903801  0.58810097  0.79382301  1
  O  O7  1  0.89713899  0.79382296  0.41189905  1
  O  O8  1  0.49999997  0.00000000  0.00000002  1
  O  O9  1  0.10286101  0.20617699  0.58810100  1
