# generated using pymatgen
data_Mn2Ru2O3
_symmetry_space_group_name_H-M   'P 1'
_cell_length_a   5.48167419
_cell_length_b   5.48167419
_cell_length_c   7.73568869
_cell_angle_alpha   69.29382324
_cell_angle_beta   69.29382324
_cell_angle_gamma   70.67974854
_symmetry_Int_Tables_number   1
_chemical_formula_structural   Mn2Ru2O3
_chemical_formula_sum   'Mn4 Ru4 O6'
_cell_volume   197.68048318
_cell_formula_units_Z   2
loop_
 _symmetry_equiv_pos_site_id
 _symmetry_equiv_pos_as_xyz
  1  'x, y, z'
loop_
 _atom_site_type_symbol
 _atom_site_label
 _atom_site_symmetry_multiplicity
 _atom_site_fract_x
 _atom_site_fract_y
 _atom_site_fract_z
 _atom_site_occupancy
  Mn  Mn0  1  0.54922803  0.45077201  0.74999997  1
  Mn  Mn1  1  0.45077203  0.54922802  0.24999998  1
  Mn  Mn2  1  0.00000000  0.00000000  0.49999998  1
  Mn  Mn3  1  0.00000000  0.00000000  0.00000000  1
  Ru  Ru4  1  0.08499503  0.91500503  0.24999998  1
  Ru  Ru5  1  0.91500504  0.08499500  0.74999997  1
  Ru  Ru6  1  0.76330605  0.79224702  0.10867598  1
  Ru  Ru7  1  0.20775301  0.23669401  0.39132398  1
  O  O8  1  0.70164203  0.28168601  0.46829798  1
  O  O9  1  0.71831404  0.29835801  0.03170199  1
  O  O10  1  0.29835803  0.71831402  0.53170197  1
  O  O11  1  0.28168603  0.70164202  0.96829796  1
  O  O12  1  0.79224705  0.76330602  0.60867597  1
  O  O13  1  0.23669401  0.20775301  0.89132397  1
