# generated using pymatgen
data_BaSiP2Pt
_symmetry_space_group_name_H-M   'P 1'
_cell_length_a   4.79643536
_cell_length_b   4.79643536
_cell_length_c   4.79672194
_cell_angle_alpha   90.00000000
_cell_angle_beta   90.00000000
_cell_angle_gamma   89.84843445
_symmetry_Int_Tables_number   1
_chemical_formula_structural   BaSiP2Pt
_chemical_formula_sum   'Ba1 Si1 P2 Pt1'
_cell_volume   110.35200162
_cell_formula_units_Z   1
loop_
 _symmetry_equiv_pos_site_id
 _symmetry_equiv_pos_as_xyz
  1  'x, y, z'
loop_
 _atom_site_type_symbol
 _atom_site_label
 _atom_site_symmetry_multiplicity
 _atom_site_fract_x
 _atom_site_fract_y
 _atom_site_fract_z
 _atom_site_occupancy
  Ba  Ba0  1  0.00427300  0.00427300  0.50000001  1
  Si  Si1  1  0.50284002  0.50284000  -0.00000000  1
  P  P2  1  0.00258602  0.50634100  -0.00000000  1
  P  P3  1  0.49566102  0.49566100  0.50000001  1
  Pt  Pt4  1  0.50634100  0.00258600  -0.00000000  1
