# generated using pymatgen
data_Tb3Ga2Sn4Mo
_symmetry_space_group_name_H-M   'P 1'
_cell_length_a   3.60349488
_cell_length_b   3.60349488
_cell_length_c   18.08652306
_cell_angle_alpha   90.00000000
_cell_angle_beta   90.00000000
_cell_angle_gamma   90.00000000
_symmetry_Int_Tables_number   1
_chemical_formula_structural   Tb3Ga2Sn4Mo
_chemical_formula_sum   'Tb3 Ga2 Sn4 Mo1'
_cell_volume   234.85667369
_cell_formula_units_Z   1
loop_
 _symmetry_equiv_pos_site_id
 _symmetry_equiv_pos_as_xyz
  1  'x, y, z'
loop_
 _atom_site_type_symbol
 _atom_site_label
 _atom_site_symmetry_multiplicity
 _atom_site_fract_x
 _atom_site_fract_y
 _atom_site_fract_z
 _atom_site_occupancy
  Tb  Tb0  1  0.00000000  0.00000000  0.00000000  1
  Tb  Tb1  1  0.00000000  0.00000000  0.19996100  1
  Tb  Tb2  1  0.00000000  0.00000000  0.40034800  1
  Ga  Ga3  1  0.00000000  0.00000000  0.59965200  1
  Ga  Ga4  1  0.00000000  0.00000000  0.80003900  1
  Sn  Sn5  1  0.50000002  0.50000002  0.10162300  1
  Sn  Sn6  1  0.50000002  0.50000002  0.30023600  1
  Sn  Sn7  1  0.50000002  0.50000002  0.50000000  1
  Sn  Sn8  1  0.50000002  0.50000002  0.69976400  1
  Mo  Mo9  1  0.50000002  0.50000002  0.89837700  1
