# generated using pymatgen
data_NaAg2
_symmetry_space_group_name_H-M   'P 1'
_cell_length_a   3.89110208
_cell_length_b   3.89110208
_cell_length_c   6.26424170
_cell_angle_alpha   108.09421539
_cell_angle_beta   108.09421539
_cell_angle_gamma   90.00000000
_symmetry_Int_Tables_number   1
_chemical_formula_structural   NaAg2
_chemical_formula_sum   'Na1 Ag2'
_cell_volume   85.20634289
_cell_formula_units_Z   1
loop_
 _symmetry_equiv_pos_site_id
 _symmetry_equiv_pos_as_xyz
  1  'x, y, z'
loop_
 _atom_site_type_symbol
 _atom_site_label
 _atom_site_symmetry_multiplicity
 _atom_site_fract_x
 _atom_site_fract_y
 _atom_site_fract_z
 _atom_site_occupancy
  Na  Na0  1  0.50000000  0.49999999  0.00000002  1
  Ag  Ag1  1  0.81697200  0.81697199  0.63394404  1
  Ag  Ag2  1  0.18302800  0.18302800  0.36605601  1
