# generated using pymatgen
data_Li4Cu2W3O11
_symmetry_space_group_name_H-M   'P 1'
_cell_length_a   5.13285589
_cell_length_b   5.49646521
_cell_length_c   8.83802986
_cell_angle_alpha   105.47079468
_cell_angle_beta   90.00000000
_cell_angle_gamma   117.83477020
_symmetry_Int_Tables_number   1
_chemical_formula_structural   Li4Cu2W3O11
_chemical_formula_sum   'Li4 Cu2 W3 O11'
_cell_volume   210.22310364
_cell_formula_units_Z   1
loop_
 _symmetry_equiv_pos_site_id
 _symmetry_equiv_pos_as_xyz
  1  'x, y, z'
loop_
 _atom_site_type_symbol
 _atom_site_label
 _atom_site_symmetry_multiplicity
 _atom_site_fract_x
 _atom_site_fract_y
 _atom_site_fract_z
 _atom_site_occupancy
  Li  Li0  1  0.22165901  0.19488500  0.69989198  1
  Li  Li1  1  0.02677400  0.80511500  0.30010799  1
  Li  Li2  1  0.97859402  0.69615000  0.94985597  1
  Li  Li3  1  0.28244401  0.30385000  0.05014400  1
  Cu  Cu4  1  0.72965302  0.20460900  0.19954899  1
  Cu  Cu5  1  0.52504402  0.79539100  0.80045097  1
  W  W6  1  0.47389701  0.70224900  0.45042798  1
  W  W7  1  0.77164802  0.29775100  0.54957198  1
  W  W8  1  0.47604901  0.00293400  0.34868299  1
  O  O9  1  0.97133603  0.99399100  0.84784897  1
  O  O10  1  0.43511301  0.00000000  0.00000000  1
  O  O11  1  0.07015000  0.49807100  0.75017398  1
  O  O12  1  0.52400701  0.49890000  0.59780198  1
  O  O13  1  0.02716300  0.50147000  0.09920099  1
  O  O14  1  0.97734502  0.00600900  0.15215100  1
  O  O15  1  0.47311502  0.99706600  0.65131698  1
  O  O16  1  0.92242402  0.00000000  0.49999999  1
  O  O17  1  0.57207901  0.50192900  0.24982599  1
  O  O18  1  0.02510700  0.50110000  0.40219799  1
  O  O19  1  0.52569301  0.49853000  0.90079897  1
