# generated using pymatgen
data_SrAg2
_symmetry_space_group_name_H-M   'P 1'
_cell_length_a   3.80690694
_cell_length_b   4.99085188
_cell_length_c   4.99085236
_cell_angle_alpha   60.00000381
_cell_angle_beta   90.00000000
_cell_angle_gamma   90.00000000
_symmetry_Int_Tables_number   1
_chemical_formula_structural   SrAg2
_chemical_formula_sum   'Sr1 Ag2'
_cell_volume   82.12063748
_cell_formula_units_Z   1
loop_
 _symmetry_equiv_pos_site_id
 _symmetry_equiv_pos_as_xyz
  1  'x, y, z'
loop_
 _atom_site_type_symbol
 _atom_site_label
 _atom_site_symmetry_multiplicity
 _atom_site_fract_x
 _atom_site_fract_y
 _atom_site_fract_z
 _atom_site_occupancy
  Sr  Sr0  1  0.00000000  0.00000000  0.00000000  1
  Ag  Ag1  1  0.50000001  0.66666667  0.66666669  1
  Ag  Ag2  1  0.50000001  0.33333334  0.33333334  1
