# generated using pymatgen
data_SbPd
_symmetry_space_group_name_H-M   'P 1'
_cell_length_a   3.79942608
_cell_length_b   3.79942656
_cell_length_c   3.89856911
_cell_angle_alpha   90.00000000
_cell_angle_beta   90.00000000
_cell_angle_gamma   119.99999237
_symmetry_Int_Tables_number   1
_chemical_formula_structural   SbPd
_chemical_formula_sum   'Sb1 Pd1'
_cell_volume   48.73847714
_cell_formula_units_Z   1
loop_
 _symmetry_equiv_pos_site_id
 _symmetry_equiv_pos_as_xyz
  1  'x, y, z'
loop_
 _atom_site_type_symbol
 _atom_site_label
 _atom_site_symmetry_multiplicity
 _atom_site_fract_x
 _atom_site_fract_y
 _atom_site_fract_z
 _atom_site_occupancy
  Sb  Sb0  1  0.00000000  0.00000000  0.00000000  1
  Pd  Pd1  1  0.66666663  0.33333332  0.49999999  1
