# generated using pymatgen
data_Nd7Pt3
_symmetry_space_group_name_H-M   'P 1'
_cell_length_a   6.54456902
_cell_length_b   10.24738884
_cell_length_c   10.24738884
_cell_angle_alpha   119.85726929
_cell_angle_beta   90.00000000
_cell_angle_gamma   90.00000000
_symmetry_Int_Tables_number   1
_chemical_formula_structural   Nd7Pt3
_chemical_formula_sum   'Nd14 Pt6'
_cell_volume   596.02015241
_cell_formula_units_Z   2
loop_
 _symmetry_equiv_pos_site_id
 _symmetry_equiv_pos_as_xyz
  1  'x, y, z'
loop_
 _atom_site_type_symbol
 _atom_site_label
 _atom_site_symmetry_multiplicity
 _atom_site_fract_x
 _atom_site_fract_y
 _atom_site_fract_z
 _atom_site_occupancy
  Nd  Nd0  1  0.45787500  0.33333332  0.66666664  1
  Nd  Nd1  1  0.95787500  0.66666664  0.33333332  1
  Nd  Nd2  1  0.24847100  0.12715800  0.87284197  1
  Nd  Nd3  1  0.24791500  0.74618598  0.87313197  1
  Nd  Nd4  1  0.24791500  0.12686800  0.25381399  1
  Nd  Nd5  1  0.74847100  0.87284197  0.12715800  1
  Nd  Nd6  1  0.74791500  0.25381399  0.12686800  1
  Nd  Nd7  1  0.74791500  0.87313197  0.74618598  1
  Nd  Nd8  1  0.44152600  0.53775298  0.46224699  1
  Nd  Nd9  1  0.44120900  0.92440997  0.46229099  1
  Nd  Nd10  1  0.44120900  0.53770898  0.07559000  1
  Nd  Nd11  1  0.94152600  0.46224698  0.53775298  1
  Nd  Nd12  1  0.94120900  0.07559000  0.53770898  1
  Nd  Nd13  1  0.94120900  0.46229098  0.92440997  1
  Pt  Pt14  1  0.18911300  0.81084397  0.18915599  1
  Pt  Pt15  1  0.18888300  0.37830099  0.18936299  1
  Pt  Pt16  1  0.18888300  0.81063697  0.62169898  1
  Pt  Pt17  1  0.68911300  0.18915599  0.81084397  1
  Pt  Pt18  1  0.68888300  0.62169898  0.81063697  1
  Pt  Pt19  1  0.68888300  0.18936299  0.37830099  1
