# generated using pymatgen
data_LiMn2F5
_symmetry_space_group_name_H-M   'P 1'
_cell_length_a   4.12052011
_cell_length_b   5.65629387
_cell_length_c   10.49180031
_cell_angle_alpha   90.00000000
_cell_angle_beta   90.00000000
_cell_angle_gamma   111.36094666
_symmetry_Int_Tables_number   1
_chemical_formula_structural   LiMn2F5
_chemical_formula_sum   'Li2 Mn4 F10'
_cell_volume   227.73282262
_cell_formula_units_Z   2
loop_
 _symmetry_equiv_pos_site_id
 _symmetry_equiv_pos_as_xyz
  1  'x, y, z'
loop_
 _atom_site_type_symbol
 _atom_site_label
 _atom_site_symmetry_multiplicity
 _atom_site_fract_x
 _atom_site_fract_y
 _atom_site_fract_z
 _atom_site_occupancy
  Li  Li0  1  0.17664702  0.35329401  0.74999998  1
  Li  Li1  1  0.82335303  0.64670602  0.24999999  1
  Mn  Mn2  1  0.13937502  0.27875001  0.43048199  1
  Mn  Mn3  1  0.13937502  0.27875001  0.06951800  1
  Mn  Mn4  1  0.86062503  0.72125002  0.93048197  1
  Mn  Mn5  1  0.86062503  0.72125002  0.56951798  1
  F  F6  1  0.30990304  0.61980602  0.56733998  1
  F  F7  1  0.05342901  0.10685800  0.88413897  1
  F  F8  1  0.05342901  0.10685800  0.61586098  1
  F  F9  1  0.30990304  0.61980602  0.93265997  1
  F  F10  1  0.23569703  0.47139402  0.24999999  1
  F  F11  1  0.76430302  0.52860602  0.74999998  1
  F  F12  1  0.94657105  0.89314203  0.38413899  1
  F  F13  1  0.69009701  0.38019401  0.43265999  1
  F  F14  1  0.69009701  0.38019401  0.06734000  1
  F  F15  1  0.94657105  0.89314203  0.11586100  1
