# generated using pymatgen
data_CeSi3Ni
_symmetry_space_group_name_H-M   'P 1'
_cell_length_a   3.99610496
_cell_length_b   3.99610496
_cell_length_c   10.00459003
_cell_angle_alpha   90.00000000
_cell_angle_beta   90.00000000
_cell_angle_gamma   90.00000000
_symmetry_Int_Tables_number   1
_chemical_formula_structural   CeSi3Ni
_chemical_formula_sum   'Ce2 Si6 Ni2'
_cell_volume   159.76184576
_cell_formula_units_Z   2
loop_
 _symmetry_equiv_pos_site_id
 _symmetry_equiv_pos_as_xyz
  1  'x, y, z'
loop_
 _atom_site_type_symbol
 _atom_site_label
 _atom_site_symmetry_multiplicity
 _atom_site_fract_x
 _atom_site_fract_y
 _atom_site_fract_z
 _atom_site_occupancy
  Ce  Ce0  1  0.00000000  0.00000000  0.99408400  1
  Ce  Ce1  1  0.50000001  0.50000001  0.50591600  1
  Si  Si2  1  0.00000000  0.50000001  0.25000000  1
  Si  Si3  1  0.50000001  0.00000000  0.75000000  1
  Si  Si4  1  0.50000001  0.00000000  0.25000000  1
  Si  Si5  1  0.00000000  0.50000001  0.75000000  1
  Si  Si6  1  0.50000001  0.50000001  0.12534000  1
  Ni  Ni7  1  0.00000000  0.00000000  0.64049200  1
  Ni  Ni8  1  0.00000000  0.00000000  0.37466000  1
  Si  Si9  1  0.50000001  0.50000001  0.85950800  1
