# generated using pymatgen
data_CrCu3PdS8
_symmetry_space_group_name_H-M   'P 1'
_cell_length_a   6.81210804
_cell_length_b   6.84591293
_cell_length_c   6.84591293
_cell_angle_alpha   60.96498489
_cell_angle_beta   60.16321182
_cell_angle_gamma   60.16321182
_symmetry_Int_Tables_number   1
_chemical_formula_structural   CrCu3PdS8
_chemical_formula_sum   'Cr1 Cu3 Pd1 S8'
_cell_volume   227.91847989
_cell_formula_units_Z   1
loop_
 _symmetry_equiv_pos_site_id
 _symmetry_equiv_pos_as_xyz
  1  'x, y, z'
loop_
 _atom_site_type_symbol
 _atom_site_label
 _atom_site_symmetry_multiplicity
 _atom_site_fract_x
 _atom_site_fract_y
 _atom_site_fract_z
 _atom_site_occupancy
  Cr  Cr0  1  0.60353700  0.18753601  0.60538998  1
  Cu  Cu1  1  0.60353700  0.60539002  0.18753596  1
  Cu  Cu2  1  0.58945400  0.60497102  0.60497097  1
  Cu  Cu3  1  0.20060400  0.60497102  0.60497098  1
  Pd  Pd4  1  0.99434701  0.00565300  0.00565297  1
  S  S5  1  0.88232600  0.37130501  0.37130497  1
  S  S6  1  0.37506400  0.37130601  0.37130498  1
  S  S7  1  0.40593100  0.86561703  0.86561697  1
  S  S8  1  0.86283500  0.86561703  0.86561695  1
  S  S9  1  0.36903700  0.36987401  0.89205199  1
  S  S10  1  0.36903700  0.89205203  0.36987396  1
  S  S11  1  0.86309600  0.86183503  0.41197295  1
  S  S12  1  0.86309500  0.41197301  0.86183597  1
