# generated using pymatgen
data_Li3Mn2Co3O8
_symmetry_space_group_name_H-M   'P 1'
_cell_length_a   5.81567621
_cell_length_b   6.24745226
_cell_length_c   5.82704496
_cell_angle_alpha   117.25100708
_cell_angle_beta   90.00000000
_cell_angle_gamma   117.73894501
_symmetry_Int_Tables_number   1
_chemical_formula_structural   Li3Mn2Co3O8
_chemical_formula_sum   'Li3 Mn2 Co3 O8'
_cell_volume   160.35912799
_cell_formula_units_Z   1
loop_
 _symmetry_equiv_pos_site_id
 _symmetry_equiv_pos_as_xyz
  1  'x, y, z'
loop_
 _atom_site_type_symbol
 _atom_site_label
 _atom_site_symmetry_multiplicity
 _atom_site_fract_x
 _atom_site_fract_y
 _atom_site_fract_z
 _atom_site_occupancy
  Li  Li0  1  -0.00000004  0.49999998  0.99999999  1
  Li  Li1  1  0.00000000  0.00000000  0.50000000  1
  Li  Li2  1  0.49999994  0.49999998  0.99999999  1
  Mn  Mn3  1  0.49999990  0.99999996  0.49999998  1
  Mn  Mn4  1  0.00000000  0.00000000  0.00000000  1
  Co  Co5  1  -0.00000004  0.49999998  0.49999999  1
  Co  Co6  1  0.49999994  0.49999998  0.49999999  1
  Co  Co7  1  0.49999990  0.99999996  0.99999998  1
  O  O8  1  0.72582394  0.45164798  0.25617299  1
  O  O9  1  0.75877997  0.05018000  0.75935400  1
  O  O10  1  0.29139999  0.05018000  0.75935400  1
  O  O11  1  0.20441896  0.40883798  0.24151399  1
  O  O12  1  0.79558092  0.59116198  0.75848599  1
  O  O13  1  0.70859990  0.94981996  0.24064598  1
  O  O14  1  0.24121992  0.94981996  0.24064598  1
  O  O15  1  0.27417595  0.54835198  0.74382699  1
