# generated using pymatgen
data_MgGe4
_symmetry_space_group_name_H-M   'P 1'
_cell_length_a   6.97040319
_cell_length_b   7.04512978
_cell_length_c   7.01462841
_cell_angle_alpha   90.00000000
_cell_angle_beta   88.81538391
_cell_angle_gamma   90.00000000
_symmetry_Int_Tables_number   1
_chemical_formula_structural   MgGe4
_chemical_formula_sum   'Mg4 Ge16'
_cell_volume   344.39650536
_cell_formula_units_Z   4
loop_
 _symmetry_equiv_pos_site_id
 _symmetry_equiv_pos_as_xyz
  1  'x, y, z'
loop_
 _atom_site_type_symbol
 _atom_site_label
 _atom_site_symmetry_multiplicity
 _atom_site_fract_x
 _atom_site_fract_y
 _atom_site_fract_z
 _atom_site_occupancy
  Mg  Mg0  1  0.81064098  0.80784303  0.55769795  1
  Mg  Mg1  1  0.18935899  0.30784301  0.44230198  1
  Mg  Mg2  1  0.69037498  0.18518401  0.06463597  1
  Mg  Mg3  1  0.30962499  0.68518402  0.93536396  1
  Ge  Ge4  1  0.06342700  0.56286302  0.68784598  1
  Ge  Ge5  1  0.93657297  0.06286300  0.31215396  1
  Ge  Ge6  1  0.29511299  0.04229000  0.12587899  1
  Ge  Ge7  1  0.37380799  0.30023401  0.79270097  1
  Ge  Ge8  1  0.04329200  0.37898001  0.04558800  1
  Ge  Ge9  1  0.70488698  0.54229002  0.87412095  1
  Ge  Ge10  1  0.62619198  0.80023403  0.20729897  1
  Ge  Ge11  1  0.95670797  0.87898003  0.95441194  1
  Ge  Ge12  1  0.20160699  0.95527003  0.62378098  1
  Ge  Ge13  1  0.12314700  0.70376002  0.29617199  1
  Ge  Ge14  1  0.45547199  0.62860302  0.54956597  1
  Ge  Ge15  1  0.79839298  0.45527001  0.37621896  1
  Ge  Ge16  1  0.87685298  0.20376001  0.70382795  1
  Ge  Ge17  1  0.54452799  0.12860300  0.45043397  1
  Ge  Ge18  1  0.43295299  0.43497301  0.18372998  1
  Ge  Ge19  1  0.56704698  0.93497303  0.81626996  1
