# generated using pymatgen
data_K4Cu3F13
_symmetry_space_group_name_H-M   'P 1'
_cell_length_a   5.30566883
_cell_length_b   5.92083597
_cell_length_c   11.35166168
_cell_angle_alpha   90.00000000
_cell_angle_beta   90.00000000
_cell_angle_gamma   90.00000000
_symmetry_Int_Tables_number   1
_chemical_formula_structural   K4Cu3F13
_chemical_formula_sum   'K4 Cu3 F13'
_cell_volume   356.60104183
_cell_formula_units_Z   1
loop_
 _symmetry_equiv_pos_site_id
 _symmetry_equiv_pos_as_xyz
  1  'x, y, z'
loop_
 _atom_site_type_symbol
 _atom_site_label
 _atom_site_symmetry_multiplicity
 _atom_site_fract_x
 _atom_site_fract_y
 _atom_site_fract_z
 _atom_site_occupancy
  K  K0  1  0.07903600  0.75000000  0.90402603  1
  K  K1  1  0.07903600  0.25000000  0.59597402  1
  K  K2  1  0.92096403  0.25000000  0.09597400  1
  K  K3  1  0.92096403  0.75000000  0.40402601  1
  Cu  Cu4  1  0.54164002  0.75000000  0.66890902  1
  Cu  Cu5  1  0.54164002  0.25000000  0.83109102  1
  Cu  Cu6  1  0.45836001  0.25000000  0.33109101  1
  F  F7  1  0.45836001  0.75000000  0.16890900  1
  F  F8  1  0.57031202  0.50000000  0.25000001  1
  F  F9  1  0.42968801  0.00000000  0.75000002  1
  F  F10  1  0.42968801  0.50000000  0.75000002  1
  F  F11  1  0.57031202  0.00000000  0.25000001  1
  F  F12  1  0.42708901  0.75000000  0.53188601  1
  F  F13  1  0.42708901  0.25000000  0.96811403  1
  F  F14  1  0.57291102  0.25000000  0.46811401  1
  F  F15  1  0.57291102  0.75000000  0.03188600  1
  F  F16  1  0.14157200  0.75000000  0.16227300  1
  F  F17  1  0.14157200  0.25000000  0.33772701  1
  F  F18  1  0.85842803  0.25000000  0.83772702  1
  F  F19  1  0.85842803  0.75000000  0.66227302  1
