# generated using pymatgen
data_MnO2
_symmetry_space_group_name_H-M   'P 1'
_cell_length_a   4.78880978
_cell_length_b   5.76318312
_cell_length_c   7.97296095
_cell_angle_alpha   92.71127319
_cell_angle_beta   90.00240326
_cell_angle_gamma   90.00142670
_symmetry_Int_Tables_number   1
_chemical_formula_structural   MnO2
_chemical_formula_sum   'Mn6 O12'
_cell_volume   219.79773580
_cell_formula_units_Z   6
loop_
 _symmetry_equiv_pos_site_id
 _symmetry_equiv_pos_as_xyz
  1  'x, y, z'
loop_
 _atom_site_type_symbol
 _atom_site_label
 _atom_site_symmetry_multiplicity
 _atom_site_fract_x
 _atom_site_fract_y
 _atom_site_fract_z
 _atom_site_occupancy
  Mn  Mn0  1  0.98390706  0.33975800  0.33229398  1
  Mn  Mn1  1  0.46320003  0.16690600  0.65623299  1
  Mn  Mn2  1  0.03973603  0.66185599  0.65315099  1
  Mn  Mn3  1  0.48393106  0.82689799  0.33429099  1
  Mn  Mn4  1  0.53969105  0.50481100  0.01354099  1
  Mn  Mn5  1  0.96311609  0.99979099  0.01042898  1
  O  O6  1  0.17375603  0.38094900  0.54567699  1
  O  O7  1  0.30149905  0.86018099  0.54896799  1
  O  O8  1  0.67372207  0.78571299  0.12102298  1
  O  O9  1  0.80147205  0.30646800  0.11775799  1
  O  O10  1  0.20834301  0.03744000  0.23630900  1
  O  O11  1  0.27014004  0.53437800  0.23547099  1
  O  O12  1  0.70835804  0.12922700  0.43034799  1
  O  O13  1  0.77018506  0.63229599  0.43121698  1
  O  O14  1  0.22697404  0.69436699  0.90698399  1
  O  O15  1  0.33245403  0.21966000  0.90991099  1
  O  O16  1  0.72700006  0.47229200  0.75969299  1
  O  O17  1  0.83251808  0.94700599  0.75669998  1
