# generated using pymatgen
data_HoAl3
_symmetry_space_group_name_H-M   'P 1'
_cell_length_a   6.08034801
_cell_length_b   6.08034801
_cell_length_c   12.49603748
_cell_angle_alpha   75.91913605
_cell_angle_beta   75.91913605
_cell_angle_gamma   60.00000000
_symmetry_Int_Tables_number   1
_chemical_formula_structural   HoAl3
_chemical_formula_sum   'Ho5 Al15'
_cell_volume   383.97975737
_cell_formula_units_Z   5
loop_
 _symmetry_equiv_pos_site_id
 _symmetry_equiv_pos_as_xyz
  1  'x, y, z'
loop_
 _atom_site_type_symbol
 _atom_site_label
 _atom_site_symmetry_multiplicity
 _atom_site_fract_x
 _atom_site_fract_y
 _atom_site_fract_z
 _atom_site_occupancy
  Ho  Ho0  1  0.59993995  0.59993999  0.20018002  1
  Ho  Ho1  1  0.40005997  0.40005999  0.79982003  1
  Ho  Ho2  1  0.86901393  0.86901399  0.39295803  1
  Ho  Ho3  1  0.13098599  0.13098600  0.60704201  1
  Ho  Ho4  1  0.00000000  0.00000000  0.00000000  1
  Al  Al5  1  0.11741397  0.56648499  0.19868701  1
  Al  Al6  1  0.56648498  0.11741400  0.19868701  1
  Al  Al7  1  0.11741399  0.11741400  0.19868701  1
  Al  Al8  1  0.88258595  0.43351499  0.80131303  1
  Al  Al9  1  0.43351495  0.88258599  0.80131303  1
  Al  Al10  1  0.49999996  0.49999999  0.00000002  1
  Al  Al11  1  -0.00000002  0.49999999  0.00000001  1
  Al  Al12  1  0.49999998  0.00000000  0.00000001  1
  Al  Al13  1  0.63522795  0.63522799  0.59862403  1
  Al  Al14  1  0.13091997  0.63522799  0.59862402  1
  Al  Al15  1  0.63522797  0.13092000  0.59862402  1
  Al  Al16  1  0.36477197  0.36477199  0.40137602  1
  Al  Al17  1  0.86907995  0.36477199  0.40137603  1
  Al  Al18  1  0.36477195  0.86907999  0.40137603  1
  Al  Al19  1  0.88258593  0.88258599  0.80131304  1
