# generated using pymatgen
data_BaTaO3
_symmetry_space_group_name_H-M   'P 1'
_cell_length_a   5.80058479
_cell_length_b   5.83250093
_cell_length_c   8.21286392
_cell_angle_alpha   90.00000000
_cell_angle_beta   90.00000000
_cell_angle_gamma   90.00000000
_symmetry_Int_Tables_number   1
_chemical_formula_structural   BaTaO3
_chemical_formula_sum   'Ba4 Ta4 O12'
_cell_volume   277.85692420
_cell_formula_units_Z   4
loop_
 _symmetry_equiv_pos_site_id
 _symmetry_equiv_pos_as_xyz
  1  'x, y, z'
loop_
 _atom_site_type_symbol
 _atom_site_label
 _atom_site_symmetry_multiplicity
 _atom_site_fract_x
 _atom_site_fract_y
 _atom_site_fract_z
 _atom_site_occupancy
  Ba  Ba0  1  0.00548700  0.52549201  0.25000000  1
  Ba  Ba1  1  0.50548702  0.97450801  0.75000001  1
  Ba  Ba2  1  0.49451302  0.02549200  0.25000000  1
  Ba  Ba3  1  0.99451304  0.47450801  0.75000001  1
  Ta  Ta4  1  0.00000000  0.00000000  0.00000000  1
  Ta  Ta5  1  0.50000002  0.50000001  0.00000000  1
  Ta  Ta6  1  0.50000002  0.50000001  0.50000000  1
  Ta  Ta7  1  0.00000000  0.00000000  0.50000000  1
  O  O8  1  0.21842301  0.28148800  0.46437800  1
  O  O9  1  0.71842303  0.21851200  0.53562201  1
  O  O10  1  0.28157701  0.78148801  0.03562200  1
  O  O11  1  0.78157703  0.71851201  0.96437801  1
  O  O12  1  0.78157703  0.71851201  0.53562201  1
  O  O13  1  0.28157701  0.78148801  0.46437800  1
  O  O14  1  0.71842303  0.21851200  0.96437801  1
  O  O15  1  0.21842301  0.28148800  0.03562200  1
  O  O16  1  0.93219803  0.98518001  0.25000000  1
  O  O17  1  0.43219802  0.51482001  0.75000001  1
  O  O18  1  0.56780202  0.48518001  0.25000000  1
  O  O19  1  0.06780200  0.01482000  0.75000001  1
