# generated using pymatgen
data_Ba2In2O5
_symmetry_space_group_name_H-M   'P 1'
_cell_length_a   5.64561987
_cell_length_b   5.64561987
_cell_length_c   10.41326332
_cell_angle_alpha   90.00000000
_cell_angle_beta   90.00000000
_cell_angle_gamma   120.00000000
_symmetry_Int_Tables_number   1
_chemical_formula_structural   Ba2In2O5
_chemical_formula_sum   'Ba4 In4 O10'
_cell_volume   287.43572699
_cell_formula_units_Z   2
loop_
 _symmetry_equiv_pos_site_id
 _symmetry_equiv_pos_as_xyz
  1  'x, y, z'
loop_
 _atom_site_type_symbol
 _atom_site_label
 _atom_site_symmetry_multiplicity
 _atom_site_fract_x
 _atom_site_fract_y
 _atom_site_fract_z
 _atom_site_occupancy
  Ba  Ba0  1  0.00000000  0.00000000  0.00000000  1
  Ba  Ba1  1  0.33333332  0.66666664  0.49999998  1
  Ba  Ba2  1  0.00000000  0.00000000  0.34340999  1
  Ba  Ba3  1  0.00000000  0.00000000  0.65658998  1
  In  In4  1  0.66666667  0.33333332  0.49999998  1
  In  In5  1  0.33333332  0.66666664  0.85375397  1
  In  In6  1  0.66666667  0.33333332  0.14624600  1
  In  In7  1  0.33333332  0.66666664  0.14624600  1
  O  O8  1  0.66666667  0.33333332  0.85375397  1
  O  O9  1  1.00000001  0.48117198  0.72519698  1
  O  O10  1  0.51882799  0.51882798  0.27480299  1
  O  O11  1  0.51882799  0.51882798  0.72519698  1
  O  O12  1  -0.00000002  0.48146698  -0.00000000  1
  O  O13  1  0.48117201  0.00000000  0.27480299  1
  O  O14  1  1.00000001  0.48117198  0.27480299  1
  O  O15  1  0.48146701  0.00000000  0.00000000  1
  O  O16  1  0.51853299  0.51853298  -0.00000000  1
  O  O17  1  0.48117201  0.00000000  0.72519698  1
