# generated using pymatgen
data_TiW2
_symmetry_space_group_name_H-M   'P 1'
_cell_length_a   2.66375303
_cell_length_b   2.66375303
_cell_length_c   6.63294411
_cell_angle_alpha   98.12888336
_cell_angle_beta   98.12888336
_cell_angle_gamma   107.20584869
_symmetry_Int_Tables_number   1
_chemical_formula_structural   TiW2
_chemical_formula_sum   'Ti1 W2'
_cell_volume   43.66321234
_cell_formula_units_Z   1
loop_
 _symmetry_equiv_pos_site_id
 _symmetry_equiv_pos_as_xyz
  1  'x, y, z'
loop_
 _atom_site_type_symbol
 _atom_site_label
 _atom_site_symmetry_multiplicity
 _atom_site_fract_x
 _atom_site_fract_y
 _atom_site_fract_z
 _atom_site_occupancy
  Ti  Ti0  1  0.00000000  0.00000000  0.00000000  1
  W  W1  1  0.33863102  0.33863101  0.67726200  1
  W  W2  1  0.66136905  0.66136903  0.32273801  1
