# generated using pymatgen
data_Mn2RuO2
_symmetry_space_group_name_H-M   'P 1'
_cell_length_a   3.24492002
_cell_length_b   3.24492002
_cell_length_c   11.62628746
_cell_angle_alpha   98.02186584
_cell_angle_beta   98.02186584
_cell_angle_gamma   90.00000000
_symmetry_Int_Tables_number   1
_chemical_formula_structural   Mn2RuO2
_chemical_formula_sum   'Mn4 Ru2 O4'
_cell_volume   120.01133698
_cell_formula_units_Z   2
loop_
 _symmetry_equiv_pos_site_id
 _symmetry_equiv_pos_as_xyz
  1  'x, y, z'
loop_
 _atom_site_type_symbol
 _atom_site_label
 _atom_site_symmetry_multiplicity
 _atom_site_fract_x
 _atom_site_fract_y
 _atom_site_fract_z
 _atom_site_occupancy
  Mn  Mn0  1  0.39695700  0.39695700  0.79391401  1
  Mn  Mn1  1  0.79837000  0.79837000  0.59674001  1
  Mn  Mn2  1  0.20163000  0.20163000  0.40326001  1
  Mn  Mn3  1  0.60304300  0.60304300  0.20608601  1
  Ru  Ru4  1  0.00000000  0.00000000  0.00000000  1
  Ru  Ru5  1  0.10534100  0.10534100  0.21068200  1
  O  O6  1  0.50000000  0.50000000  0.00000000  1
  O  O7  1  0.89465900  0.89465900  0.78931801  1
  O  O8  1  0.29923200  0.29923200  0.59846401  1
  O  O9  1  0.70076800  0.70076800  0.40153601  1
