# generated using pymatgen
data_Mo2C
_symmetry_space_group_name_H-M   'P 1'
_cell_length_a   4.75410509
_cell_length_b   5.24148083
_cell_length_c   6.07648516
_cell_angle_alpha   90.00000000
_cell_angle_beta   90.00000000
_cell_angle_gamma   90.00000000
_symmetry_Int_Tables_number   1
_chemical_formula_structural   Mo2C
_chemical_formula_sum   'Mo8 C4'
_cell_volume   151.41720338
_cell_formula_units_Z   4
loop_
 _symmetry_equiv_pos_site_id
 _symmetry_equiv_pos_as_xyz
  1  'x, y, z'
loop_
 _atom_site_type_symbol
 _atom_site_label
 _atom_site_symmetry_multiplicity
 _atom_site_fract_x
 _atom_site_fract_y
 _atom_site_fract_z
 _atom_site_occupancy
  Mo  Mo0  1  0.24650000  0.07945700  0.87744698  1
  Mo  Mo1  1  0.74649999  0.92054303  0.62255298  1
  Mo  Mo2  1  0.25350000  0.57945702  0.62255298  1
  Mo  Mo3  1  0.75349999  0.42054301  0.87744698  1
  Mo  Mo4  1  0.24650000  0.57945702  0.12255300  1
  Mo  Mo5  1  0.74649999  0.42054301  0.37744699  1
  Mo  Mo6  1  0.25350000  0.07945700  0.37744699  1
  Mo  Mo7  1  0.75349999  0.92054303  0.12255300  1
  C  C8  1  0.49999999  0.75000002  0.87702298  1
  C  C9  1  0.00000000  0.25000001  0.62297698  1
  C  C10  1  0.49999999  0.25000001  0.12297700  1
  C  C11  1  0.00000000  0.75000002  0.37702299  1
