# generated using pymatgen
data_Al3C
_symmetry_space_group_name_H-M   'P 1'
_cell_length_a   3.02496409
_cell_length_b   3.02496433
_cell_length_c   13.60918999
_cell_angle_alpha   90.00000000
_cell_angle_beta   90.00000000
_cell_angle_gamma   120.00000000
_symmetry_Int_Tables_number   1
_chemical_formula_structural   Al3C
_chemical_formula_sum   'Al6 C2'
_cell_volume   107.84583837
_cell_formula_units_Z   2
loop_
 _symmetry_equiv_pos_site_id
 _symmetry_equiv_pos_as_xyz
  1  'x, y, z'
loop_
 _atom_site_type_symbol
 _atom_site_label
 _atom_site_symmetry_multiplicity
 _atom_site_fract_x
 _atom_site_fract_y
 _atom_site_fract_z
 _atom_site_occupancy
  Al  Al0  1  0.66666667  0.33333334  0.92242600  1
  Al  Al1  1  0.66666667  0.33333334  0.57757400  1
  Al  Al2  1  0.33333337  0.66666668  0.42242600  1
  Al  Al3  1  0.33333337  0.66666668  0.07757400  1
  Al  Al4  1  0.66666667  0.33333334  0.25000000  1
  Al  Al5  1  0.33333337  0.66666668  0.75000000  1
  C  C6  1  0.00000000  0.00000000  0.00000000  1
  C  C7  1  0.00000000  0.00000000  0.50000000  1
