# generated using pymatgen
data_Y2SO2
_symmetry_space_group_name_H-M   'P 1'
_cell_length_a   3.87354398
_cell_length_b   3.87354445
_cell_length_c   6.87125587
_cell_angle_alpha   90.00000000
_cell_angle_beta   90.00000000
_cell_angle_gamma   120.00000000
_symmetry_Int_Tables_number   1
_chemical_formula_structural   Y2SO2
_chemical_formula_sum   'Y2 S1 O2'
_cell_volume   89.28608664
_cell_formula_units_Z   1
loop_
 _symmetry_equiv_pos_site_id
 _symmetry_equiv_pos_as_xyz
  1  'x, y, z'
loop_
 _atom_site_type_symbol
 _atom_site_label
 _atom_site_symmetry_multiplicity
 _atom_site_fract_x
 _atom_site_fract_y
 _atom_site_fract_z
 _atom_site_occupancy
  Y  Y0  1  0.66666670  0.33333334  0.70931201  1
  Y  Y1  1  0.33333338  0.66666669  0.29068801  1
  S  S2  1  0.00000000  0.00000000  0.00000000  1
  O  O3  1  0.66666670  0.33333334  0.37449101  1
  O  O4  1  0.33333338  0.66666669  0.62550901  1
