# generated using pymatgen
data_Ti2Fe2CoNi7P4
_symmetry_space_group_name_H-M   'P 1'
_cell_length_a   2.93318796
_cell_length_b   4.89740276
_cell_length_c   14.63330555
_cell_angle_alpha   90.00000000
_cell_angle_beta   90.00000000
_cell_angle_gamma   107.42539215
_symmetry_Int_Tables_number   1
_chemical_formula_structural   Ti2Fe2CoNi7P4
_chemical_formula_sum   'Ti2 Fe2 Co1 Ni7 P4'
_cell_volume   200.56057253
_cell_formula_units_Z   1
loop_
 _symmetry_equiv_pos_site_id
 _symmetry_equiv_pos_as_xyz
  1  'x, y, z'
loop_
 _atom_site_type_symbol
 _atom_site_label
 _atom_site_symmetry_multiplicity
 _atom_site_fract_x
 _atom_site_fract_y
 _atom_site_fract_z
 _atom_site_occupancy
  Ti  Ti0  1  0.42882608  0.85765205  1.00000003  1
  Fe  Fe1  1  0.13510302  0.27020602  0.90785003  1
  Ti  Ti2  1  0.13337402  0.26674802  0.40725601  1
  Co  Co3  1  0.86284907  0.72569804  0.84827403  1
  Fe  Fe4  1  0.86582207  0.73164404  0.34128701  1
  Ni  Ni5  1  0.13510302  0.27020602  0.09215000  1
  Ni  Ni6  1  0.13337402  0.26674802  0.59274402  1
  Ni  Ni7  1  0.86582207  0.73164404  0.65871302  1
  Ni  Ni8  1  0.86284907  0.72569804  0.15172600  1
  Ni  Ni9  1  0.42318308  0.84636605  0.50000002  1
  Ni  Ni10  1  0.57388102  0.14776201  0.75156402  1
  Ni  Ni11  1  0.57388102  0.14776201  0.24843601  1
  P  P12  1  0.74999405  0.49998803  -0.00000000  1
  P  P13  1  0.74521205  0.49042403  0.50000002  1
  P  P14  1  0.25536405  0.51072803  0.75088002  1
  P  P15  1  0.25536405  0.51072803  0.24912001  1
