# generated using pymatgen
data_KCoCuS2
_symmetry_space_group_name_H-M   'P 1'
_cell_length_a   3.83837295
_cell_length_b   3.83837295
_cell_length_c   13.68851566
_cell_angle_alpha   90.00000000
_cell_angle_beta   90.00000000
_cell_angle_gamma   90.00000000
_symmetry_Int_Tables_number   1
_chemical_formula_structural   KCoCuS2
_chemical_formula_sum   'K2 Co2 Cu2 S4'
_cell_volume   201.67436417
_cell_formula_units_Z   2
loop_
 _symmetry_equiv_pos_site_id
 _symmetry_equiv_pos_as_xyz
  1  'x, y, z'
loop_
 _atom_site_type_symbol
 _atom_site_label
 _atom_site_symmetry_multiplicity
 _atom_site_fract_x
 _atom_site_fract_y
 _atom_site_fract_z
 _atom_site_occupancy
  K  K0  1  0.50000001  0.00000000  0.73639002  1
  K  K1  1  0.00000000  0.50000001  0.26361001  1
  Co  Co2  1  0.50000001  0.50000001  0.00000000  1
  Cu  Cu3  1  0.00000000  0.00000000  0.50000001  1
  Co  Co4  1  0.00000000  0.00000000  0.00000000  1
  Cu  Cu5  1  0.50000001  0.50000001  0.50000001  1
  S  S6  1  0.00000000  0.50000001  0.90146202  1
  S  S7  1  0.50000001  0.00000000  0.39786501  1
  S  S8  1  0.50000001  0.00000000  0.09853800  1
  S  S9  1  0.00000000  0.50000001  0.60213501  1
