# generated using pymatgen
data_NaAsO4
_symmetry_space_group_name_H-M   'P 1'
_cell_length_a   4.84868002
_cell_length_b   4.84904194
_cell_length_c   7.19941378
_cell_angle_alpha   90.00000000
_cell_angle_beta   90.00000000
_cell_angle_gamma   96.81199646
_symmetry_Int_Tables_number   1
_chemical_formula_structural   NaAsO4
_chemical_formula_sum   'Na2 As2 O8'
_cell_volume   168.07375773
_cell_formula_units_Z   2
loop_
 _symmetry_equiv_pos_site_id
 _symmetry_equiv_pos_as_xyz
  1  'x, y, z'
loop_
 _atom_site_type_symbol
 _atom_site_label
 _atom_site_symmetry_multiplicity
 _atom_site_fract_x
 _atom_site_fract_y
 _atom_site_fract_z
 _atom_site_occupancy
  Na  Na0  1  0.61774700  0.13556200  0.75000002  1
  Na  Na1  1  0.38225299  0.86443799  0.25000001  1
  As  As2  1  0.87296499  0.35699099  0.25000001  1
  As  As3  1  0.12703499  0.64300899  0.75000002  1
  O  O4  1  0.70111399  0.18601900  0.43409401  1
  O  O5  1  0.70111399  0.18601900  0.06590600  1
  O  O6  1  0.22197699  0.33290499  0.25000001  1
  O  O7  1  0.15654799  0.29502400  0.75000002  1
  O  O8  1  0.84345199  0.70497599  0.25000001  1
  O  O9  1  0.77802299  0.66709499  0.75000002  1
  O  O10  1  0.29888599  0.81398099  0.93409403  1
  O  O11  1  0.29888599  0.81398099  0.56590602  1
