# generated using pymatgen
data_Li2NbFeO6
_symmetry_space_group_name_H-M   'P 1'
_cell_length_a   5.24581671
_cell_length_b   5.24581671
_cell_length_c   5.57863092
_cell_angle_alpha   61.95463562
_cell_angle_beta   61.95463562
_cell_angle_gamma   59.99999237
_symmetry_Int_Tables_number   1
_chemical_formula_structural   Li2NbFeO6
_chemical_formula_sum   'Li2 Nb1 Fe1 O6'
_cell_volume   111.64953319
_cell_formula_units_Z   1
loop_
 _symmetry_equiv_pos_site_id
 _symmetry_equiv_pos_as_xyz
  1  'x, y, z'
loop_
 _atom_site_type_symbol
 _atom_site_label
 _atom_site_symmetry_multiplicity
 _atom_site_fract_x
 _atom_site_fract_y
 _atom_site_fract_z
 _atom_site_occupancy
  Li  Li0  1  0.27647998  0.27647999  0.17056001  1
  Li  Li1  1  0.78741193  0.78741197  0.63776402  1
  Nb  Nb2  1  0.00086100  0.00086100  0.99741700  1
  Fe  Fe3  1  0.49625996  0.49625998  0.51122001  1
  O  O4  1  0.86053094  0.60821598  0.29012202  1
  O  O5  1  0.71574096  0.12663000  0.76889101  1
  O  O6  1  0.12662998  0.38873799  0.76889101  1
  O  O7  1  0.38873795  0.71574098  0.76889102  1
  O  O8  1  0.24113095  0.86053097  0.29012202  1
  O  O9  1  0.60821596  0.24113099  0.29012201  1
