# generated using pymatgen
data_NdGePd2
_symmetry_space_group_name_H-M   'P 1'
_cell_length_a   5.92371178
_cell_length_b   7.09761095
_cell_length_c   7.60544491
_cell_angle_alpha   90.00000000
_cell_angle_beta   90.00000000
_cell_angle_gamma   90.00000000
_symmetry_Int_Tables_number   1
_chemical_formula_structural   NdGePd2
_chemical_formula_sum   'Nd4 Ge4 Pd8'
_cell_volume   319.76485878
_cell_formula_units_Z   4
loop_
 _symmetry_equiv_pos_site_id
 _symmetry_equiv_pos_as_xyz
  1  'x, y, z'
loop_
 _atom_site_type_symbol
 _atom_site_label
 _atom_site_symmetry_multiplicity
 _atom_site_fract_x
 _atom_site_fract_y
 _atom_site_fract_z
 _atom_site_occupancy
  Nd  Nd0  1  0.34656501  0.75000001  0.03205500  1
  Nd  Nd1  1  0.15343501  0.75000001  0.53205501  1
  Nd  Nd2  1  0.65343502  0.25000000  0.96794501  1
  Nd  Nd3  1  0.84656503  0.25000000  0.46794501  1
  Ge  Ge4  1  0.65336202  0.75000001  0.38123800  1
  Ge  Ge5  1  0.84663803  0.75000001  0.88123801  1
  Ge  Ge6  1  0.34663801  0.25000000  0.61876201  1
  Ge  Ge7  1  0.15336201  0.25000000  0.11876200  1
  Pd  Pd8  1  0.91214903  0.55335300  0.17640900  1
  Pd  Pd9  1  0.58785102  0.94664701  0.67640901  1
  Pd  Pd10  1  0.08785100  0.05335300  0.82359101  1
  Pd  Pd11  1  0.41214902  0.44664700  0.32359100  1
  Pd  Pd12  1  0.08785100  0.44664700  0.82359101  1
  Pd  Pd13  1  0.41214902  0.05335300  0.32359100  1
  Pd  Pd14  1  0.91214903  0.94664701  0.17640900  1
  Pd  Pd15  1  0.58785102  0.55335300  0.67640901  1
