# generated using pymatgen
data_Ba2TlAu3
_symmetry_space_group_name_H-M   'P 1'
_cell_length_a   5.46557188
_cell_length_b   6.74149752
_cell_length_c   6.76704168
_cell_angle_alpha   79.02256012
_cell_angle_beta   66.18169403
_cell_angle_gamma   66.08582306
_symmetry_Int_Tables_number   1
_chemical_formula_structural   Ba2TlAu3
_chemical_formula_sum   'Ba2 Tl1 Au3'
_cell_volume   208.41501292
_cell_formula_units_Z   1
loop_
 _symmetry_equiv_pos_site_id
 _symmetry_equiv_pos_as_xyz
  1  'x, y, z'
loop_
 _atom_site_type_symbol
 _atom_site_label
 _atom_site_symmetry_multiplicity
 _atom_site_fract_x
 _atom_site_fract_y
 _atom_site_fract_z
 _atom_site_occupancy
  Ba  Ba0  1  0.46479701  0.78395003  0.28645599  1
  Ba  Ba1  1  0.53520301  0.21605001  0.71354401  1
  Tl  Tl2  1  0.83927702  0.60986302  0.71158300  1
  Au  Au3  1  0.16072300  0.39013701  0.28841700  1
  Au  Au4  1  0.16455801  0.77778803  0.89309600  1
  Au  Au5  1  0.83544202  0.22221201  0.10690400  1
