# generated using pymatgen
data_KPS3
_symmetry_space_group_name_H-M   'P 1'
_cell_length_a   6.69120121
_cell_length_b   7.56796122
_cell_length_c   9.38358212
_cell_angle_alpha   90.00000000
_cell_angle_beta   91.85150146
_cell_angle_gamma   90.00000000
_symmetry_Int_Tables_number   1
_chemical_formula_structural   KPS3
_chemical_formula_sum   'K4 P4 S12'
_cell_volume   474.92480340
_cell_formula_units_Z   4
loop_
 _symmetry_equiv_pos_site_id
 _symmetry_equiv_pos_as_xyz
  1  'x, y, z'
loop_
 _atom_site_type_symbol
 _atom_site_label
 _atom_site_symmetry_multiplicity
 _atom_site_fract_x
 _atom_site_fract_y
 _atom_site_fract_z
 _atom_site_occupancy
  K  K0  1  0.96162697  0.61729898  0.75041497  1
  K  K1  1  0.46162699  0.88270097  0.25041499  1
  K  K2  1  0.53837298  0.11729900  0.74958498  1
  K  K3  1  0.03837300  0.38270099  0.24958500  1
  P  P4  1  0.56405898  0.39529699  0.43499798  1
  P  P5  1  0.06405900  0.10470300  0.93499798  1
  P  P6  1  0.43594099  0.60470298  0.56500198  1
  P  P7  1  0.93594097  0.89529697  0.06500198  1
  S  S8  1  0.60653298  0.50068499  0.23959999  1
  S  S9  1  0.10653300  0.99931497  0.73959999  1
  S  S10  1  0.81882297  0.31321999  0.54071698  1
  S  S11  1  0.31882299  0.18677999  0.04071699  1
  S  S12  1  0.35182699  0.20104399  0.44056799  1
  S  S13  1  0.85182697  0.29895599  0.94056797  1
  S  S14  1  0.39346699  0.49931499  0.76039998  1
  S  S15  1  0.89346697  0.00068500  0.26039998  1
  S  S16  1  0.18117699  0.68677998  0.45928299  1
  S  S17  1  0.68117698  0.81321998  0.95928297  1
  S  S18  1  0.14817300  0.70104398  0.05943200  1
  S  S19  1  0.64817298  0.79895598  0.55943198  1
