# generated using pymatgen
data_Lu3In
_symmetry_space_group_name_H-M   'P 1'
_cell_length_a   5.47671509
_cell_length_b   6.82963800
_cell_length_c   6.82963800
_cell_angle_alpha   120.00000000
_cell_angle_beta   90.00000000
_cell_angle_gamma   90.00000000
_symmetry_Int_Tables_number   1
_chemical_formula_structural   Lu3In
_chemical_formula_sum   'Lu6 In2'
_cell_volume   221.23108555
_cell_formula_units_Z   2
loop_
 _symmetry_equiv_pos_site_id
 _symmetry_equiv_pos_as_xyz
  1  'x, y, z'
loop_
 _atom_site_type_symbol
 _atom_site_label
 _atom_site_symmetry_multiplicity
 _atom_site_fract_x
 _atom_site_fract_y
 _atom_site_fract_z
 _atom_site_occupancy
  Lu  Lu0  1  0.25000000  0.16943600  0.33887200  1
  Lu  Lu1  1  0.25000000  0.66112800  0.83056400  1
  Lu  Lu2  1  0.25000000  0.16943600  0.83056400  1
  Lu  Lu3  1  0.74999999  0.83056400  0.66112800  1
  Lu  Lu4  1  0.74999999  0.33887200  0.16943600  1
  Lu  Lu5  1  0.74999999  0.83056400  0.16943600  1
  In  In6  1  0.74999999  0.33333333  0.66666667  1
  In  In7  1  0.25000000  0.66666667  0.33333333  1
