# generated using pymatgen
data_LaAlCu4
_symmetry_space_group_name_H-M   'P 1'
_cell_length_a   4.28612614
_cell_length_b   5.30802822
_cell_length_c   5.30802774
_cell_angle_alpha   120.00000000
_cell_angle_beta   90.00000000
_cell_angle_gamma   90.00000000
_symmetry_Int_Tables_number   1
_chemical_formula_structural   LaAlCu4
_chemical_formula_sum   'La1 Al1 Cu4'
_cell_volume   104.58321464
_cell_formula_units_Z   1
loop_
 _symmetry_equiv_pos_site_id
 _symmetry_equiv_pos_as_xyz
  1  'x, y, z'
loop_
 _atom_site_type_symbol
 _atom_site_label
 _atom_site_symmetry_multiplicity
 _atom_site_fract_x
 _atom_site_fract_y
 _atom_site_fract_z
 _atom_site_occupancy
  La  La0  1  0.00000000  0.00000000  0.00000000  1
  Al  Al1  1  0.99999997  0.33333332  0.66666669  1
  Cu  Cu2  1  0.49999998  0.99258895  0.49629501  1
  Cu  Cu3  1  0.49999998  0.50370598  0.00741200  1
  Cu  Cu4  1  0.49999998  0.50370598  0.49629501  1
  Cu  Cu5  1  -0.00000000  0.66666664  0.33333334  1
