# generated using pymatgen
data_AcCd
_symmetry_space_group_name_H-M   'P 1'
_cell_length_a   5.66709185
_cell_length_b   7.32535601
_cell_length_c   7.32535553
_cell_angle_alpha   120.00000000
_cell_angle_beta   90.00000000
_cell_angle_gamma   90.00000000
_symmetry_Int_Tables_number   1
_chemical_formula_structural   AcCd
_chemical_formula_sum   'Ac4 Cd4'
_cell_volume   263.35909829
_cell_formula_units_Z   4
loop_
 _symmetry_equiv_pos_site_id
 _symmetry_equiv_pos_as_xyz
  1  'x, y, z'
loop_
 _atom_site_type_symbol
 _atom_site_label
 _atom_site_symmetry_multiplicity
 _atom_site_fract_x
 _atom_site_fract_y
 _atom_site_fract_z
 _atom_site_occupancy
  Ac  Ac0  1  0.75000002  0.66666666  0.33333332  1
  Ac  Ac1  1  0.25000001  0.33333333  0.66666667  1
  Ac  Ac2  1  0.75000002  0.72092399  0.86046199  1
  Ac  Ac3  1  0.25000001  0.86046199  0.13953798  1
  Cd  Cd4  1  0.25000001  0.86046199  0.72092399  1
  Cd  Cd5  1  0.75000002  0.13953800  0.27907600  1
  Cd  Cd6  1  0.75000002  0.13953800  0.86046201  1
  Cd  Cd7  1  0.25000001  0.27907600  0.13953799  1
