# generated using pymatgen
data_Ti3CdBi5O9
_symmetry_space_group_name_H-M   'P 1'
_cell_length_a   5.68273020
_cell_length_b   5.68273020
_cell_length_c   10.52538872
_cell_angle_alpha   90.00000000
_cell_angle_beta   90.00000000
_cell_angle_gamma   120.00000000
_symmetry_Int_Tables_number   1
_chemical_formula_structural   Ti3CdBi5O9
_chemical_formula_sum   'Ti3 Cd1 Bi5 O9'
_cell_volume   294.36274910
_cell_formula_units_Z   1
loop_
 _symmetry_equiv_pos_site_id
 _symmetry_equiv_pos_as_xyz
  1  'x, y, z'
loop_
 _atom_site_type_symbol
 _atom_site_label
 _atom_site_symmetry_multiplicity
 _atom_site_fract_x
 _atom_site_fract_y
 _atom_site_fract_z
 _atom_site_occupancy
  Ti  Ti0  1  0.66614302  0.99137406  0.12880100  1
  Ti  Ti1  1  0.66689598  0.00044100  0.62621502  1
  Ti  Ti2  1  0.66689601  0.66645504  0.37378501  1
  Cd  Cd3  1  0.66614301  0.67476804  0.87119902  1
  Bi  Bi4  1  0.33354500  0.33310402  0.62621502  1
  Bi  Bi5  1  0.32523100  0.33385602  0.12880100  1
  Bi  Bi6  1  0.33354499  0.00044100  0.37378501  1
  Bi  Bi7  1  0.32523103  0.99137406  0.87119902  1
  O  O8  1  0.99955898  0.33310402  0.37378501  1
  Bi  Bi9  1  0.00862502  0.33385602  0.87119902  1
  O  O10  1  0.00862503  0.67476804  0.12880100  1
  O  O11  1  0.99955900  0.66645504  0.62621502  1
  O  O12  1  0.33333335  0.66666671  0.25719901  1
  O  O13  1  0.33333335  0.66666671  0.74280102  1
  O  O14  1  0.33333335  0.66666671  1.00000003  1
  O  O15  1  0.66666666  0.33333335  0.50000001  1
  O  O16  1  0.00000000  0.00000000  0.50000001  1
  O  O17  1  0.00000000  0.00000000  0.00000000  1
