# generated using pymatgen
data_LiMnF3
_symmetry_space_group_name_H-M   'P 1'
_cell_length_a   5.20019007
_cell_length_b   5.48608017
_cell_length_c   7.64033175
_cell_angle_alpha   85.86238861
_cell_angle_beta   89.73654175
_cell_angle_gamma   89.84414673
_symmetry_Int_Tables_number   1
_chemical_formula_structural   LiMnF3
_chemical_formula_sum   'Li4 Mn4 F12'
_cell_volume   217.39739654
_cell_formula_units_Z   4
loop_
 _symmetry_equiv_pos_site_id
 _symmetry_equiv_pos_as_xyz
  1  'x, y, z'
loop_
 _atom_site_type_symbol
 _atom_site_label
 _atom_site_symmetry_multiplicity
 _atom_site_fract_x
 _atom_site_fract_y
 _atom_site_fract_z
 _atom_site_occupancy
  Li  Li0  1  0.99293099  0.50949901  0.22353201  1
  Li  Li1  1  0.50437900  0.98667502  0.77086499  1
  Li  Li2  1  0.00646000  0.52009101  0.77232199  1
  Li  Li3  1  0.49764400  0.98197002  0.22503400  1
  Mn  Mn4  1  0.00156401  0.93804402  0.96405998  1
  Mn  Mn5  1  0.00217501  0.92295002  0.46236098  1
  Mn  Mn6  1  0.49764200  0.42433701  0.96176600  1
  Mn  Mn7  1  0.49953600  0.42065001  0.46421400  1
  F  F8  1  0.87272799  0.90044702  0.69088100  1
  F  F9  1  0.80444299  0.22632801  0.37956101  1
  F  F10  1  0.63924499  0.40421601  0.69903000  1
  F  F11  1  0.36544600  0.39640201  0.22136800  1
  F  F12  1  0.80474299  0.59605702  0.00625001  1
  F  F13  1  0.30970400  0.71520602  0.89514899  1
  F  F14  1  0.69245500  0.71673602  0.37868900  1
  F  F15  1  0.12642800  0.89194902  0.23263799  1
  F  F16  1  0.66473299  0.11355200  0.00851601  1
  F  F17  1  0.32815400  0.09645700  0.52436700  1
  F  F18  1  0.20757200  0.24266401  0.88942400  1
  F  F19  1  0.18201800  0.59097401  0.52757499  1
