# generated using pymatgen
data_Y3CoO6
_symmetry_space_group_name_H-M   'P 1'
_cell_length_a   5.37565708
_cell_length_b   5.73356295
_cell_length_c   7.74435282
_cell_angle_alpha   90.00000000
_cell_angle_beta   90.00000000
_cell_angle_gamma   90.00000000
_symmetry_Int_Tables_number   1
_chemical_formula_structural   Y3CoO6
_chemical_formula_sum   'Y6 Co2 O12'
_cell_volume   238.69387339
_cell_formula_units_Z   2
loop_
 _symmetry_equiv_pos_site_id
 _symmetry_equiv_pos_as_xyz
  1  'x, y, z'
loop_
 _atom_site_type_symbol
 _atom_site_label
 _atom_site_symmetry_multiplicity
 _atom_site_fract_x
 _atom_site_fract_y
 _atom_site_fract_z
 _atom_site_occupancy
  Y  Y0  1  0.00000000  0.50000000  0.50000001  1
  Y  Y1  1  0.49999999  0.00000000  0.50000001  1
  Y  Y2  1  0.00000000  0.50000000  0.00000000  1
  Y  Y3  1  0.49999999  0.00000000  -0.00000000  1
  Y  Y4  1  0.51870799  0.56549101  0.75000002  1
  Y  Y5  1  0.48129199  0.43450900  0.25000001  1
  Co  Co6  1  0.01870800  0.93450901  0.25000001  1
  Co  Co7  1  0.98129199  0.06549100  0.75000002  1
  O  O8  1  0.68199799  0.31398000  0.55992101  1
  O  O9  1  0.31800200  0.68602001  0.44007901  1
  O  O10  1  0.18199800  0.18602000  0.44007901  1
  O  O11  1  0.81800199  0.81398001  0.55992101  1
  O  O12  1  0.31800200  0.68602001  0.05992100  1
  O  O13  1  0.68199799  0.31398000  0.94007902  1
  O  O14  1  0.81800199  0.81398001  0.94007902  1
  O  O15  1  0.18199800  0.18602000  0.05992100  1
  O  O16  1  0.13042700  0.44267900  0.75000002  1
  O  O17  1  0.86957299  0.55732101  0.25000001  1
  O  O18  1  0.63042699  0.05732100  0.25000001  1
  O  O19  1  0.36957299  0.94267901  0.75000002  1
