# generated using pymatgen
data_Y4Zr3O12
_symmetry_space_group_name_H-M   'P 1'
_cell_length_a   6.39378309
_cell_length_b   6.43417645
_cell_length_c   6.60818148
_cell_angle_alpha   99.80219269
_cell_angle_beta   98.45709229
_cell_angle_gamma   99.60750580
_symmetry_Int_Tables_number   1
_chemical_formula_structural   Y4Zr3O12
_chemical_formula_sum   'Y4 Zr3 O12'
_cell_volume   259.78234754
_cell_formula_units_Z   1
loop_
 _symmetry_equiv_pos_site_id
 _symmetry_equiv_pos_as_xyz
  1  'x, y, z'
loop_
 _atom_site_type_symbol
 _atom_site_label
 _atom_site_symmetry_multiplicity
 _atom_site_fract_x
 _atom_site_fract_y
 _atom_site_fract_z
 _atom_site_occupancy
  Y  Y0  1  0.69574792  0.86457001  0.39018893  1
  Y  Y1  1  0.38734694  0.69929601  0.86500797  1
  Y  Y2  1  0.30425198  0.13543000  0.60981100  1
  Y  Y3  1  0.61265297  0.30070400  0.13499196  1
  Zr  Zr4  1  0.00000000  0.00000000  0.00000000  1
  Zr  Zr5  1  0.84956295  0.39661500  0.67138896  1
  Zr  Zr6  1  0.15043695  0.60338501  0.32861097  1
  O  O7  1  0.58672496  0.41807900  0.82082698  1
  O  O8  1  0.82762694  0.56988600  0.42630195  1
  O  O9  1  0.41024493  0.81190101  0.56473495  1
  O  O10  1  0.41327495  0.58192101  0.17917296  1
  O  O11  1  0.17237296  0.43011400  0.57369798  1
  O  O12  1  0.58975497  0.18809900  0.43526498  1
  O  O13  1  0.02532695  0.67843401  0.88461098  1
  O  O14  1  0.92126098  0.08586800  0.69432498  1
  O  O15  1  0.68547092  0.93186301  0.05947992  1
  O  O16  1  0.97467296  0.32156600  0.11538895  1
  O  O17  1  0.07873893  0.91413201  0.30567495  1
  O  O18  1  0.31452899  0.06813700  0.94052001  1
