# generated using pymatgen
data_LiAgO2
_symmetry_space_group_name_H-M   'P 1'
_cell_length_a   4.60964584
_cell_length_b   4.60964584
_cell_length_c   6.10620213
_cell_angle_alpha   112.17619324
_cell_angle_beta   112.17619324
_cell_angle_gamma   90.00000000
_symmetry_Int_Tables_number   1
_chemical_formula_structural   LiAgO2
_chemical_formula_sum   'Li2 Ag2 O4'
_cell_volume   109.71744221
_cell_formula_units_Z   2
loop_
 _symmetry_equiv_pos_site_id
 _symmetry_equiv_pos_as_xyz
  1  'x, y, z'
loop_
 _atom_site_type_symbol
 _atom_site_label
 _atom_site_symmetry_multiplicity
 _atom_site_fract_x
 _atom_site_fract_y
 _atom_site_fract_z
 _atom_site_occupancy
  Li  Li0  1  0.00000000  0.00000000  0.00000000  1
  Li  Li1  1  0.75000002  0.25000001  0.50000001  1
  Ag  Ag2  1  0.50000002  0.50000002  -0.00000000  1
  Ag  Ag3  1  0.25000001  0.75000002  0.50000001  1
  O  O4  1  0.47149601  0.97149603  0.94299202  1
  O  O5  1  0.27850401  0.27850401  0.55700801  1
  O  O6  1  0.72149602  0.72149602  0.44299201  1
  O  O7  1  0.02850400  0.52850402  0.05700800  1
