# generated using pymatgen
data_Nd2Ni2Sn
_symmetry_space_group_name_H-M   'P 1'
_cell_length_a   3.57163405
_cell_length_b   7.94794607
_cell_length_c   7.94794607
_cell_angle_alpha   90.00000000
_cell_angle_beta   90.00000000
_cell_angle_gamma   90.00000000
_symmetry_Int_Tables_number   1
_chemical_formula_structural   Nd2Ni2Sn
_chemical_formula_sum   'Nd4 Ni4 Sn2'
_cell_volume   225.61957588
_cell_formula_units_Z   2
loop_
 _symmetry_equiv_pos_site_id
 _symmetry_equiv_pos_as_xyz
  1  'x, y, z'
loop_
 _atom_site_type_symbol
 _atom_site_label
 _atom_site_symmetry_multiplicity
 _atom_site_fract_x
 _atom_site_fract_y
 _atom_site_fract_z
 _atom_site_occupancy
  Nd  Nd0  1  0.49999999  0.67029699  0.17029700  1
  Nd  Nd1  1  0.49999999  0.17029700  0.32970300  1
  Nd  Nd2  1  0.49999999  0.82970299  0.67029699  1
  Nd  Nd3  1  0.49999999  0.32970300  0.82970299  1
  Ni  Ni4  1  0.99999998  0.37440900  0.12559100  1
  Ni  Ni5  1  0.99999998  0.12559100  0.62559099  1
  Ni  Ni6  1  0.99999998  0.62559099  0.87440899  1
  Ni  Ni7  1  0.99999998  0.87440899  0.37440900  1
  Sn  Sn8  1  0.00000000  0.00000000  0.00000000  1
  Sn  Sn9  1  0.00000000  0.50000000  0.50000000  1
