# generated using pymatgen
data_Li2Ni3Ge
_symmetry_space_group_name_H-M   'P 1'
_cell_length_a   3.97549605
_cell_length_b   3.97549558
_cell_length_c   5.47575808
_cell_angle_alpha   90.00000000
_cell_angle_beta   90.00000000
_cell_angle_gamma   120.00000000
_symmetry_Int_Tables_number   1
_chemical_formula_structural   Li2Ni3Ge
_chemical_formula_sum   'Li2 Ni3 Ge1'
_cell_volume   74.94755773
_cell_formula_units_Z   1
loop_
 _symmetry_equiv_pos_site_id
 _symmetry_equiv_pos_as_xyz
  1  'x, y, z'
loop_
 _atom_site_type_symbol
 _atom_site_label
 _atom_site_symmetry_multiplicity
 _atom_site_fract_x
 _atom_site_fract_y
 _atom_site_fract_z
 _atom_site_occupancy
  Li  Li0  1  0.33333328  0.66666663  0.25000000  1
  Li  Li1  1  0.66666663  0.33333332  0.74999999  1
  Ni  Ni2  1  0.66666663  0.33333332  0.25000000  1
  Ni  Ni3  1  0.33333328  0.66666663  0.74999999  1
  Ni  Ni4  1  0.00000000  0.00000000  0.49999999  1
  Ge  Ge5  1  0.00000000  0.00000000  0.00000000  1
