# generated using pymatgen
data_V2CuSe4
_symmetry_space_group_name_H-M   'P 1'
_cell_length_a   3.64301395
_cell_length_b   6.52292109
_cell_length_c   6.98080635
_cell_angle_alpha   117.27429199
_cell_angle_beta   105.12529755
_cell_angle_gamma   90.00000000
_symmetry_Int_Tables_number   1
_chemical_formula_structural   V2CuSe4
_chemical_formula_sum   'V2 Cu1 Se4'
_cell_volume   140.94623889
_cell_formula_units_Z   1
loop_
 _symmetry_equiv_pos_site_id
 _symmetry_equiv_pos_as_xyz
  1  'x, y, z'
loop_
 _atom_site_type_symbol
 _atom_site_label
 _atom_site_symmetry_multiplicity
 _atom_site_fract_x
 _atom_site_fract_y
 _atom_site_fract_z
 _atom_site_occupancy
  V  V0  1  0.00000000  0.00000000  0.00000000  1
  V  V1  1  0.26104401  0.27881001  0.52208800  1
  Cu  Cu2  1  0.73895602  0.72119002  0.47791200  1
  Se  Se3  1  0.12416901  0.44689901  0.24833799  1
  Se  Se4  1  0.87583102  0.55310101  0.75166201  1
  Se  Se5  1  0.36586401  0.02726800  0.73172801  1
  Se  Se6  1  0.63413602  0.97273202  0.26827199  1
