# generated using pymatgen
data_SrCO2
_symmetry_space_group_name_H-M   'P 1'
_cell_length_a   4.00149393
_cell_length_b   5.43824387
_cell_length_c   12.56605244
_cell_angle_alpha   90.00000000
_cell_angle_beta   90.00000000
_cell_angle_gamma   90.00000000
_symmetry_Int_Tables_number   1
_chemical_formula_structural   SrCO2
_chemical_formula_sum   'Sr4 C4 O8'
_cell_volume   273.45112147
_cell_formula_units_Z   4
loop_
 _symmetry_equiv_pos_site_id
 _symmetry_equiv_pos_as_xyz
  1  'x, y, z'
loop_
 _atom_site_type_symbol
 _atom_site_label
 _atom_site_symmetry_multiplicity
 _atom_site_fract_x
 _atom_site_fract_y
 _atom_site_fract_z
 _atom_site_occupancy
  Sr  Sr0  1  0.25000000  0.38613201  0.63042198  1
  Sr  Sr1  1  0.75000001  0.61386802  0.36957799  1
  Sr  Sr2  1  0.75000001  0.88613202  0.86957797  1
  Sr  Sr3  1  0.25000000  0.11386800  0.13042200  1
  C  C4  1  0.75000001  0.88428902  0.62303298  1
  C  C5  1  0.25000000  0.38428901  0.87696697  1
  C  C6  1  0.75000001  0.61571102  0.12303300  1
  C  C7  1  0.25000000  0.11571100  0.37696699  1
  O  O8  1  0.25000000  0.31668201  0.42334299  1
  O  O9  1  0.25000000  0.18331800  0.92334297  1
  O  O10  1  0.75000001  0.68331802  0.57665698  1
  O  O11  1  0.75000001  0.81668202  0.07665700  1
  O  O12  1  0.25000000  0.91802502  0.32753299  1
  O  O13  1  0.75000001  0.08197500  0.67246698  1
  O  O14  1  0.75000001  0.41802501  0.17246699  1
  O  O15  1  0.25000000  0.58197501  0.82753297  1
