# generated using pymatgen
data_HoSi
_symmetry_space_group_name_H-M   'P 1'
_cell_length_a   3.83474493
_cell_length_b   4.28546190
_cell_length_c   5.68876839
_cell_angle_alpha   67.87305450
_cell_angle_beta   90.00000000
_cell_angle_gamma   90.00000000
_symmetry_Int_Tables_number   1
_chemical_formula_structural   HoSi
_chemical_formula_sum   'Ho2 Si2'
_cell_volume   86.60206072
_cell_formula_units_Z   2
loop_
 _symmetry_equiv_pos_site_id
 _symmetry_equiv_pos_as_xyz
  1  'x, y, z'
loop_
 _atom_site_type_symbol
 _atom_site_label
 _atom_site_symmetry_multiplicity
 _atom_site_fract_x
 _atom_site_fract_y
 _atom_site_fract_z
 _atom_site_occupancy
  Ho  Ho0  1  0.75000001  0.14013801  0.71972402  1
  Ho  Ho1  1  0.25000000  0.85986204  0.28027597  1
  Si  Si2  1  0.75000001  0.42373402  0.15253198  1
  Si  Si3  1  0.25000000  0.57626603  0.84746800  1
