# generated using pymatgen
data_CeCo5
_symmetry_space_group_name_H-M   'P 1'
_cell_length_a   3.87447810
_cell_length_b   5.02716064
_cell_length_c   5.02755117
_cell_angle_alpha   119.99555969
_cell_angle_beta   90.00000000
_cell_angle_gamma   90.00000000
_symmetry_Int_Tables_number   1
_chemical_formula_structural   CeCo5
_chemical_formula_sum   'Ce1 Co5'
_cell_volume   84.80911588
_cell_formula_units_Z   1
loop_
 _symmetry_equiv_pos_site_id
 _symmetry_equiv_pos_as_xyz
  1  'x, y, z'
loop_
 _atom_site_type_symbol
 _atom_site_label
 _atom_site_symmetry_multiplicity
 _atom_site_fract_x
 _atom_site_fract_y
 _atom_site_fract_z
 _atom_site_occupancy
  Ce  Ce0  1  -0.00000000  0.99992397  0.99993091  1
  Co  Co1  1  -0.00000000  0.33341199  0.66660496  1
  Co  Co2  1  -0.00000000  0.66658831  0.33333328  1
  Co  Co3  1  0.49999999  0.99490897  0.49744492  1
  Co  Co4  1  0.49999999  0.50250398  0.49754195  1
  Co  Co5  1  0.49999999  0.50264098  0.00522197  1
