# generated using pymatgen
data_SrTe2WOF13
_symmetry_space_group_name_H-M   'P 1'
_cell_length_a   4.84269190
_cell_length_b   7.58165932
_cell_length_c   7.88374424
_cell_angle_alpha   106.18502045
_cell_angle_beta   102.14537048
_cell_angle_gamma   90.46266174
_symmetry_Int_Tables_number   1
_chemical_formula_structural   SrTe2WOF13
_chemical_formula_sum   'Sr1 Te2 W1 O1 F13'
_cell_volume   271.07533738
_cell_formula_units_Z   1
loop_
 _symmetry_equiv_pos_site_id
 _symmetry_equiv_pos_as_xyz
  1  'x, y, z'
loop_
 _atom_site_type_symbol
 _atom_site_label
 _atom_site_symmetry_multiplicity
 _atom_site_fract_x
 _atom_site_fract_y
 _atom_site_fract_z
 _atom_site_occupancy
  Sr  Sr0  1  0.35439800  0.18527500  0.28416298  1
  W  W1  1  0.64560199  0.81472498  0.71583695  1
  Te  Te2  1  0.83370300  0.64415598  0.19467996  1
  Te  Te3  1  0.16629699  0.35584399  0.80531997  1
  O  O4  1  0.72217500  0.43263099  0.91190595  1
  F  F5  1  0.27782499  0.56736899  0.08809398  1
  F  F6  1  0.05980200  0.05439600  0.33691499  1
  F  F7  1  0.94019799  0.94560398  0.66308494  1
  F  F8  1  0.49083499  0.95452998  0.17664296  1
  F  F9  1  0.50916501  0.04547000  0.82335697  1
  F  F10  1  0.58235500  0.20246499  0.51998197  1
  F  F11  1  0.41764499  0.79753498  0.48001796  1
  F  F12  1  0.64905600  0.31834699  0.23064797  1
  F  F13  1  0.35094399  0.68165298  0.76935196  1
  F  F14  1  0.20563199  0.41350999  0.39277198  1
  F  F15  1  0.79436800  0.58648999  0.60722795  1
  F  F16  1  0.12437200  0.18640000  0.05194399  1
  F  F17  1  0.87562799  0.81359998  0.94805594  1
