# generated using pymatgen
data_Sr9Co6GeO2
_symmetry_space_group_name_H-M   'P 1'
_cell_length_a   7.73174000
_cell_length_b   7.73174000
_cell_length_c   9.05875683
_cell_angle_alpha   115.26180267
_cell_angle_beta   115.26180267
_cell_angle_gamma   90.00000000
_symmetry_Int_Tables_number   1
_chemical_formula_structural   Sr9Co6GeO2
_chemical_formula_sum   'Sr9 Co6 Ge1 O2'
_cell_volume   431.78721029
_cell_formula_units_Z   1
loop_
 _symmetry_equiv_pos_site_id
 _symmetry_equiv_pos_as_xyz
  1  'x, y, z'
loop_
 _atom_site_type_symbol
 _atom_site_label
 _atom_site_symmetry_multiplicity
 _atom_site_fract_x
 _atom_site_fract_y
 _atom_site_fract_z
 _atom_site_occupancy
  Sr  Sr0  1  0.50000000  0.50000000  -0.00000000  1
  Sr  Sr1  1  0.00000000  0.00000000  0.00000000  1
  Sr  Sr2  1  0.52310500  0.67941400  0.70251896  1
  Sr  Sr3  1  0.17941400  0.02310500  0.70251897  1
  Sr  Sr4  1  0.02310500  0.52310500  0.70251896  1
  Sr  Sr5  1  0.67941400  0.17941400  0.70251896  1
  Sr  Sr6  1  0.47689500  0.32058600  0.29748098  1
  Sr  Sr7  1  0.82058600  0.97689500  0.29748098  1
  Sr  Sr8  1  0.97689500  0.47689500  0.29748098  1
  Co  Co9  1  0.32058600  0.82058600  0.29748098  1
  Co  Co10  1  0.25000000  0.25000000  0.49999997  1
  Co  Co11  1  0.75000000  0.75000000  0.49999997  1
  Co  Co12  1  0.89017700  0.60982400  0.00000100  1
  Ge  Ge13  1  0.10982300  0.39017600  0.99999895  1
  Co  Co14  1  0.39017700  0.89017700  0.99999995  1
  Co  Co15  1  0.60982300  0.10982300  0.99999995  1
  O  O16  1  0.25000000  0.75000000  0.49999997  1
  O  O17  1  0.75000000  0.25000000  0.49999997  1
