# generated using pymatgen
data_Ca2CuO2
_symmetry_space_group_name_H-M   'P 1'
_cell_length_a   2.94413209
_cell_length_b   4.52252817
_cell_length_c   5.70862722
_cell_angle_alpha   113.33543396
_cell_angle_beta   104.94352722
_cell_angle_gamma   90.00000000
_symmetry_Int_Tables_number   1
_chemical_formula_structural   Ca2CuO2
_chemical_formula_sum   'Ca2 Cu1 O2'
_cell_volume   66.98362110
_cell_formula_units_Z   1
loop_
 _symmetry_equiv_pos_site_id
 _symmetry_equiv_pos_as_xyz
  1  'x, y, z'
loop_
 _atom_site_type_symbol
 _atom_site_label
 _atom_site_symmetry_multiplicity
 _atom_site_fract_x
 _atom_site_fract_y
 _atom_site_fract_z
 _atom_site_occupancy
  Ca  Ca0  1  0.00000000  0.00000000  0.00000000  1
  Ca  Ca1  1  0.35079198  0.35079199  0.70158402  1
  Cu  Cu2  1  0.64920796  0.64920797  0.29841600  1
  O  O3  1  0.63005297  0.13005299  0.26010600  1
  O  O4  1  0.36994697  0.86994696  0.73989401  1
