# generated using pymatgen
data_LiNiF2
_symmetry_space_group_name_H-M   'P 1'
_cell_length_a   2.95995808
_cell_length_b   2.95995808
_cell_length_c   12.57712364
_cell_angle_alpha   90.00000000
_cell_angle_beta   90.00000000
_cell_angle_gamma   90.00000000
_symmetry_Int_Tables_number   1
_chemical_formula_structural   LiNiF2
_chemical_formula_sum   'Li3 Ni3 F6'
_cell_volume   110.19260504
_cell_formula_units_Z   3
loop_
 _symmetry_equiv_pos_site_id
 _symmetry_equiv_pos_as_xyz
  1  'x, y, z'
loop_
 _atom_site_type_symbol
 _atom_site_label
 _atom_site_symmetry_multiplicity
 _atom_site_fract_x
 _atom_site_fract_y
 _atom_site_fract_z
 _atom_site_occupancy
  Li  Li0  1  -0.00000000  0.49999999  0.41629901  1
  Li  Li1  1  0.49999999  0.00000000  0.58370102  1
  Li  Li2  1  -0.00000000  0.49999999  0.74969702  1
  Ni  Ni3  1  0.49999999  0.00000000  0.91535403  1
  Ni  Ni4  1  -0.00000000  0.49999999  0.08464600  1
  Ni  Ni5  1  0.49999999  0.00000000  0.25030301  1
  F  F6  1  0.49999999  0.00000000  0.74715902  1
  F  F7  1  -0.00000000  0.49999999  0.91605703  1
  F  F8  1  0.49999999  0.00000000  0.08394300  1
  F  F9  1  -0.00000000  0.49999999  0.25284101  1
  F  F10  1  0.49999999  0.00000000  0.42188501  1
  F  F11  1  -0.00000000  0.49999999  0.57811502  1
