# generated using pymatgen
data_TlHgPb(BrCl2)3
_symmetry_space_group_name_H-M   'P 1'
_cell_length_a   7.66820097
_cell_length_b   8.03914261
_cell_length_c   8.08847046
_cell_angle_alpha   93.24143219
_cell_angle_beta   92.41912842
_cell_angle_gamma   102.05418396
_symmetry_Int_Tables_number   1
_chemical_formula_structural   TlHgPb(BrCl2)3
_chemical_formula_sum   'Tl1 Hg1 Pb1 Br3 Cl6'
_cell_volume   486.09986012
_cell_formula_units_Z   1
loop_
 _symmetry_equiv_pos_site_id
 _symmetry_equiv_pos_as_xyz
  1  'x, y, z'
loop_
 _atom_site_type_symbol
 _atom_site_label
 _atom_site_symmetry_multiplicity
 _atom_site_fract_x
 _atom_site_fract_y
 _atom_site_fract_z
 _atom_site_occupancy
  Tl  Tl0  1  0.00000003  0.50000001  0.50000001  1
  Hg  Hg1  1  0.31541801  0.23477100  0.15962300  1
  Br  Br2  1  0.00000000  0.00000000  0.00000000  1
  Pb  Pb3  1  0.68458204  0.76522901  0.84037701  1
  Br  Br4  1  0.50756801  0.24550400  0.91038900  1
  Br  Br5  1  0.49243204  0.75449601  0.08961101  1
  Cl  Cl6  1  0.86177504  0.75292701  0.53058801  1
  Cl  Cl7  1  0.90936603  0.47187501  0.21286400  1
  Cl  Cl8  1  0.13822501  0.24707300  0.46941200  1
  Cl  Cl9  1  0.27683004  0.68522001  0.44257301  1
  Cl  Cl10  1  0.72317002  0.31478000  0.55742700  1
  Cl  Cl11  1  0.09063403  0.52812501  0.78713601  1
