# generated using pymatgen
data_KTi2Fe3O7
_symmetry_space_group_name_H-M   'P 1'
_cell_length_a   6.33329582
_cell_length_b   6.45364189
_cell_length_c   6.33329582
_cell_angle_alpha   60.61496735
_cell_angle_beta   90.00000000
_cell_angle_gamma   119.38503265
_symmetry_Int_Tables_number   1
_chemical_formula_structural   KTi2Fe3O7
_chemical_formula_sum   'K1 Ti2 Fe3 O7'
_cell_volume   186.39224175
_cell_formula_units_Z   1
loop_
 _symmetry_equiv_pos_site_id
 _symmetry_equiv_pos_as_xyz
  1  'x, y, z'
loop_
 _atom_site_type_symbol
 _atom_site_label
 _atom_site_symmetry_multiplicity
 _atom_site_fract_x
 _atom_site_fract_y
 _atom_site_fract_z
 _atom_site_occupancy
  K  K0  1  0.25000002  0.50000000  0.25000000  1
  Ti  Ti1  1  0.00000000  0.00000000  0.00000000  1
  Ti  Ti2  1  0.13900402  0.75904799  0.59093000  1
  Fe  Fe3  1  0.62004403  0.75904699  0.65002200  1
  Fe  Fe4  1  0.65002202  0.24095200  0.13900400  1
  Fe  Fe5  1  0.59093102  0.24095300  0.62004301  1
  O  O6  1  0.82493302  0.04586500  0.27411401  1
  O  O7  1  0.22093201  0.04586500  0.68002102  1
  O  O8  1  0.68002104  0.95413499  0.82493300  1
  O  O9  1  0.27411403  0.95413499  0.22093199  1
  O  O10  1  0.75601703  0.51203400  0.24398300  1
  O  O11  1  0.24398302  0.48796600  0.75601701  1
  O  O12  1  0.75000003  0.50000000  0.75000001  1
