# generated using pymatgen
data_Ce3Sn3Ge2
_symmetry_space_group_name_H-M   'P 1'
_cell_length_a   7.82595587
_cell_length_b   8.55256462
_cell_length_c   7.82595587
_cell_angle_alpha   117.22725677
_cell_angle_beta   90.00000000
_cell_angle_gamma   117.22725677
_symmetry_Int_Tables_number   1
_chemical_formula_structural   Ce3Sn3Ge2
_chemical_formula_sum   'Ce6 Sn6 Ge4'
_cell_volume   399.38307050
_cell_formula_units_Z   2
loop_
 _symmetry_equiv_pos_site_id
 _symmetry_equiv_pos_as_xyz
  1  'x, y, z'
loop_
 _atom_site_type_symbol
 _atom_site_label
 _atom_site_symmetry_multiplicity
 _atom_site_fract_x
 _atom_site_fract_y
 _atom_site_fract_z
 _atom_site_occupancy
  Ce  Ce0  1  0.00000000  0.00000000  0.00000000  1
  Ce  Ce1  1  0.50000001  0.00000000  0.50000001  1
  Ce  Ce2  1  0.16642699  0.69017301  0.02374599  1
  Ce  Ce3  1  0.83357301  0.30982700  0.97625401  1
  Ce  Ce4  1  0.52374600  0.69017301  0.66642700  1
  Ce  Ce5  1  0.66642700  0.69017301  0.16642699  1
  Sn  Sn6  1  0.97625401  0.30982700  0.47625400  1
  Sn  Sn7  1  0.47625400  0.30982700  0.33357300  1
  Sn  Sn8  1  0.33357300  0.30982700  0.83357301  1
  Sn  Sn9  1  0.02374599  0.69017301  0.52374600  1
  Ge  Ge10  1  0.87888601  0.00000100  0.62111501  1
  Ge  Ge11  1  0.12111398  0.99999901  0.37888499  1
  Ge  Ge12  1  0.37888601  0.00000000  0.87888601  1
  Ge  Ge13  1  0.62111401  0.00000000  0.12111400  1
  Sn  Sn14  1  0.75000000  0.50000000  0.75000000  1
  Sn  Sn15  1  0.24999999  0.50000000  0.24999999  1
