# generated using pymatgen
data_NdGe3
_symmetry_space_group_name_H-M   'P 1'
_cell_length_a   4.02692509
_cell_length_b   4.16333818
_cell_length_c   9.10917950
_cell_angle_alpha   76.78979492
_cell_angle_beta   90.00000000
_cell_angle_gamma   90.00000000
_symmetry_Int_Tables_number   1
_chemical_formula_structural   NdGe3
_chemical_formula_sum   'Nd2 Ge6'
_cell_volume   148.67827174
_cell_formula_units_Z   2
loop_
 _symmetry_equiv_pos_site_id
 _symmetry_equiv_pos_as_xyz
  1  'x, y, z'
loop_
 _atom_site_type_symbol
 _atom_site_label
 _atom_site_symmetry_multiplicity
 _atom_site_fract_x
 _atom_site_fract_y
 _atom_site_fract_z
 _atom_site_occupancy
  Nd  Nd0  1  0.74999998  0.10252799  0.79494398  1
  Nd  Nd1  1  0.24999999  0.89747195  0.20505602  1
  Ge  Ge2  1  0.24999999  0.24917999  0.50163999  1
  Ge  Ge3  1  0.74999998  0.75081996  0.49836000  1
  Ge  Ge4  1  0.74999998  0.32013598  0.35972800  1
  Ge  Ge5  1  0.24999999  0.67986396  0.64027200  1
  Ge  Ge6  1  0.24999999  0.53624497  0.92750999  1
  Ge  Ge7  1  0.74999998  0.46375497  0.07249001  1
