# generated using pymatgen
data_Sr(InCu)6
_symmetry_space_group_name_H-M   'P 1'
_cell_length_a   5.59417200
_cell_length_b   7.13018608
_cell_length_c   7.13018608
_cell_angle_alpha   81.53115845
_cell_angle_beta   66.90306091
_cell_angle_gamma   66.90306091
_symmetry_Int_Tables_number   1
_chemical_formula_structural   Sr(InCu)6
_chemical_formula_sum   'Sr1 In6 Cu6'
_cell_volume   240.63076876
_cell_formula_units_Z   1
loop_
 _symmetry_equiv_pos_site_id
 _symmetry_equiv_pos_as_xyz
  1  'x, y, z'
loop_
 _atom_site_type_symbol
 _atom_site_label
 _atom_site_symmetry_multiplicity
 _atom_site_fract_x
 _atom_site_fract_y
 _atom_site_fract_z
 _atom_site_occupancy
  Sr  Sr0  1  0.00000000  0.00000000  0.00000000  1
  In  In1  1  0.66072998  0.33927001  0.33926999  1
  In  In2  1  0.33926995  0.66073001  0.66073002  1
  In  In3  1  -0.00000005  0.65564501  0.34435503  1
  In  In4  1  0.99999999  0.34435501  0.65564498  1
  In  In5  1  0.49999999  0.18784200  0.81215799  1
  In  In6  1  0.49999994  0.81215801  0.18784202  1
  Cu  Cu7  1  0.49999997  0.50000001  0.00000001  1
  Cu  Cu8  1  0.99999998  0.50000001  -0.00000001  1
  Cu  Cu9  1  0.50000001  0.00000000  0.49999998  1
  Cu  Cu10  1  1.00000002  0.00000000  0.49999997  1
  Cu  Cu11  1  0.73707395  0.76292601  0.76292601  1
  Cu  Cu12  1  0.26292599  0.23707400  0.23707400  1
