# generated using pymatgen
data_Sr(GeRu)2
_symmetry_space_group_name_H-M   'P 1'
_cell_length_a   4.43636179
_cell_length_b   4.43636179
_cell_length_c   6.13468361
_cell_angle_alpha   111.19728088
_cell_angle_beta   111.19728088
_cell_angle_gamma   90.00000000
_symmetry_Int_Tables_number   1
_chemical_formula_structural   Sr(GeRu)2
_chemical_formula_sum   'Sr1 Ge2 Ru2'
_cell_volume   103.75929626
_cell_formula_units_Z   1
loop_
 _symmetry_equiv_pos_site_id
 _symmetry_equiv_pos_as_xyz
  1  'x, y, z'
loop_
 _atom_site_type_symbol
 _atom_site_label
 _atom_site_symmetry_multiplicity
 _atom_site_fract_x
 _atom_site_fract_y
 _atom_site_fract_z
 _atom_site_occupancy
  Sr  Sr0  1  0.00000000  0.00000000  0.00000000  1
  Ge  Ge1  1  0.24999999  0.75000003  0.49999998  1
  Ge  Ge2  1  0.75000002  0.25000001  0.49999998  1
  Ru  Ru3  1  0.36402701  0.36402701  0.72805398  1
  Ru  Ru4  1  0.63597301  0.63597302  0.27194597  1
