# generated using pymatgen
data_TcO2
_symmetry_space_group_name_H-M   'P 1'
_cell_length_a   2.90798593
_cell_length_b   4.48424721
_cell_length_c   4.48424721
_cell_angle_alpha   90.00000000
_cell_angle_beta   90.00000000
_cell_angle_gamma   90.00000000
_symmetry_Int_Tables_number   1
_chemical_formula_structural   TcO2
_chemical_formula_sum   'Tc2 O4'
_cell_volume   58.47515653
_cell_formula_units_Z   2
loop_
 _symmetry_equiv_pos_site_id
 _symmetry_equiv_pos_as_xyz
  1  'x, y, z'
loop_
 _atom_site_type_symbol
 _atom_site_label
 _atom_site_symmetry_multiplicity
 _atom_site_fract_x
 _atom_site_fract_y
 _atom_site_fract_z
 _atom_site_occupancy
  Tc  Tc0  1  0.50000001  0.49999998  0.49999998  1
  Tc  Tc1  1  0.00000000  0.00000000  0.00000000  1
  O  O2  1  0.00000000  0.69295597  0.69295597  1
  O  O3  1  0.50000001  0.19295599  0.80704396  1
  O  O4  1  0.00000000  0.30704399  0.30704399  1
  O  O5  1  0.50000001  0.80704396  0.19295599  1
