# generated using pymatgen
data_La
_symmetry_space_group_name_H-M   'P 1'
_cell_length_a   3.64738655
_cell_length_b   3.64738655
_cell_length_c   9.21347141
_cell_angle_alpha   78.58361053
_cell_angle_beta   78.58361053
_cell_angle_gamma   59.99998856
_symmetry_Int_Tables_number   1
_chemical_formula_structural   La
_chemical_formula_sum   La3
_cell_volume   103.33961689
_cell_formula_units_Z   3
loop_
 _symmetry_equiv_pos_site_id
 _symmetry_equiv_pos_as_xyz
  1  'x, y, z'
loop_
 _atom_site_type_symbol
 _atom_site_label
 _atom_site_symmetry_multiplicity
 _atom_site_fract_x
 _atom_site_fract_y
 _atom_site_fract_z
 _atom_site_occupancy
  La  La0  1  0.77563803  0.77563802  0.67308597  1
  La  La1  1  0.22436201  0.22436201  0.32691399  1
  La  La2  1  0.00000000  0.00000000  0.00000000  1
