# generated using pymatgen
data_TmAl7Fe5
_symmetry_space_group_name_H-M   'P 1'
_cell_length_a   5.01571608
_cell_length_b   6.60136986
_cell_length_c   6.60136986
_cell_angle_alpha   81.86180878
_cell_angle_beta   67.67253113
_cell_angle_gamma   67.67253113
_symmetry_Int_Tables_number   1
_chemical_formula_structural   TmAl7Fe5
_chemical_formula_sum   'Tm1 Al7 Fe5'
_cell_volume   187.02871120
_cell_formula_units_Z   1
loop_
 _symmetry_equiv_pos_site_id
 _symmetry_equiv_pos_as_xyz
  1  'x, y, z'
loop_
 _atom_site_type_symbol
 _atom_site_label
 _atom_site_symmetry_multiplicity
 _atom_site_fract_x
 _atom_site_fract_y
 _atom_site_fract_z
 _atom_site_occupancy
  Tm  Tm0  1  0.00452896  0.99547099  0.99547094  1
  Al  Al1  1  0.65976199  0.34023800  0.34023796  1
  Al  Al2  1  0.33874597  0.66125400  0.66125395  1
  Al  Al3  1  0.99188599  0.35091300  0.66531394  1
  Al  Al4  1  0.99188597  0.66531500  0.35091294  1
  Al  Al5  1  0.27525099  0.22474900  0.22474898  1
  Al  Al6  1  0.50459997  0.78387900  0.20692095  1
  Al  Al7  1  0.50459999  0.20692100  0.78387896  1
  Fe  Fe8  1  0.49682300  0.00184200  0.50080797  1
  Fe  Fe9  1  0.00052700  0.00184200  0.50080799  1
  Fe  Fe10  1  0.49682298  0.50080800  0.00184197  1
  Fe  Fe11  1  0.00052698  0.50080800  0.00184198  1
  Fe  Fe12  1  0.73403797  0.76596200  0.76596193  1
