# generated using pymatgen
data_ZrNi5
_symmetry_space_group_name_H-M   'P 1'
_cell_length_a   4.77708006
_cell_length_b   4.77708054
_cell_length_c   11.69867706
_cell_angle_alpha   90.00000000
_cell_angle_beta   90.00000000
_cell_angle_gamma   120.00000000
_symmetry_Int_Tables_number   1
_chemical_formula_structural   ZrNi5
_chemical_formula_sum   'Zr3 Ni15'
_cell_volume   231.20246871
_cell_formula_units_Z   3
loop_
 _symmetry_equiv_pos_site_id
 _symmetry_equiv_pos_as_xyz
  1  'x, y, z'
loop_
 _atom_site_type_symbol
 _atom_site_label
 _atom_site_symmetry_multiplicity
 _atom_site_fract_x
 _atom_site_fract_y
 _atom_site_fract_z
 _atom_site_occupancy
  Zr  Zr0  1  0.00000000  0.00000000  0.00015500  1
  Zr  Zr1  1  0.33333336  0.66666665  0.66509100  1
  Zr  Zr2  1  0.66666667  0.33333333  0.33441900  1
  Ni  Ni3  1  0.16940401  0.33880799  0.21132000  1
  Ni  Ni4  1  0.50075499  0.00151000  0.87106900  1
  Ni  Ni5  1  0.83487602  0.66975198  0.54129000  1
  Ni  Ni6  1  0.16940403  0.83059598  0.21132000  1
  Ni  Ni7  1  0.50075502  0.49924499  0.87106900  1
  Ni  Ni8  1  0.83487600  0.16512400  0.54129000  1
  Ni  Ni9  1  0.33333336  0.66666665  0.04359000  1
  Ni  Ni10  1  0.66666667  0.33333333  0.70809100  1
  Ni  Ni11  1  0.00000000  0.00000000  0.37715600  1
  Ni  Ni12  1  0.66119203  0.83059598  0.21132000  1
  Ni  Ni13  1  0.99849001  0.49924499  0.87106900  1
  Ni  Ni14  1  0.33024800  0.16512400  0.54129000  1
  Ni  Ni15  1  0.00000000  0.00000000  0.74469500  1
  Ni  Ni16  1  0.33333336  0.66666665  0.41691300  1
  Ni  Ni17  1  0.66666667  0.33333333  0.08885300  1
