# generated using pymatgen
data_ZrGa
_symmetry_space_group_name_H-M   'P 1'
_cell_length_a   5.29151392
_cell_length_b   5.43377829
_cell_length_c   5.43377829
_cell_angle_alpha   76.28569794
_cell_angle_beta   60.86236191
_cell_angle_gamma   60.86236191
_symmetry_Int_Tables_number   1
_chemical_formula_structural   ZrGa
_chemical_formula_sum   'Zr3 Ga3'
_cell_volume   119.19620036
_cell_formula_units_Z   3
loop_
 _symmetry_equiv_pos_site_id
 _symmetry_equiv_pos_as_xyz
  1  'x, y, z'
loop_
 _atom_site_type_symbol
 _atom_site_label
 _atom_site_symmetry_multiplicity
 _atom_site_fract_x
 _atom_site_fract_y
 _atom_site_fract_z
 _atom_site_occupancy
  Zr  Zr0  1  0.34631203  0.80737597  0.49999998  1
  Zr  Zr1  1  0.15368802  0.49999998  0.19262399  1
  Zr  Zr2  1  0.84631202  0.49999998  0.80737599  1
  Ga  Ga3  1  0.65368801  0.19262399  0.50000000  1
  Ga  Ga4  1  0.75000003  0.99999997  0.99999997  1
  Ga  Ga5  1  0.25000003  0.99999997  0.99999996  1
