# generated using pymatgen
data_LiFeCo3CuSe8
_symmetry_space_group_name_H-M   'P 1'
_cell_length_a   7.05026817
_cell_length_b   7.05026817
_cell_length_c   7.05026770
_cell_angle_alpha   60.04553986
_cell_angle_beta   60.04553986
_cell_angle_gamma   60.04553604
_symmetry_Int_Tables_number   1
_chemical_formula_structural   LiFeCo3CuSe8
_chemical_formula_sum   'Li1 Fe1 Co3 Cu1 Se8'
_cell_volume   248.05610513
_cell_formula_units_Z   1
loop_
 _symmetry_equiv_pos_site_id
 _symmetry_equiv_pos_as_xyz
  1  'x, y, z'
loop_
 _atom_site_type_symbol
 _atom_site_label
 _atom_site_symmetry_multiplicity
 _atom_site_fract_x
 _atom_site_fract_y
 _atom_site_fract_z
 _atom_site_occupancy
  Li  Li0  1  0.99504500  0.99504498  0.99504498  1
  Fe  Fe1  1  0.37485400  0.37485399  0.37485399  1
  Co  Co2  1  0.99641199  0.51137399  0.99641198  1
  Co  Co3  1  0.99641200  0.99641198  0.51137399  1
  Co  Co4  1  0.51137401  0.99641198  0.99641198  1
  Cu  Cu5  1  0.62508600  0.62508599  0.62508599  1
  Se  Se6  1  0.24191101  0.77472999  0.24191099  1
  Se  Se7  1  0.24191100  0.24191100  0.77472998  1
  Se  Se8  1  0.77472999  0.24191100  0.24191100  1
  Se  Se9  1  0.24212500  0.24212500  0.24212499  1
  Se  Se10  1  0.75775499  0.22596700  0.75775498  1
  Se  Se11  1  0.75775500  0.75775499  0.22596700  1
  Se  Se12  1  0.22596701  0.75775499  0.75775498  1
  Se  Se13  1  0.75866300  0.75866299  0.75866298  1
