# generated using pymatgen
data_Ti3Mo
_symmetry_space_group_name_H-M   'P 1'
_cell_length_a   2.74485064
_cell_length_b   2.74485064
_cell_length_c   8.97968292
_cell_angle_alpha   90.00000000
_cell_angle_beta   90.00000000
_cell_angle_gamma   109.77619934
_symmetry_Int_Tables_number   1
_chemical_formula_structural   Ti3Mo
_chemical_formula_sum   'Ti3 Mo1'
_cell_volume   63.66458830
_cell_formula_units_Z   1
loop_
 _symmetry_equiv_pos_site_id
 _symmetry_equiv_pos_as_xyz
  1  'x, y, z'
loop_
 _atom_site_type_symbol
 _atom_site_label
 _atom_site_symmetry_multiplicity
 _atom_site_fract_x
 _atom_site_fract_y
 _atom_site_fract_z
 _atom_site_occupancy
  Ti  Ti0  1  0.00000000  0.00000000  0.00000000  1
  Ti  Ti1  1  0.50000002  0.50000002  0.24928000  1
  Ti  Ti2  1  0.00000000  0.00000000  0.50000000  1
  Mo  Mo3  1  0.50000002  0.50000002  0.75072001  1
