# generated using pymatgen
data_Cs2K3IBr(OF4)2
_symmetry_space_group_name_H-M   'P 1'
_cell_length_a   7.45500517
_cell_length_b   8.91685963
_cell_length_c   9.68192577
_cell_angle_alpha   96.45914459
_cell_angle_beta   91.91675568
_cell_angle_gamma   105.53006744
_symmetry_Int_Tables_number   1
_chemical_formula_structural   Cs2K3IBr(OF4)2
_chemical_formula_sum   'Cs2 K3 I1 Br1 O2 F8'
_cell_volume   614.81420079
_cell_formula_units_Z   1
loop_
 _symmetry_equiv_pos_site_id
 _symmetry_equiv_pos_as_xyz
  1  'x, y, z'
loop_
 _atom_site_type_symbol
 _atom_site_label
 _atom_site_symmetry_multiplicity
 _atom_site_fract_x
 _atom_site_fract_y
 _atom_site_fract_z
 _atom_site_occupancy
  K  K0  1  0.51447599  0.36278101  0.63372899  1
  K  K1  1  0.48552399  0.63721902  0.36627101  1
  I  I2  1  0.08493900  0.81435202  0.00113102  1
  K  K3  1  0.91506098  0.18564800  0.99886898  1
  Cs  Cs4  1  0.81426498  0.89351502  0.85018200  1
  Cs  Cs5  1  0.18573500  0.10648500  0.14981800  1
  Br  Br6  1  0.53798999  0.16633400  0.82268599  1
  F  F7  1  0.39718799  0.52738301  0.82117600  1
  F  F8  1  0.85122798  0.53151501  0.72233199  1
  F  F9  1  0.19099299  0.19544101  0.57035200  1
  O  O10  1  0.33843599  0.79360602  0.53345401  1
  F  F11  1  0.66156398  0.20639401  0.46654599  1
  F  F12  1  0.80900698  0.80455902  0.42964800  1
  F  F13  1  0.14877199  0.46848501  0.27766801  1
  F  F14  1  0.60281198  0.47261701  0.17882400  1
  F  F15  1  0.46200999  0.83366602  0.17731401  1
  O  O16  1  0.49999999  0.50000001  0.50000000  1
