# generated using pymatgen
data_Ca5Ga3
_symmetry_space_group_name_H-M   'P 1'
_cell_length_a   7.95388603
_cell_length_b   7.95388603
_cell_length_c   9.33668709
_cell_angle_alpha   115.21068573
_cell_angle_beta   115.21068573
_cell_angle_gamma   90.00000000
_symmetry_Int_Tables_number   1
_chemical_formula_structural   Ca5Ga3
_chemical_formula_sum   'Ca10 Ga6'
_cell_volume   471.48490052
_cell_formula_units_Z   2
loop_
 _symmetry_equiv_pos_site_id
 _symmetry_equiv_pos_as_xyz
  1  'x, y, z'
loop_
 _atom_site_type_symbol
 _atom_site_label
 _atom_site_symmetry_multiplicity
 _atom_site_fract_x
 _atom_site_fract_y
 _atom_site_fract_z
 _atom_site_occupancy
  Ca  Ca0  1  0.50000005  0.50000002  0.00000008  1
  Ca  Ca1  1  0.00000000  0.00000000  0.00000000  1
  Ca  Ca2  1  0.52901606  0.68039903  0.70941509  1
  Ca  Ca3  1  0.18039901  0.02901600  0.70941501  1
  Ca  Ca4  1  0.02901604  0.52901602  0.70941505  1
  Ca  Ca5  1  0.68039903  0.18039901  0.70941506  1
  Ca  Ca6  1  0.47098404  0.31960101  0.29058506  1
  Ca  Ca7  1  0.81960109  0.97098404  0.29058514  1
  Ca  Ca8  1  0.97098406  0.47098402  0.29058510  1
  Ca  Ca9  1  0.31960107  0.81960103  0.29058509  1
  Ga  Ga10  1  0.25000003  0.25000001  0.50000004  1
  Ga  Ga11  1  0.75000008  0.75000003  0.50000011  1
  Ga  Ga12  1  0.88886307  0.61113603  0.99999911  1
  Ga  Ga13  1  0.11113703  0.38886402  0.00000104  1
  Ga  Ga14  1  0.38886308  0.88886304  0.00000010  1
  Ga  Ga15  1  0.61113702  0.11113700  0.00000005  1
