# generated using pymatgen
data_Mg5Ag
_symmetry_space_group_name_H-M   'P 1'
_cell_length_a   3.19403005
_cell_length_b   5.91768789
_cell_length_c   7.43610191
_cell_angle_alpha   104.43072510
_cell_angle_beta   90.00000000
_cell_angle_gamma   105.65661621
_symmetry_Int_Tables_number   1
_chemical_formula_structural   Mg5Ag
_chemical_formula_sum   'Mg5 Ag1'
_cell_volume   130.72557051
_cell_formula_units_Z   1
loop_
 _symmetry_equiv_pos_site_id
 _symmetry_equiv_pos_as_xyz
  1  'x, y, z'
loop_
 _atom_site_type_symbol
 _atom_site_label
 _atom_site_symmetry_multiplicity
 _atom_site_fract_x
 _atom_site_fract_y
 _atom_site_fract_z
 _atom_site_occupancy
  Mg  Mg0  1  0.38888396  0.77776799  0.27749104  1
  Mg  Mg1  1  0.05533999  0.11068000  0.61095202  1
  Mg  Mg2  1  0.99994794  0.99989599  0.00127305  1
  Mg  Mg3  1  0.66696898  0.33393800  0.33514103  1
  Mg  Mg4  1  0.33389097  0.66778199  0.66512305  1
  Ag  Ag5  1  0.72163497  0.44326999  0.94335305  1
