# generated using pymatgen
data_Zr2Ga3Ni
_symmetry_space_group_name_H-M   'P 1'
_cell_length_a   4.15484285
_cell_length_b   5.29614544
_cell_length_c   5.34473467
_cell_angle_alpha   74.52650452
_cell_angle_beta   67.12726593
_cell_angle_gamma   66.90531921
_symmetry_Int_Tables_number   1
_chemical_formula_structural   Zr2Ga3Ni
_chemical_formula_sum   'Zr2 Ga3 Ni1'
_cell_volume   98.76607103
_cell_formula_units_Z   1
loop_
 _symmetry_equiv_pos_site_id
 _symmetry_equiv_pos_as_xyz
  1  'x, y, z'
loop_
 _atom_site_type_symbol
 _atom_site_label
 _atom_site_symmetry_multiplicity
 _atom_site_fract_x
 _atom_site_fract_y
 _atom_site_fract_z
 _atom_site_occupancy
  Zr  Zr0  1  0.46169999  0.79498002  0.28162097  1
  Zr  Zr1  1  0.54370201  0.21010801  0.70248798  1
  Ga  Ga2  1  0.14590199  0.38051301  0.32768198  1
  Ni  Ni3  1  0.17738098  0.78233102  0.86290795  1
  Ga  Ga4  1  0.83928202  0.21678101  0.10465399  1
  Ga  Ga5  1  0.83203301  0.61528701  0.72064696  1
