# generated using pymatgen
data_Na2V5O7
_symmetry_space_group_name_H-M   'P 1'
_cell_length_a   5.93998098
_cell_length_b   6.50067139
_cell_length_c   6.94009209
_cell_angle_alpha   73.47456360
_cell_angle_beta   77.85245514
_cell_angle_gamma   71.09817505
_symmetry_Int_Tables_number   1
_chemical_formula_structural   Na2V5O7
_chemical_formula_sum   'Na2 V5 O7'
_cell_volume   240.98436501
_cell_formula_units_Z   1
loop_
 _symmetry_equiv_pos_site_id
 _symmetry_equiv_pos_as_xyz
  1  'x, y, z'
loop_
 _atom_site_type_symbol
 _atom_site_label
 _atom_site_symmetry_multiplicity
 _atom_site_fract_x
 _atom_site_fract_y
 _atom_site_fract_z
 _atom_site_occupancy
  Na  Na0  1  0.75758304  0.80162301  0.13119404  1
  Na  Na1  1  0.24241701  0.19837700  0.86880603  1
  V  V2  1  0.62377003  0.64416400  0.73255105  1
  V  V3  1  0.37623002  0.35583600  0.26744903  1
  V  V4  1  0.01007000  0.02501500  0.22551201  1
  V  V5  1  0.98993004  0.97498501  0.77448807  1
  O  O6  1  0.09119403  0.52292100  0.19023002  1
  V  V7  1  0.90880602  0.47707900  0.80977006  1
  O  O8  1  0.34410101  0.25007100  0.53421103  1
  O  O9  1  0.57673202  0.52558000  0.20171303  1
  O  O10  1  0.65589904  0.74992901  0.46578905  1
  O  O11  1  0.47766400  0.12969700  0.12938302  1
  O  O12  1  0.52233604  0.87030301  0.87061705  1
  O  O13  1  0.42326802  0.47442000  0.79828704  1
