# generated using pymatgen
data_Zr2SiMo3
_symmetry_space_group_name_H-M   'P 1'
_cell_length_a   5.29147339
_cell_length_b   5.29147339
_cell_length_c   8.40705299
_cell_angle_alpha   90.00000000
_cell_angle_beta   90.00000000
_cell_angle_gamma   119.25912476
_symmetry_Int_Tables_number   1
_chemical_formula_structural   Zr2SiMo3
_chemical_formula_sum   'Zr4 Si2 Mo6'
_cell_volume   205.36277522
_cell_formula_units_Z   2
loop_
 _symmetry_equiv_pos_site_id
 _symmetry_equiv_pos_as_xyz
  1  'x, y, z'
loop_
 _atom_site_type_symbol
 _atom_site_label
 _atom_site_symmetry_multiplicity
 _atom_site_fract_x
 _atom_site_fract_y
 _atom_site_fract_z
 _atom_site_occupancy
  Zr  Zr0  1  0.33242500  0.66757499  0.69798000  1
  Zr  Zr1  1  0.66477299  0.33522700  0.81732100  1
  Zr  Zr2  1  0.66477299  0.33522700  0.18267900  1
  Zr  Zr3  1  0.33242500  0.66757499  0.30202000  1
  Si  Si4  1  0.99716198  0.00283800  0.75408800  1
  Si  Si5  1  0.99716198  0.00283800  0.24591200  1
  Mo  Mo6  1  0.82909800  0.65244399  0.50000000  1
  Mo  Mo7  1  0.34755600  0.17090200  0.50000000  1
  Mo  Mo8  1  0.83287299  0.16712700  0.50000000  1
  Mo  Mo9  1  0.16962200  0.33669900  -0.00000000  1
  Mo  Mo10  1  0.66330100  0.83037799  -0.00000000  1
  Mo  Mo11  1  0.16867101  0.83132899  -0.00000000  1
