# generated using pymatgen
data_Zr3UO8
_symmetry_space_group_name_H-M   'P 1'
_cell_length_a   4.04297018
_cell_length_b   6.99358606
_cell_length_c   7.11783886
_cell_angle_alpha   105.83219147
_cell_angle_beta   90.00000000
_cell_angle_gamma   106.80099487
_symmetry_Int_Tables_number   1
_chemical_formula_structural   Zr3UO8
_chemical_formula_sum   'Zr3 U1 O8'
_cell_volume   184.67570605
_cell_formula_units_Z   1
loop_
 _symmetry_equiv_pos_site_id
 _symmetry_equiv_pos_as_xyz
  1  'x, y, z'
loop_
 _atom_site_type_symbol
 _atom_site_label
 _atom_site_symmetry_multiplicity
 _atom_site_fract_x
 _atom_site_fract_y
 _atom_site_fract_z
 _atom_site_occupancy
  U  U0  1  0.09985099  0.19970200  0.71006401  1
  Zr  Zr1  1  0.19460999  0.38922000  0.28705502  1
  Zr  Zr2  1  0.80538996  0.61077999  0.71294503  1
  Zr  Zr3  1  0.90014896  0.80029799  0.28993605  1
  O  O4  1  0.05986800  0.11973600  0.37787700  1
  O  O5  1  0.64189497  0.28379000  0.70645301  1
  O  O6  1  0.13207799  0.26415600  0.00420902  1
  O  O7  1  0.25907399  0.51814799  0.64647003  1
  O  O8  1  0.74092596  0.48185200  0.35353003  1
  O  O9  1  0.86792196  0.73584399  0.99579104  1
  O  O10  1  0.35810498  0.71620999  0.29354704  1
  O  O11  1  0.94013195  0.88026399  0.62212305  1
