# generated using pymatgen
data_SrIn2Pt
_symmetry_space_group_name_H-M   'P 1'
_cell_length_a   4.57752991
_cell_length_b   5.78640604
_cell_length_c   7.93599510
_cell_angle_alpha   90.00000000
_cell_angle_beta   90.00000000
_cell_angle_gamma   113.29976654
_symmetry_Int_Tables_number   1
_chemical_formula_structural   SrIn2Pt
_chemical_formula_sum   'Sr2 In4 Pt2'
_cell_volume   193.06166907
_cell_formula_units_Z   2
loop_
 _symmetry_equiv_pos_site_id
 _symmetry_equiv_pos_as_xyz
  1  'x, y, z'
loop_
 _atom_site_type_symbol
 _atom_site_label
 _atom_site_symmetry_multiplicity
 _atom_site_fract_x
 _atom_site_fract_y
 _atom_site_fract_z
 _atom_site_occupancy
  Sr  Sr0  1  0.93553206  0.87106400  0.74999999  1
  Sr  Sr1  1  0.06446801  0.12893600  0.25000000  1
  In  In2  1  0.35346104  0.70692200  0.44691199  1
  In  In3  1  0.64653903  0.29307800  0.55308799  1
  In  In4  1  0.35346104  0.70692200  0.05308800  1
  In  In5  1  0.64653903  0.29307800  0.94691199  1
  Pt  Pt6  1  0.78191604  0.56383200  0.25000000  1
  Pt  Pt7  1  0.21808403  0.43616800  0.74999999  1
