# generated using pymatgen
data_Na3AlAu5
_symmetry_space_group_name_H-M   'P 1'
_cell_length_a   7.86042929
_cell_length_b   7.86042929
_cell_length_c   7.86042929
_cell_angle_alpha   66.13222504
_cell_angle_beta   66.13222504
_cell_angle_gamma   66.13221741
_symmetry_Int_Tables_number   1
_chemical_formula_structural   Na3AlAu5
_chemical_formula_sum   'Na6 Al2 Au10'
_cell_volume   388.93544806
_cell_formula_units_Z   2
loop_
 _symmetry_equiv_pos_site_id
 _symmetry_equiv_pos_as_xyz
  1  'x, y, z'
loop_
 _atom_site_type_symbol
 _atom_site_label
 _atom_site_symmetry_multiplicity
 _atom_site_fract_x
 _atom_site_fract_y
 _atom_site_fract_z
 _atom_site_occupancy
  Na  Na0  1  0.80828301  0.10927700  0.37906605  1
  Na  Na1  1  0.10927701  0.37906600  0.80828303  1
  Na  Na2  1  0.37906603  0.80828300  0.10927705  1
  Na  Na3  1  0.19171703  0.89072300  0.62093405  1
  Na  Na4  1  0.89072303  0.62093400  0.19171706  1
  Na  Na5  1  0.62093401  0.19171700  0.89072305  1
  Al  Al6  1  0.34524502  0.34524500  0.34524503  1
  Al  Al7  1  0.65475503  0.65475500  0.65475506  1
  Au  Au8  1  0.00000000  0.00000000  0.00000000  1
  Au  Au9  1  0.50000002  0.50000000  0.50000005  1
  Au  Au10  1  0.19789501  0.19789500  0.19789502  1
  Au  Au11  1  0.80210503  0.80210500  0.80210507  1
  Au  Au12  1  0.44798500  0.05857800  0.68282103  1
  Au  Au13  1  0.05857803  0.68282100  0.44798503  1
  Au  Au14  1  0.68282102  0.44798500  0.05857805  1
  Au  Au15  1  0.55201504  0.94142200  0.31717906  1
  Au  Au16  1  0.94142202  0.31717900  0.55201506  1
  Au  Au17  1  0.31717902  0.55201500  0.94142205  1
