# generated using pymatgen
data_Dy2InNi2
_symmetry_space_group_name_H-M   'P 1'
_cell_length_a   3.73790002
_cell_length_b   7.51486111
_cell_length_c   7.51486111
_cell_angle_alpha   90.00000000
_cell_angle_beta   90.00000000
_cell_angle_gamma   90.00000000
_symmetry_Int_Tables_number   1
_chemical_formula_structural   Dy2InNi2
_chemical_formula_sum   'Dy4 In2 Ni4'
_cell_volume   211.09094155
_cell_formula_units_Z   2
loop_
 _symmetry_equiv_pos_site_id
 _symmetry_equiv_pos_as_xyz
  1  'x, y, z'
loop_
 _atom_site_type_symbol
 _atom_site_label
 _atom_site_symmetry_multiplicity
 _atom_site_fract_x
 _atom_site_fract_y
 _atom_site_fract_z
 _atom_site_occupancy
  Dy  Dy0  1  0.50000000  0.67690999  0.17691000  1
  Dy  Dy1  1  0.50000000  0.17691000  0.32309000  1
  Dy  Dy2  1  0.50000000  0.82308999  0.67690999  1
  Dy  Dy3  1  0.50000000  0.32309000  0.82308999  1
  In  In4  1  0.00000000  0.00000000  0.00000000  1
  In  In5  1  -0.00000000  0.49999999  0.49999999  1
  Ni  Ni6  1  -0.00000000  0.11700100  0.61700099  1
  Ni  Ni7  1  0.99999999  0.61700099  0.88299899  1
  Ni  Ni8  1  -0.00000000  0.38299899  0.11700100  1
  Ni  Ni9  1  0.99999999  0.88299899  0.38299899  1
