# generated using pymatgen
data_NbMoN3
_symmetry_space_group_name_H-M   'P 1'
_cell_length_a   3.62958288
_cell_length_b   6.02494144
_cell_length_c   6.32877541
_cell_angle_alpha   106.96251678
_cell_angle_beta   96.41196442
_cell_angle_gamma   90.83802795
_symmetry_Int_Tables_number   1
_chemical_formula_structural   NbMoN3
_chemical_formula_sum   'Nb2 Mo2 N6'
_cell_volume   131.38652490
_cell_formula_units_Z   2
loop_
 _symmetry_equiv_pos_site_id
 _symmetry_equiv_pos_as_xyz
  1  'x, y, z'
loop_
 _atom_site_type_symbol
 _atom_site_label
 _atom_site_symmetry_multiplicity
 _atom_site_fract_x
 _atom_site_fract_y
 _atom_site_fract_z
 _atom_site_occupancy
  Nb  Nb0  1  0.55135597  0.78920100  0.27069801  1
  Nb  Nb1  1  0.62554700  0.33256800  0.72800803  1
  Mo  Mo2  1  0.14797196  0.81770000  0.75254502  1
  Mo  Mo3  1  0.07663699  0.28821900  0.25220901  1
  N  N4  1  0.96990698  0.94693800  0.05007500  1
  N  N5  1  0.67743297  0.83483000  0.88687503  1
  N  N6  1  0.06558997  0.46792300  0.08091600  1
  N  N7  1  0.55330201  0.22184800  0.31089702  1
  N  N8  1  0.10674797  0.52384600  0.56467102  1
  N  N9  1  0.11051800  0.00177600  0.58456702  1
