# generated using pymatgen
data_KSc(WO4)2
_symmetry_space_group_name_H-M   'P 1'
_cell_length_a   6.08727980
_cell_length_b   6.08727980
_cell_length_c   8.27231979
_cell_angle_alpha   90.00000000
_cell_angle_beta   90.00000000
_cell_angle_gamma   120.00000000
_symmetry_Int_Tables_number   1
_chemical_formula_structural   KSc(WO4)2
_chemical_formula_sum   'K1 Sc1 W2 O8'
_cell_volume   265.46329167
_cell_formula_units_Z   1
loop_
 _symmetry_equiv_pos_site_id
 _symmetry_equiv_pos_as_xyz
  1  'x, y, z'
loop_
 _atom_site_type_symbol
 _atom_site_label
 _atom_site_symmetry_multiplicity
 _atom_site_fract_x
 _atom_site_fract_y
 _atom_site_fract_z
 _atom_site_occupancy
  K  K0  1  0.00000000  0.00000000  0.00000000  1
  Sc  Sc1  1  0.00000000  0.00000000  0.50000001  1
  W  W2  1  0.66666669  0.33333334  0.72961002  1
  W  W3  1  0.33333334  0.66666667  0.27039001  1
  O  O4  1  0.83140202  0.66280401  0.66065402  1
  O  O5  1  0.16859800  0.33719600  0.33934601  1
  O  O6  1  0.83140203  0.16859700  0.66065402  1
  O  O7  1  0.16859800  0.83140301  0.33934601  1
  O  O8  1  0.33719501  0.16859700  0.66065402  1
  O  O9  1  0.66280501  0.83140301  0.33934601  1
  O  O10  1  0.66666669  0.33333334  0.94419102  1
  O  O11  1  0.33333334  0.66666667  0.05580900  1
