# generated using pymatgen
data_SmNi3
_symmetry_space_group_name_H-M   'P 1'
_cell_length_a   5.08442831
_cell_length_b   5.08442831
_cell_length_c   8.77562141
_cell_angle_alpha   73.16056824
_cell_angle_beta   73.16056824
_cell_angle_gamma   59.99999619
_symmetry_Int_Tables_number   1
_chemical_formula_structural   SmNi3
_chemical_formula_sum   'Sm3 Ni9'
_cell_volume   185.15059532
_cell_formula_units_Z   3
loop_
 _symmetry_equiv_pos_site_id
 _symmetry_equiv_pos_as_xyz
  1  'x, y, z'
loop_
 _atom_site_type_symbol
 _atom_site_label
 _atom_site_symmetry_multiplicity
 _atom_site_fract_x
 _atom_site_fract_y
 _atom_site_fract_z
 _atom_site_occupancy
  Sm  Sm0  1  0.86058898  0.86058899  0.41823292  1
  Sm  Sm1  1  0.13941100  0.13941100  0.58176697  1
  Sm  Sm2  1  0.00000000  0.00000000  0.00000000  1
  Ni  Ni3  1  0.42179799  0.91814999  0.23825394  1
  Ni  Ni4  1  0.42179799  0.42179800  0.23825396  1
  Ni  Ni5  1  0.91814999  0.42179800  0.23825394  1
  Ni  Ni6  1  0.57820199  0.08185000  0.76174595  1
  Ni  Ni7  1  0.57820199  0.57820200  0.76174593  1
  Ni  Ni8  1  0.08184999  0.57820200  0.76174595  1
  Ni  Ni9  1  0.66591799  0.66591800  0.00224595  1
  Ni  Ni10  1  0.33408199  0.33408200  0.99775394  1
  Ni  Ni11  1  0.49999999  0.50000000  0.49999994  1
