# generated using pymatgen
data_NaAsO4
_symmetry_space_group_name_H-M   'P 1'
_cell_length_a   5.21643257
_cell_length_b   5.21643257
_cell_length_c   7.30807209
_cell_angle_alpha   90.00000000
_cell_angle_beta   90.00000000
_cell_angle_gamma   113.39244843
_symmetry_Int_Tables_number   1
_chemical_formula_structural   NaAsO4
_chemical_formula_sum   'Na2 As2 O8'
_cell_volume   182.51617822
_cell_formula_units_Z   2
loop_
 _symmetry_equiv_pos_site_id
 _symmetry_equiv_pos_as_xyz
  1  'x, y, z'
loop_
 _atom_site_type_symbol
 _atom_site_label
 _atom_site_symmetry_multiplicity
 _atom_site_fract_x
 _atom_site_fract_y
 _atom_site_fract_z
 _atom_site_occupancy
  Na  Na0  1  0.00000000  0.00000000  0.00000000  1
  Na  Na1  1  0.00000000  0.00000000  0.49999999  1
  As  As2  1  0.35507305  0.64492703  0.74999999  1
  As  As3  1  0.64492703  0.35507302  0.25000000  1
  O  O4  1  0.23130602  0.28983201  0.74999999  1
  O  O5  1  0.28983202  0.23130601  0.25000000  1
  O  O6  1  0.25600405  0.74399603  0.94387899  1
  O  O7  1  0.25600405  0.74399603  0.55612099  1
  O  O8  1  0.74399603  0.25600401  0.44387899  1
  O  O9  1  0.74399603  0.25600401  0.05612100  1
  O  O10  1  0.71016806  0.76869403  0.74999999  1
  O  O11  1  0.76869406  0.71016803  0.25000000  1
