# generated using pymatgen
data_LiMnO2
_symmetry_space_group_name_H-M   'P 1'
_cell_length_a   5.91679478
_cell_length_b   5.92265797
_cell_length_c   5.95948267
_cell_angle_alpha   60.20419693
_cell_angle_beta   60.29294205
_cell_angle_gamma   90.00000000
_symmetry_Int_Tables_number   1
_chemical_formula_structural   LiMnO2
_chemical_formula_sum   'Li4 Mn4 O8'
_cell_volume   148.77415354
_cell_formula_units_Z   4
loop_
 _symmetry_equiv_pos_site_id
 _symmetry_equiv_pos_as_xyz
  1  'x, y, z'
loop_
 _atom_site_type_symbol
 _atom_site_label
 _atom_site_symmetry_multiplicity
 _atom_site_fract_x
 _atom_site_fract_y
 _atom_site_fract_z
 _atom_site_occupancy
  Li  Li0  1  0.00000000  0.50000000  0.00000001  1
  Li  Li1  1  0.00000000  0.50000000  0.50000001  1
  Li  Li2  1  0.00000000  0.00000000  0.50000000  1
  Li  Li3  1  0.49999999  0.00000000  -0.00000002  1
  Mn  Mn4  1  0.00000000  0.00000000  0.00000000  1
  Mn  Mn5  1  0.49999999  0.00000000  0.49999998  1
  Mn  Mn6  1  0.49999999  0.50000000  0.49999999  1
  Mn  Mn7  1  0.49999999  0.50000000  -0.00000000  1
  O  O8  1  0.71495699  0.24993500  0.50012998  1
  O  O9  1  0.25896000  0.25888600  0.97160799  1
  O  O10  1  0.25896000  0.76950599  0.97160800  1
  O  O11  1  0.28504300  0.75006499  0.49987001  1
  O  O12  1  0.75370999  0.74110899  0.51778199  1
  O  O13  1  0.74103999  0.74111399  0.02839199  1
  O  O14  1  0.74103999  0.23049400  0.02839198  1
  O  O15  1  0.24629000  0.25889100  0.48221800  1
