# generated using pymatgen
data_VO2
_symmetry_space_group_name_H-M   'P 1'
_cell_length_a   4.94454193
_cell_length_b   5.66557503
_cell_length_c   7.10932922
_cell_angle_alpha   90.00000000
_cell_angle_beta   90.00000000
_cell_angle_gamma   96.35041809
_symmetry_Int_Tables_number   1
_chemical_formula_structural   VO2
_chemical_formula_sum   'V4 O8'
_cell_volume   197.93639178
_cell_formula_units_Z   4
loop_
 _symmetry_equiv_pos_site_id
 _symmetry_equiv_pos_as_xyz
  1  'x, y, z'
loop_
 _atom_site_type_symbol
 _atom_site_label
 _atom_site_symmetry_multiplicity
 _atom_site_fract_x
 _atom_site_fract_y
 _atom_site_fract_z
 _atom_site_occupancy
  V  V0  1  0.81545902  0.30104599  0.24999999  1
  V  V1  1  0.18454102  0.69895399  0.74999998  1
  V  V2  1  0.28388602  0.88829598  0.24999999  1
  V  V3  1  0.71611401  0.11170400  0.74999998  1
  O  O4  1  0.18289402  0.71845999  0.44046499  1
  O  O5  1  0.81710602  0.28153999  0.94046497  1
  O  O6  1  0.81710602  0.28153999  0.55953498  1
  O  O7  1  0.18289402  0.71845999  0.05953500  1
  O  O8  1  0.18470401  0.17559100  0.24999999  1
  O  O9  1  0.81529603  0.82440898  0.74999998  1
  O  O10  1  0.63691003  0.95524198  0.24999999  1
  O  O11  1  0.36309001  0.04475800  0.74999998  1
