# generated using pymatgen
data_Er2MgCd5
_symmetry_space_group_name_H-M   'P 1'
_cell_length_a   4.99528217
_cell_length_b   6.66790390
_cell_length_c   6.66790390
_cell_angle_alpha   120.00000000
_cell_angle_beta   90.00000000
_cell_angle_gamma   90.00000000
_symmetry_Int_Tables_number   1
_chemical_formula_structural   Er2MgCd5
_chemical_formula_sum   'Er2 Mg1 Cd5'
_cell_volume   192.33987142
_cell_formula_units_Z   1
loop_
 _symmetry_equiv_pos_site_id
 _symmetry_equiv_pos_as_xyz
  1  'x, y, z'
loop_
 _atom_site_type_symbol
 _atom_site_label
 _atom_site_symmetry_multiplicity
 _atom_site_fract_x
 _atom_site_fract_y
 _atom_site_fract_z
 _atom_site_occupancy
  Er  Er0  1  0.74999997  0.66666667  0.33333331  1
  Er  Er1  1  0.24999999  0.33333333  0.66666665  1
  Mg  Mg2  1  0.74999997  0.16222600  0.83777498  1
  Cd  Cd3  1  0.24999999  0.83777400  0.67554797  1
  Cd  Cd4  1  0.24999999  0.32445100  0.16222499  1
  Cd  Cd5  1  0.74999997  0.67554900  0.83777497  1
  Cd  Cd6  1  0.74999997  0.16222600  0.32445199  1
  Cd  Cd7  1  0.24999999  0.83777400  0.16222498  1
