# generated using pymatgen
data_Sr4V(WO4)3
_symmetry_space_group_name_H-M   'P 1'
_cell_length_a   5.60178804
_cell_length_b   5.66269493
_cell_length_c   7.95260954
_cell_angle_alpha   89.68696594
_cell_angle_beta   90.03887177
_cell_angle_gamma   89.86311340
_symmetry_Int_Tables_number   1
_chemical_formula_structural   Sr4V(WO4)3
_chemical_formula_sum   'Sr4 V1 W3 O12'
_cell_volume   252.26190574
_cell_formula_units_Z   1
loop_
 _symmetry_equiv_pos_site_id
 _symmetry_equiv_pos_as_xyz
  1  'x, y, z'
loop_
 _atom_site_type_symbol
 _atom_site_label
 _atom_site_symmetry_multiplicity
 _atom_site_fract_x
 _atom_site_fract_y
 _atom_site_fract_z
 _atom_site_occupancy
  Sr  Sr0  1  0.49592501  0.46375202  0.24119503  1
  Sr  Sr1  1  0.01247402  0.95829104  0.24005803  1
  Sr  Sr2  1  0.50407501  0.53624802  0.75880504  1
  Sr  Sr3  1  0.98752599  0.04170900  0.75994204  1
  V  V4  1  0.00000001  0.50000002  0.00000001  1
  W  W5  1  0.50000000  0.00000000  0.50000002  1
  W  W6  1  0.00000001  0.50000002  0.50000002  1
  W  W7  1  0.50000000  0.00000000  0.00000002  1
  O  O8  1  0.22299300  0.21202801  0.02776901  1
  O  O9  1  0.29938402  0.70171303  0.46357603  1
  O  O10  1  0.79714701  0.79554303  0.53897305  1
  O  O11  1  0.70869600  0.27861201  0.96648304  1
  O  O12  1  0.77700701  0.78797203  0.97223105  1
  O  O13  1  0.70061600  0.29828701  0.53642403  1
  O  O14  1  0.20285300  0.20445701  0.46102702  1
  O  O15  1  0.29130402  0.72138803  0.03351703  1
  O  O16  1  0.57674100  0.01569400  0.24953802  1
  O  O17  1  0.94315701  0.50835202  0.25819005  1
  O  O18  1  0.42325902  0.98430604  0.75046205  1
  O  O19  1  0.05684301  0.49164802  0.74181002  1
