# generated using pymatgen
data_Y4Si7Ni
_symmetry_space_group_name_H-M   'P 1'
_cell_length_a   3.91024208
_cell_length_b   3.91024208
_cell_length_c   15.54067612
_cell_angle_alpha   90.00000000
_cell_angle_beta   90.00000000
_cell_angle_gamma   120.00000000
_symmetry_Int_Tables_number   1
_chemical_formula_structural   Y4Si7Ni
_chemical_formula_sum   'Y4 Si7 Ni1'
_cell_volume   205.78221206
_cell_formula_units_Z   1
loop_
 _symmetry_equiv_pos_site_id
 _symmetry_equiv_pos_as_xyz
  1  'x, y, z'
loop_
 _atom_site_type_symbol
 _atom_site_label
 _atom_site_symmetry_multiplicity
 _atom_site_fract_x
 _atom_site_fract_y
 _atom_site_fract_z
 _atom_site_occupancy
  Y  Y0  1  0.00000000  0.00000000  0.74999999  1
  Y  Y1  1  0.00000000  0.00000000  0.25000000  1
  Y  Y2  1  0.00000000  0.00000000  0.00000000  1
  Y  Y3  1  0.00000000  0.00000000  0.50000000  1
  Ni  Ni4  1  0.66666666  0.33333334  0.87236499  1
  Si  Si5  1  0.33333334  0.66666667  0.12763500  1
  Si  Si6  1  0.33333334  0.66666667  0.37236500  1
  Si  Si7  1  0.66666666  0.33333334  0.62763500  1
  Si  Si8  1  0.66666666  0.33333334  0.37748200  1
  Si  Si9  1  0.33333334  0.66666667  0.62251800  1
  Si  Si10  1  0.33333334  0.66666667  0.87748199  1
  Si  Si11  1  0.66666666  0.33333334  0.12251800  1
