# generated using pymatgen
data_LiCaCu2F8
_symmetry_space_group_name_H-M   'P 1'
_cell_length_a   3.70706201
_cell_length_b   6.52148390
_cell_length_c   6.52148390
_cell_angle_alpha   110.99795532
_cell_angle_beta   90.00000000
_cell_angle_gamma   90.00000000
_symmetry_Int_Tables_number   1
_chemical_formula_structural   LiCaCu2F8
_chemical_formula_sum   'Li1 Ca1 Cu2 F8'
_cell_volume   147.19070640
_cell_formula_units_Z   1
loop_
 _symmetry_equiv_pos_site_id
 _symmetry_equiv_pos_as_xyz
  1  'x, y, z'
loop_
 _atom_site_type_symbol
 _atom_site_label
 _atom_site_symmetry_multiplicity
 _atom_site_fract_x
 _atom_site_fract_y
 _atom_site_fract_z
 _atom_site_occupancy
  Ca  Ca0  1  0.50000000  0.49802000  0.50197998  1
  Li  Li1  1  0.50000000  0.00246300  0.99753703  1
  Cu  Cu2  1  1.00000000  0.99472401  0.49444895  1
  Cu  Cu3  1  1.00000000  0.50555100  0.00527597  1
  F  F4  1  -0.00000000  0.61231100  0.38768897  1
  F  F5  1  -0.00000000  0.09379700  0.90620302  1
  F  F6  1  0.50000000  0.39483400  0.08836298  1
  F  F7  1  0.50000000  0.91163700  0.60516596  1
  F  F8  1  0.50000000  0.13613000  0.34302000  1
  F  F9  1  0.50000000  0.65698000  0.86386998  1
  F  F10  1  -0.00000000  0.34568100  0.65431900  1
  F  F11  1  -0.00000000  0.84787300  0.15212695  1
