# generated using pymatgen
data_NaSO
_symmetry_space_group_name_H-M   'P 1'
_cell_length_a   3.05726409
_cell_length_b   3.05726385
_cell_length_c   5.79489899
_cell_angle_alpha   90.00000000
_cell_angle_beta   90.00000000
_cell_angle_gamma   120.00000000
_symmetry_Int_Tables_number   1
_chemical_formula_structural   NaSO
_chemical_formula_sum   'Na1 S1 O1'
_cell_volume   46.90750982
_cell_formula_units_Z   1
loop_
 _symmetry_equiv_pos_site_id
 _symmetry_equiv_pos_as_xyz
  1  'x, y, z'
loop_
 _atom_site_type_symbol
 _atom_site_label
 _atom_site_symmetry_multiplicity
 _atom_site_fract_x
 _atom_site_fract_y
 _atom_site_fract_z
 _atom_site_occupancy
  Na  Na0  1  0.66666663  0.33333331  0.30742100  1
  S  S1  1  0.33333329  0.66666663  0.69257900  1
  O  O2  1  0.00000000  0.00000000  0.00000000  1
