# generated using pymatgen
data_K4PPd3S8
_symmetry_space_group_name_H-M   'P 1'
_cell_length_a   6.62565422
_cell_length_b   6.84239388
_cell_length_c   9.55245399
_cell_angle_alpha   90.00000000
_cell_angle_beta   87.72929382
_cell_angle_gamma   90.00000000
_symmetry_Int_Tables_number   1
_chemical_formula_structural   K4PPd3S8
_chemical_formula_sum   'K4 P1 Pd3 S8'
_cell_volume   432.72366106
_cell_formula_units_Z   1
loop_
 _symmetry_equiv_pos_site_id
 _symmetry_equiv_pos_as_xyz
  1  'x, y, z'
loop_
 _atom_site_type_symbol
 _atom_site_label
 _atom_site_symmetry_multiplicity
 _atom_site_fract_x
 _atom_site_fract_y
 _atom_site_fract_z
 _atom_site_occupancy
  K  K0  1  0.21039499  0.75000001  0.54711099  1
  K  K1  1  0.78960497  0.25000000  0.45288899  1
  K  K2  1  0.45027999  0.25000000  0.84989398  1
  K  K3  1  0.54971998  0.75000001  0.15010599  1
  Pd  Pd4  1  0.27985999  0.25000000  0.26802199  1
  P  P5  1  0.72013998  0.75000001  0.73197798  1
  Pd  Pd6  1  -0.00000000  0.50000001  -0.00000000  1
  Pd  Pd7  1  0.00000000  0.00000000  0.00000000  1
  S  S8  1  0.69857798  0.75000001  0.52163398  1
  S  S9  1  0.30142199  0.25000000  0.47836599  1
  S  S10  1  0.44748599  0.75000001  0.83887198  1
  S  S11  1  0.55251398  0.25000000  0.16112799  1
  S  S12  1  0.88557197  0.00388000  0.77290998  1
  S  S13  1  0.11442800  0.50388001  0.22708999  1
  S  S14  1  0.88557197  0.49612001  0.77290998  1
  S  S15  1  0.11442800  0.99612002  0.22708999  1
