# generated using pymatgen
data_Li3VO6
_symmetry_space_group_name_H-M   'P 1'
_cell_length_a   4.95328712
_cell_length_b   5.09242105
_cell_length_c   5.38338852
_cell_angle_alpha   63.01299667
_cell_angle_beta   89.89273071
_cell_angle_gamma   117.19152069
_symmetry_Int_Tables_number   1
_chemical_formula_structural   Li3VO6
_chemical_formula_sum   'Li3 V1 O6'
_cell_volume   103.81439968
_cell_formula_units_Z   1
loop_
 _symmetry_equiv_pos_site_id
 _symmetry_equiv_pos_as_xyz
  1  'x, y, z'
loop_
 _atom_site_type_symbol
 _atom_site_label
 _atom_site_symmetry_multiplicity
 _atom_site_fract_x
 _atom_site_fract_y
 _atom_site_fract_z
 _atom_site_occupancy
  Li  Li0  1  0.89950300  0.75303405  0.39762501  1
  Li  Li1  1  0.12536001  0.26806402  0.56587298  1
  Li  Li2  1  0.65845699  0.32764902  0.01821402  1
  V  V3  1  0.33314302  0.68356504  0.96079898  1
  O  O4  1  0.41318799  0.15459301  0.78468598  1
  O  O5  1  0.28944500  0.23227501  0.24609900  1
  O  O6  1  0.95037899  0.48800303  0.24183202  1
  O  O7  1  0.03271102  0.47031303  0.75920797  1
  O  O8  1  0.72428501  0.77589405  0.77218899  1
  O  O9  1  0.57352702  0.84660905  0.25347701  1
