# generated using pymatgen
data_Nb2P3
_symmetry_space_group_name_H-M   'P 1'
_cell_length_a   4.16129589
_cell_length_b   6.56050301
_cell_length_c   7.42023373
_cell_angle_alpha   100.38978577
_cell_angle_beta   106.28419495
_cell_angle_gamma   90.00000000
_symmetry_Int_Tables_number   1
_chemical_formula_structural   Nb2P3
_chemical_formula_sum   'Nb4 P6'
_cell_volume   190.98434612
_cell_formula_units_Z   2
loop_
 _symmetry_equiv_pos_site_id
 _symmetry_equiv_pos_as_xyz
  1  'x, y, z'
loop_
 _atom_site_type_symbol
 _atom_site_label
 _atom_site_symmetry_multiplicity
 _atom_site_fract_x
 _atom_site_fract_y
 _atom_site_fract_z
 _atom_site_occupancy
  Nb  Nb0  1  0.53867502  0.35244499  0.69762004  1
  Nb  Nb1  1  0.84105502  0.14755500  0.30238001  1
  Nb  Nb2  1  0.46132503  0.64755499  0.30238004  1
  Nb  Nb3  1  0.15894503  0.85244498  0.69762007  1
  P  P4  1  0.90946303  0.47282899  0.55884904  1
  P  P5  1  0.35061401  0.02717100  0.44115101  1
  P  P6  1  0.09053702  0.52717099  0.44115104  1
  P  P7  1  0.64938604  0.97282898  0.55884907  1
  P  P8  1  0.21059801  0.24999999  1.00000004  1
  P  P9  1  0.78940204  0.74999998  1.00000007  1
