# generated using pymatgen
data_Ti2AlC
_symmetry_space_group_name_H-M   'P 1'
_cell_length_a   3.07994008
_cell_length_b   3.07994056
_cell_length_c   13.45333862
_cell_angle_alpha   90.00000000
_cell_angle_beta   90.00000000
_cell_angle_gamma   119.99999237
_symmetry_Int_Tables_number   1
_chemical_formula_structural   Ti2AlC
_chemical_formula_sum   'Ti4 Al2 C2'
_cell_volume   110.52113619
_cell_formula_units_Z   2
loop_
 _symmetry_equiv_pos_site_id
 _symmetry_equiv_pos_as_xyz
  1  'x, y, z'
loop_
 _atom_site_type_symbol
 _atom_site_label
 _atom_site_symmetry_multiplicity
 _atom_site_fract_x
 _atom_site_fract_y
 _atom_site_fract_z
 _atom_site_occupancy
  Ti  Ti0  1  0.66666664  0.33333334  0.91504003  1
  Ti  Ti1  1  0.33333331  0.66666667  0.41504001  1
  Ti  Ti2  1  0.33333331  0.66666667  0.08496000  1
  Ti  Ti3  1  0.66666664  0.33333334  0.58496002  1
  Al  Al4  1  0.66666664  0.33333334  0.25000001  1
  Al  Al5  1  0.33333331  0.66666667  0.75000002  1
  C  C6  1  0.00000000  0.00000000  0.50000001  1
  C  C7  1  0.00000000  0.00000000  0.00000000  1
