# generated using pymatgen
data_AlAgS2
_symmetry_space_group_name_H-M   'P 1'
_cell_length_a   5.50919390
_cell_length_b   5.50919390
_cell_length_c   6.75085402
_cell_angle_alpha   114.08157349
_cell_angle_beta   114.08157349
_cell_angle_gamma   90.00000000
_symmetry_Int_Tables_number   1
_chemical_formula_structural   AlAgS2
_chemical_formula_sum   'Al2 Ag2 S4'
_cell_volume   167.34070701
_cell_formula_units_Z   2
loop_
 _symmetry_equiv_pos_site_id
 _symmetry_equiv_pos_as_xyz
  1  'x, y, z'
loop_
 _atom_site_type_symbol
 _atom_site_label
 _atom_site_symmetry_multiplicity
 _atom_site_fract_x
 _atom_site_fract_y
 _atom_site_fract_z
 _atom_site_occupancy
  Al  Al0  1  0.75000004  0.25000001  0.50000002  1
  Al  Al1  1  0.25000004  0.75000003  0.50000003  1
  Ag  Ag2  1  0.50000004  0.50000002  0.00000004  1
  Ag  Ag3  1  0.00000000  0.00000000  0.00000000  1
  S  S4  1  0.36438505  0.89280304  0.25718805  1
  S  S5  1  0.10719701  0.10719700  0.74281198  1
  S  S6  1  0.89280305  0.36438502  0.25718804  1
  S  S7  1  0.63561505  0.63561503  0.74281203  1
