# generated using pymatgen
data_LiF
_symmetry_space_group_name_H-M   'P 1'
_cell_length_a   3.00852990
_cell_length_b   3.00872111
_cell_length_c   7.71980000
_cell_angle_alpha   90.01934814
_cell_angle_beta   90.00045776
_cell_angle_gamma   119.98905945
_symmetry_Int_Tables_number   1
_chemical_formula_structural   LiF
_chemical_formula_sum   'Li3 F3'
_cell_volume   60.52304648
_cell_formula_units_Z   3
loop_
 _symmetry_equiv_pos_site_id
 _symmetry_equiv_pos_as_xyz
  1  'x, y, z'
loop_
 _atom_site_type_symbol
 _atom_site_label
 _atom_site_symmetry_multiplicity
 _atom_site_fract_x
 _atom_site_fract_y
 _atom_site_fract_z
 _atom_site_occupancy
  Li  Li0  1  0.00001300  0.00000100  0.50014701  1
  Li  Li1  1  0.33333332  0.66666664  0.83832201  1
  Li  Li2  1  0.66666668  0.33333332  0.16159999  1
  F  F3  1  0.33325165  0.66658497  0.29204000  1
  F  F4  1  0.99999304  0.00000300  0.00000699  1
  F  F5  1  0.66674534  0.33341199  0.70788300  1
