# generated using pymatgen
data_MgCd
_symmetry_space_group_name_H-M   'P 1'
_cell_length_a   4.09958076
_cell_length_b   4.53696394
_cell_length_c   6.04243088
_cell_angle_alpha   112.05060577
_cell_angle_beta   90.00000000
_cell_angle_gamma   90.00000000
_symmetry_Int_Tables_number   1
_chemical_formula_structural   MgCd
_chemical_formula_sum   'Mg2 Cd2'
_cell_volume   104.16627887
_cell_formula_units_Z   2
loop_
 _symmetry_equiv_pos_site_id
 _symmetry_equiv_pos_as_xyz
  1  'x, y, z'
loop_
 _atom_site_type_symbol
 _atom_site_label
 _atom_site_symmetry_multiplicity
 _atom_site_fract_x
 _atom_site_fract_y
 _atom_site_fract_z
 _atom_site_occupancy
  Mg  Mg0  1  0.25000001  0.36192400  0.72384801  1
  Mg  Mg1  1  0.75000004  0.63807600  0.27615200  1
  Cd  Cd2  1  0.25000001  0.08027900  0.16055800  1
  Cd  Cd3  1  0.75000004  0.91972101  0.83944200  1
