# generated using pymatgen
data_LiCaH2
_symmetry_space_group_name_H-M   'P 1'
_cell_length_a   4.05478621
_cell_length_b   4.05478621
_cell_length_c   7.15122414
_cell_angle_alpha   90.00000000
_cell_angle_beta   90.00000000
_cell_angle_gamma   120.00000000
_symmetry_Int_Tables_number   1
_chemical_formula_structural   LiCaH2
_chemical_formula_sum   'Li2 Ca2 H4'
_cell_volume   101.82324711
_cell_formula_units_Z   2
loop_
 _symmetry_equiv_pos_site_id
 _symmetry_equiv_pos_as_xyz
  1  'x, y, z'
loop_
 _atom_site_type_symbol
 _atom_site_label
 _atom_site_symmetry_multiplicity
 _atom_site_fract_x
 _atom_site_fract_y
 _atom_site_fract_z
 _atom_site_occupancy
  Li  Li0  1  0.66666665  0.33333335  0.41336699  1
  Li  Li1  1  0.33333335  0.66666669  0.58663299  1
  Ca  Ca2  1  0.66666665  0.33333335  0.06209700  1
  Ca  Ca3  1  0.33333335  0.66666669  0.93790298  1
  H  H4  1  0.00000000  0.00000000  0.22030300  1
  H  H5  1  0.00000000  0.00000000  0.77969699  1
  H  H6  1  0.33333335  0.66666669  0.26211800  1
  H  H7  1  0.66666665  0.33333335  0.73788199  1
