# generated using pymatgen
data_LiMnF4
_symmetry_space_group_name_H-M   'P 1'
_cell_length_a   4.77740192
_cell_length_b   4.77740192
_cell_length_c   9.17788792
_cell_angle_alpha   90.00000000
_cell_angle_beta   90.00000000
_cell_angle_gamma   90.00000000
_symmetry_Int_Tables_number   1
_chemical_formula_structural   LiMnF4
_chemical_formula_sum   'Li3 Mn3 F12'
_cell_volume   209.47215947
_cell_formula_units_Z   3
loop_
 _symmetry_equiv_pos_site_id
 _symmetry_equiv_pos_as_xyz
  1  'x, y, z'
loop_
 _atom_site_type_symbol
 _atom_site_label
 _atom_site_symmetry_multiplicity
 _atom_site_fract_x
 _atom_site_fract_y
 _atom_site_fract_z
 _atom_site_occupancy
  Li  Li0  1  0.50000001  0.50000001  0.16865000  1
  Li  Li1  1  0.00000000  0.00000000  0.66865001  1
  Mn  Mn2  1  0.50000001  0.50000001  0.83135001  1
  Li  Li3  1  0.00000000  0.00000000  0.33135000  1
  Mn  Mn4  1  0.50000001  0.50000001  0.50000000  1
  Mn  Mn5  1  0.00000000  0.00000000  0.00000000  1
  F  F6  1  0.18935000  0.81065001  0.50000000  1
  F  F7  1  0.81065001  0.18935000  0.50000000  1
  F  F8  1  0.31065000  0.31065000  -0.00000000  1
  F  F9  1  0.68935001  0.68935001  -0.00000000  1
  F  F10  1  0.20296500  0.79703501  0.17464800  1
  F  F11  1  0.79703501  0.20296500  0.17464800  1
  F  F12  1  0.29703500  0.29703500  0.67464801  1
  F  F13  1  0.70296501  0.70296501  0.67464801  1
  F  F14  1  0.79703501  0.20296500  0.82535201  1
  F  F15  1  0.20296500  0.79703501  0.82535201  1
  F  F16  1  0.70296501  0.70296501  0.32535200  1
  F  F17  1  0.29703500  0.29703500  0.32535200  1
