# generated using pymatgen
data_AlPd2
_symmetry_space_group_name_H-M   'P 1'
_cell_length_a   4.67158079
_cell_length_b   4.83497810
_cell_length_c   5.15683365
_cell_angle_alpha   62.04400635
_cell_angle_beta   90.00000000
_cell_angle_gamma   90.00000000
_symmetry_Int_Tables_number   1
_chemical_formula_structural   AlPd2
_chemical_formula_sum   'Al2 Pd4'
_cell_volume   102.88536876
_cell_formula_units_Z   2
loop_
 _symmetry_equiv_pos_site_id
 _symmetry_equiv_pos_as_xyz
  1  'x, y, z'
loop_
 _atom_site_type_symbol
 _atom_site_label
 _atom_site_symmetry_multiplicity
 _atom_site_fract_x
 _atom_site_fract_y
 _atom_site_fract_z
 _atom_site_occupancy
  Al  Al0  1  0.25000001  0.29972599  1.00000002  1
  Al  Al1  1  0.75000003  0.70027398  0.00000001  1
  Pd  Pd2  1  0.25000001  0.64689598  0.36740901  1
  Pd  Pd3  1  0.25000001  0.01430500  0.63259101  1
  Pd  Pd4  1  0.75000003  0.98569497  0.36740902  1
  Pd  Pd5  1  0.75000003  0.35310399  0.63259101  1
