# generated using pymatgen
data_Zr2Cr3(Se3S)2
_symmetry_space_group_name_H-M   'P 1'
_cell_length_a   6.86785650
_cell_length_b   6.86785650
_cell_length_c   7.87076187
_cell_angle_alpha   64.13264465
_cell_angle_beta   64.13264465
_cell_angle_gamma   59.99999619
_symmetry_Int_Tables_number   1
_chemical_formula_structural   Zr2Cr3(Se3S)2
_chemical_formula_sum   'Zr2 Cr3 Se6 S2'
_cell_volume   277.72700757
_cell_formula_units_Z   1
loop_
 _symmetry_equiv_pos_site_id
 _symmetry_equiv_pos_as_xyz
  1  'x, y, z'
loop_
 _atom_site_type_symbol
 _atom_site_label
 _atom_site_symmetry_multiplicity
 _atom_site_fract_x
 _atom_site_fract_y
 _atom_site_fract_z
 _atom_site_occupancy
  Zr  Zr0  1  0.50000001  0.50000000  0.49999996  1
  Zr  Zr1  1  0.50000000  0.00000000  -0.00000002  1
  Cr  Cr2  1  0.00000001  0.50000000  -0.00000002  1
  Cr  Cr3  1  0.50000001  0.50000000  -0.00000004  1
  Cr  Cr4  1  0.00000000  0.00000000  0.00000000  1
  Se  Se5  1  0.76421901  0.25835100  0.21321096  1
  Se  Se6  1  0.23578101  0.23578100  0.78678898  1
  Se  Se7  1  0.23578102  0.74164899  0.78678896  1
  Se  Se8  1  0.74164901  0.23578100  0.78678896  1
  S  S9  1  0.26400101  0.26400100  0.20799698  1
  S  S10  1  0.73599902  0.73599899  0.79200294  1
  Se  Se11  1  0.25835102  0.76421899  0.21321096  1
  Se  Se12  1  0.76421902  0.76421899  0.21321094  1
