# generated using pymatgen
data_HoNiGe3
_symmetry_space_group_name_H-M   'P 1'
_cell_length_a   4.09779596
_cell_length_b   4.11585808
_cell_length_c   10.98558044
_cell_angle_alpha   79.20299530
_cell_angle_beta   90.00000000
_cell_angle_gamma   90.00000000
_symmetry_Int_Tables_number   1
_chemical_formula_structural   HoNiGe3
_chemical_formula_sum   'Ho2 Ni2 Ge6'
_cell_volume   182.00217070
_cell_formula_units_Z   2
loop_
 _symmetry_equiv_pos_site_id
 _symmetry_equiv_pos_as_xyz
  1  'x, y, z'
loop_
 _atom_site_type_symbol
 _atom_site_label
 _atom_site_symmetry_multiplicity
 _atom_site_fract_x
 _atom_site_fract_y
 _atom_site_fract_z
 _atom_site_occupancy
  Ho  Ho0  1  0.50000000  0.16885399  0.66229200  1
  Ho  Ho1  1  0.50000000  0.83114597  0.33770802  1
  Ni  Ni2  1  0.00000000  0.38987799  0.22024401  1
  Ni  Ni3  1  1.00000001  0.61012198  0.77975601  1
  Ge  Ge4  1  0.00000000  0.28352599  0.43294800  1
  Ge  Ge5  1  0.00000000  0.71647398  0.56705201  1
  Ge  Ge6  1  0.50000000  0.44263799  0.11472401  1
  Ge  Ge7  1  0.50000000  0.55736198  0.88527601  1
  Ge  Ge8  1  0.00000000  0.05748600  0.88502799  1
  Ge  Ge9  1  0.00000000  0.94251397  0.11497202  1
