# generated using pymatgen
data_Ho2CuGe5
_symmetry_space_group_name_H-M   'P 1'
_cell_length_a   3.98098397
_cell_length_b   4.07833815
_cell_length_c   8.92632389
_cell_angle_alpha   90.00000000
_cell_angle_beta   102.88478088
_cell_angle_gamma   90.00000000
_symmetry_Int_Tables_number   1
_chemical_formula_structural   Ho2CuGe5
_chemical_formula_sum   'Ho2 Cu1 Ge5'
_cell_volume   141.27682873
_cell_formula_units_Z   1
loop_
 _symmetry_equiv_pos_site_id
 _symmetry_equiv_pos_as_xyz
  1  'x, y, z'
loop_
 _atom_site_type_symbol
 _atom_site_label
 _atom_site_symmetry_multiplicity
 _atom_site_fract_x
 _atom_site_fract_y
 _atom_site_fract_z
 _atom_site_occupancy
  Ho  Ho0  1  0.61013700  0.24999999  0.22027398  1
  Ho  Ho1  1  0.38986300  0.74999997  0.77972599  1
  Cu  Cu2  1  0.96243400  0.24999999  0.92486797  1
  Ge  Ge3  1  0.03756600  0.74999997  0.07513200  1
  Ge  Ge4  1  0.24929700  0.24999999  0.49859399  1
  Ge  Ge5  1  0.75070300  0.74999997  0.50140598  1
  Ge  Ge6  1  0.82591600  0.24999999  0.65183198  1
  Ge  Ge7  1  0.17408400  0.74999997  0.34816799  1
