# generated using pymatgen
data_Zr5CuSn3
_symmetry_space_group_name_H-M   'P 1'
_cell_length_a   5.87661123
_cell_length_b   8.67877960
_cell_length_c   8.67877960
_cell_angle_alpha   120.00000000
_cell_angle_beta   90.00000000
_cell_angle_gamma   90.00000000
_symmetry_Int_Tables_number   1
_chemical_formula_structural   Zr5CuSn3
_chemical_formula_sum   'Zr10 Cu2 Sn6'
_cell_volume   383.33185589
_cell_formula_units_Z   2
loop_
 _symmetry_equiv_pos_site_id
 _symmetry_equiv_pos_as_xyz
  1  'x, y, z'
loop_
 _atom_site_type_symbol
 _atom_site_label
 _atom_site_symmetry_multiplicity
 _atom_site_fract_x
 _atom_site_fract_y
 _atom_site_fract_z
 _atom_site_occupancy
  Zr  Zr0  1  0.49999998  0.33333335  0.66666670  1
  Zr  Zr1  1  0.49999998  0.66666670  0.33333335  1
  Zr  Zr2  1  0.99999996  0.66666670  0.33333335  1
  Zr  Zr3  1  0.99999996  0.33333335  0.66666670  1
  Zr  Zr4  1  0.74999997  0.26578001  0.00000000  1
  Zr  Zr5  1  0.74999997  0.73422003  0.73422004  1
  Zr  Zr6  1  0.74999997  1.00000005  0.26578002  1
  Zr  Zr7  1  0.24999999  0.73422003  1.00000005  1
  Zr  Zr8  1  0.24999999  0.26578001  0.26578001  1
  Zr  Zr9  1  0.24999999  0.00000000  0.73422004  1
  Cu  Cu10  1  0.49999998  0.00000000  -0.00000000  1
  Cu  Cu11  1  0.00000000  0.00000000  0.00000000  1
  Sn  Sn12  1  0.74999997  0.61581503  1.00000005  1
  Sn  Sn13  1  0.74999997  0.38418502  0.38418502  1
  Sn  Sn14  1  0.74999997  0.00000000  0.61581503  1
  Sn  Sn15  1  0.24999999  0.38418502  1.00000005  1
  Sn  Sn16  1  0.24999999  0.61581503  0.61581503  1
  Sn  Sn17  1  0.24999999  1.00000005  0.38418502  1
