# generated using pymatgen
data_Sr2Eu2Cu4O11
_symmetry_space_group_name_H-M   'P 1'
_cell_length_a   3.93789291
_cell_length_b   3.93789291
_cell_length_c   16.03636932
_cell_angle_alpha   90.00000000
_cell_angle_beta   90.00000000
_cell_angle_gamma   90.00000000
_symmetry_Int_Tables_number   1
_chemical_formula_structural   Sr2Eu2Cu4O11
_chemical_formula_sum   'Sr2 Eu2 Cu4 O11'
_cell_volume   248.67598874
_cell_formula_units_Z   1
loop_
 _symmetry_equiv_pos_site_id
 _symmetry_equiv_pos_as_xyz
  1  'x, y, z'
loop_
 _atom_site_type_symbol
 _atom_site_label
 _atom_site_symmetry_multiplicity
 _atom_site_fract_x
 _atom_site_fract_y
 _atom_site_fract_z
 _atom_site_occupancy
  Sr  Sr0  1  0.50000001  0.50000001  0.23374701  1
  Sr  Sr1  1  0.50000001  0.50000001  0.76625303  1
  Eu  Eu2  1  0.50000001  0.50000001  0.00000000  1
  Eu  Eu3  1  0.50000001  0.50000001  0.50000002  1
  Cu  Cu4  1  0.00000000  0.00000000  0.62563103  1
  Cu  Cu5  1  0.00000000  0.00000000  0.37436902  1
  Cu  Cu6  1  0.00000000  0.00000000  0.10650200  1
  Cu  Cu7  1  0.00000000  0.00000000  0.89349804  1
  O  O8  1  0.50000001  0.00000000  0.61254803  1
  O  O9  1  0.00000000  0.50000001  0.61254803  1
  O  O10  1  0.50000001  0.00000000  0.90434704  1
  O  O11  1  0.00000000  0.50000001  0.09565300  1
  O  O12  1  0.50000001  0.00000000  0.09565300  1
  O  O13  1  0.00000000  0.50000001  0.38745202  1
  O  O14  1  0.00000000  0.00000000  0.25818801  1
  O  O15  1  0.00000000  0.00000000  0.74181203  1
  O  O16  1  0.00000000  0.00000000  0.50000002  1
  O  O17  1  0.50000001  0.00000000  0.38745202  1
  O  O18  1  0.00000000  0.50000001  0.90434704  1
