# generated using pymatgen
data_LiInSn
_symmetry_space_group_name_H-M   'P 1'
_cell_length_a   4.69534206
_cell_length_b   4.69534159
_cell_length_c   7.36652994
_cell_angle_alpha   90.00000000
_cell_angle_beta   90.00000000
_cell_angle_gamma   120.00000000
_symmetry_Int_Tables_number   1
_chemical_formula_structural   LiInSn
_chemical_formula_sum   'Li2 In2 Sn2'
_cell_volume   140.64620547
_cell_formula_units_Z   2
loop_
 _symmetry_equiv_pos_site_id
 _symmetry_equiv_pos_as_xyz
  1  'x, y, z'
loop_
 _atom_site_type_symbol
 _atom_site_label
 _atom_site_symmetry_multiplicity
 _atom_site_fract_x
 _atom_site_fract_y
 _atom_site_fract_z
 _atom_site_occupancy
  Li  Li0  1  0.00000000  0.00000000  0.50000000  1
  Li  Li1  1  0.33333329  0.66666665  0.35005700  1
  In  In2  1  0.66666664  0.33333333  0.64994301  1
  In  In3  1  0.00000000  0.00000000  0.00000000  1
  Sn  Sn4  1  0.33333329  0.66666665  0.75215501  1
  Sn  Sn5  1  0.66666664  0.33333333  0.24784500  1
