# generated using pymatgen
data_Mg3Zr2Al3
_symmetry_space_group_name_H-M   'P 1'
_cell_length_a   5.78037834
_cell_length_b   8.53577042
_cell_length_c   8.53577042
_cell_angle_alpha   119.28504944
_cell_angle_beta   89.96186829
_cell_angle_gamma   89.96187592
_symmetry_Int_Tables_number   1
_chemical_formula_structural   Mg3Zr2Al3
_chemical_formula_sum   'Mg6 Zr4 Al6'
_cell_volume   367.32957689
_cell_formula_units_Z   2
loop_
 _symmetry_equiv_pos_site_id
 _symmetry_equiv_pos_as_xyz
  1  'x, y, z'
loop_
 _atom_site_type_symbol
 _atom_site_label
 _atom_site_symmetry_multiplicity
 _atom_site_fract_x
 _atom_site_fract_y
 _atom_site_fract_z
 _atom_site_occupancy
  Zr  Zr0  1  0.24980100  0.23847801  0.00165401  1
  Zr  Zr1  1  0.24980100  0.00165300  0.23847699  1
  Zr  Zr2  1  0.75014899  0.24263501  0.24263500  1
  Mg  Mg3  1  0.75020999  0.76614804  0.00084504  1
  Zr  Zr4  1  0.75020999  0.00084500  0.76614798  1
  Mg  Mg5  1  0.50007200  0.66654004  0.33082003  1
  Mg  Mg6  1  0.50007200  0.33082002  0.66654001  1
  Mg  Mg7  1  0.99986599  0.33071202  0.66647899  1
  Mg  Mg8  1  0.99986599  0.66647904  0.33071202  1
  Mg  Mg9  1  0.24978800  0.75022104  0.75022104  1
  Al  Al10  1  0.24994100  0.40500102  0.40500102  1
  Al  Al11  1  0.25003400  0.60411603  0.99303303  1
  Al  Al12  1  0.25003400  0.99303305  0.60411606  1
  Al  Al13  1  0.75013299  0.60243703  0.60243702  1
  Al  Al14  1  0.75001099  0.40122902  0.99965400  1
  Al  Al15  1  0.75001099  0.99965405  0.40122905  1
