# generated using pymatgen
data_Sr3FeN3
_symmetry_space_group_name_H-M   'P 1'
_cell_length_a   5.42781687
_cell_length_b   7.83008385
_cell_length_c   7.83008337
_cell_angle_alpha   120.00000000
_cell_angle_beta   90.00000000
_cell_angle_gamma   90.00000000
_symmetry_Int_Tables_number   1
_chemical_formula_structural   Sr3FeN3
_chemical_formula_sum   'Sr6 Fe2 N6'
_cell_volume   288.19644336
_cell_formula_units_Z   2
loop_
 _symmetry_equiv_pos_site_id
 _symmetry_equiv_pos_as_xyz
  1  'x, y, z'
loop_
 _atom_site_type_symbol
 _atom_site_label
 _atom_site_symmetry_multiplicity
 _atom_site_fract_x
 _atom_site_fract_y
 _atom_site_fract_z
 _atom_site_occupancy
  Sr  Sr0  1  0.75000002  0.09776900  0.74234400  1
  Sr  Sr1  1  0.75000002  0.25765500  0.35542399  1
  Sr  Sr2  1  0.75000002  0.64457500  0.90222998  1
  Sr  Sr3  1  0.25000001  0.90223100  0.25765596  1
  Sr  Sr4  1  0.25000001  0.74234500  0.64457597  1
  Sr  Sr5  1  0.25000001  0.35542500  0.09776998  1
  Fe  Fe6  1  0.25000001  0.33333333  0.66666666  1
  Fe  Fe7  1  0.75000002  0.66666666  0.33333330  1
  N  N8  1  0.25000001  0.10803300  0.68674500  1
  N  N9  1  0.25000001  0.31325500  0.42128799  1
  N  N10  1  0.25000001  0.57871200  0.89196698  1
  N  N11  1  0.75000002  0.89196700  0.31325496  1
  N  N12  1  0.75000002  0.68674500  0.57871197  1
  N  N13  1  0.75000002  0.42128800  0.10803298  1
