# generated using pymatgen
data_Li5UFeRu3O10
_symmetry_space_group_name_H-M   'P 1'
_cell_length_a   5.30501795
_cell_length_b   5.30913067
_cell_length_c   7.99251842
_cell_angle_alpha   108.35278320
_cell_angle_beta   104.15507507
_cell_angle_gamma   98.89508057
_symmetry_Int_Tables_number   1
_chemical_formula_structural   Li5UFeRu3O10
_chemical_formula_sum   'Li5 U1 Fe1 Ru3 O10'
_cell_volume   200.50351214
_cell_formula_units_Z   1
loop_
 _symmetry_equiv_pos_site_id
 _symmetry_equiv_pos_as_xyz
  1  'x, y, z'
loop_
 _atom_site_type_symbol
 _atom_site_label
 _atom_site_symmetry_multiplicity
 _atom_site_fract_x
 _atom_site_fract_y
 _atom_site_fract_z
 _atom_site_occupancy
  Li  Li0  1  0.09944599  0.20045601  0.69957501  1
  Li  Li1  1  0.59944299  0.20045901  0.19957600  1
  Li  Li2  1  0.50642400  0.00630000  0.49924100  1
  Li  Li3  1  0.00641600  0.00630200  0.99925301  1
  U  U4  1  0.19230798  0.39475501  0.39976801  1
  Li  Li5  1  0.69229798  0.39476201  0.89977901  1
  Fe  Fe6  1  0.40361297  0.79920803  0.79782203  1
  Ru  Ru7  1  0.79544697  0.60178802  0.60122702  1
  Ru  Ru8  1  0.90364696  0.79921903  0.29780902  1
  Ru  Ru9  1  0.29535897  0.60176602  0.10122502  1
  O  O10  1  0.84946799  0.20041301  0.44954600  1
  O  O11  1  0.34948099  0.20041101  0.94956201  1
  O  O12  1  0.15894997  0.80232503  0.54687203  1
  O  O13  1  0.65892296  0.80228903  0.04695102  1
  O  O14  1  0.03996098  0.59868002  0.85223303  1
  O  O15  1  0.53999497  0.59872602  0.35216202  1
  O  O16  1  0.76064700  0.01581400  0.75106600  1
  O  O17  1  0.26070400  0.01582700  0.25109800  1
  O  O18  1  0.93805898  0.38530201  0.14793701  1
  O  O19  1  0.43811198  0.38531701  0.64797001  1
