# generated using pymatgen
data_Li2Ti3FeO5
_symmetry_space_group_name_H-M   'P 1'
_cell_length_a   3.35838461
_cell_length_b   3.35838461
_cell_length_c   13.87383747
_cell_angle_alpha   83.04827881
_cell_angle_beta   83.04827881
_cell_angle_gamma   59.99998856
_symmetry_Int_Tables_number   1
_chemical_formula_structural   Li2Ti3FeO5
_chemical_formula_sum   'Li2 Ti3 Fe1 O5'
_cell_volume   134.18524561
_cell_formula_units_Z   1
loop_
 _symmetry_equiv_pos_site_id
 _symmetry_equiv_pos_as_xyz
  1  'x, y, z'
loop_
 _atom_site_type_symbol
 _atom_site_label
 _atom_site_symmetry_multiplicity
 _atom_site_fract_x
 _atom_site_fract_y
 _atom_site_fract_z
 _atom_site_occupancy
  Li  Li0  1  0.86633097  0.86633099  0.40100702  1
  Li  Li1  1  0.13366899  0.13366900  0.59899301  1
  Ti  Ti2  1  0.31047299  0.31047300  0.06858101  1
  Ti  Ti3  1  0.41105398  0.41105399  0.76683802  1
  Ti  Ti4  1  0.58894598  0.58894599  0.23316201  1
  Fe  Fe5  1  0.68952697  0.68952699  0.93141902  1
  O  O6  1  0.23383999  0.23384000  0.29848001  1
  O  O7  1  0.36369099  0.36369100  0.90892702  1
  O  O8  1  0.49999998  0.49999999  0.50000001  1
  O  O9  1  0.63630898  0.63630899  0.09107301  1
  O  O10  1  0.76615997  0.76615999  0.70152002  1
