# generated using pymatgen
data_Na2S
_symmetry_space_group_name_H-M   'P 1'
_cell_length_a   3.55288005
_cell_length_b   3.55287981
_cell_length_c   15.11730766
_cell_angle_alpha   90.00000000
_cell_angle_beta   90.00000000
_cell_angle_gamma   120.00000000
_symmetry_Int_Tables_number   1
_chemical_formula_structural   Na2S
_chemical_formula_sum   'Na4 S2'
_cell_volume   165.25938978
_cell_formula_units_Z   2
loop_
 _symmetry_equiv_pos_site_id
 _symmetry_equiv_pos_as_xyz
  1  'x, y, z'
loop_
 _atom_site_type_symbol
 _atom_site_label
 _atom_site_symmetry_multiplicity
 _atom_site_fract_x
 _atom_site_fract_y
 _atom_site_fract_z
 _atom_site_occupancy
  Na  Na0  1  0.66666664  0.33333331  0.12940500  1
  Na  Na1  1  0.33333329  0.66666663  0.87059502  1
  Na  Na2  1  0.33333329  0.66666663  0.62940501  1
  Na  Na3  1  0.66666664  0.33333331  0.37059501  1
  S  S4  1  0.66666664  0.33333331  0.75000002  1
  S  S5  1  0.33333329  0.66666663  0.25000001  1
