# generated using pymatgen
data_Ba4Ta(RuO4)3
_symmetry_space_group_name_H-M   'P 1'
_cell_length_a   5.88540506
_cell_length_b   5.88540506
_cell_length_c   10.32082272
_cell_angle_alpha   73.43379974
_cell_angle_beta   73.43379974
_cell_angle_gamma   59.99998856
_symmetry_Int_Tables_number   1
_chemical_formula_structural   Ba4Ta(RuO4)3
_chemical_formula_sum   'Ba4 Ta1 Ru3 O12'
_cell_volume   292.33730246
_cell_formula_units_Z   1
loop_
 _symmetry_equiv_pos_site_id
 _symmetry_equiv_pos_as_xyz
  1  'x, y, z'
loop_
 _atom_site_type_symbol
 _atom_site_label
 _atom_site_symmetry_multiplicity
 _atom_site_fract_x
 _atom_site_fract_y
 _atom_site_fract_z
 _atom_site_occupancy
  Ba  Ba0  1  0.71335897  0.71335899  0.85992299  1
  Ba  Ba1  1  0.28664099  0.28664100  0.14007699  1
  Ba  Ba2  1  0.87152597  0.87152599  0.38542198  1
  Ba  Ba3  1  0.12847400  0.12847400  0.61457800  1
  Ta  Ta4  1  0.00000000  0.00000000  0.00000000  1
  Ru  Ru5  1  0.41258199  0.41258200  0.76225399  1
  Ru  Ru6  1  0.49999998  0.49999999  0.49999999  1
  Ru  Ru7  1  0.58741798  0.58741799  0.23774599  1
  O  O8  1  0.21104899  0.21104900  0.87691500  1
  O  O9  1  0.21104898  0.70098699  0.87691499  1
  O  O10  1  0.70098698  0.21104900  0.87691499  1
  O  O11  1  0.29901298  0.78895099  0.12308499  1
  O  O12  1  0.78895097  0.78895099  0.12308498  1
  O  O13  1  0.78895098  0.29901300  0.12308499  1
  O  O14  1  0.38807099  0.38807100  0.36934499  1
  O  O15  1  0.38807098  0.85451299  0.36934499  1
  O  O16  1  0.61192899  0.14548700  0.63065499  1
  O  O17  1  0.61192898  0.61192899  0.63065499  1
  O  O18  1  0.14548699  0.61192899  0.63065499  1
  O  O19  1  0.85451298  0.38807100  0.36934499  1
