# generated using pymatgen
data_Na4NiO3
_symmetry_space_group_name_H-M   'P 1'
_cell_length_a   5.72774410
_cell_length_b   6.31237030
_cell_length_c   8.12208748
_cell_angle_alpha   111.47490692
_cell_angle_beta   90.00000000
_cell_angle_gamma   116.98080444
_symmetry_Int_Tables_number   1
_chemical_formula_structural   Na4NiO3
_chemical_formula_sum   'Na8 Ni2 O6'
_cell_volume   238.59505155
_cell_formula_units_Z   2
loop_
 _symmetry_equiv_pos_site_id
 _symmetry_equiv_pos_as_xyz
  1  'x, y, z'
loop_
 _atom_site_type_symbol
 _atom_site_label
 _atom_site_symmetry_multiplicity
 _atom_site_fract_x
 _atom_site_fract_y
 _atom_site_fract_z
 _atom_site_occupancy
  Na  Na0  1  0.19510796  0.96091203  0.10088203  1
  Na  Na1  1  0.73650098  0.12845200  0.28951902  1
  Na  Na2  1  0.63088497  0.57234802  0.19518003  1
  Na  Na3  1  0.23016697  0.76815403  0.37981704  1
  Na  Na4  1  0.76580395  0.96091203  0.60088206  1
  Na  Na5  1  0.39195099  0.12845200  0.78951905  1
  Na  Na6  1  0.94146296  0.57234802  0.69518006  1
  Na  Na7  1  0.53798696  0.76815403  0.87981707  1
  Ni  Ni8  1  0.00824099  0.30776901  0.00247001  1
  Ni  Ni9  1  0.29952798  0.30776901  0.50247004  1
  O  O10  1  0.65242198  0.20607701  0.04528601  1
  O  O11  1  0.30979397  0.63355102  0.08497702  1
  O  O12  1  0.99534394  0.97097703  0.36001005  1
  O  O13  1  0.55365498  0.20607701  0.54528604  1
  O  O14  1  0.32375697  0.63355102  0.58497705  1
  O  O15  1  0.97563295  0.97097703  0.86001008  1
