# generated using pymatgen
data_LiSb2
_symmetry_space_group_name_H-M   'P 1'
_cell_length_a   5.57118177
_cell_length_b   5.57118177
_cell_length_c   5.57118177
_cell_angle_alpha   105.67193604
_cell_angle_beta   105.67193604
_cell_angle_gamma   117.37046814
_symmetry_Int_Tables_number   1
_chemical_formula_structural   LiSb2
_chemical_formula_sum   'Li2 Sb4'
_cell_volume   131.19090248
_cell_formula_units_Z   2
loop_
 _symmetry_equiv_pos_site_id
 _symmetry_equiv_pos_as_xyz
  1  'x, y, z'
loop_
 _atom_site_type_symbol
 _atom_site_label
 _atom_site_symmetry_multiplicity
 _atom_site_fract_x
 _atom_site_fract_y
 _atom_site_fract_z
 _atom_site_occupancy
  Li  Li0  1  0.24999996  0.24999998  0.99999995  1
  Li  Li1  1  0.74999989  0.74999993  0.99999988  1
  Sb  Sb2  1  0.65271397  0.15271399  0.80542794  1
  Sb  Sb3  1  0.15271396  0.34728497  0.49999995  1
  Sb  Sb4  1  0.34728589  0.84728592  0.19457190  1
  Sb  Sb5  1  0.84728590  0.65271494  0.49999989  1
