# generated using pymatgen
data_Ta4As3C
_symmetry_space_group_name_H-M   'P 1'
_cell_length_a   3.38010406
_cell_length_b   3.38010311
_cell_length_c   12.07044411
_cell_angle_alpha   90.00000000
_cell_angle_beta   90.00000000
_cell_angle_gamma   120.00000763
_symmetry_Int_Tables_number   1
_chemical_formula_structural   Ta4As3C
_chemical_formula_sum   'Ta4 As3 C1'
_cell_volume   119.43011976
_cell_formula_units_Z   1
loop_
 _symmetry_equiv_pos_site_id
 _symmetry_equiv_pos_as_xyz
  1  'x, y, z'
loop_
 _atom_site_type_symbol
 _atom_site_label
 _atom_site_symmetry_multiplicity
 _atom_site_fract_x
 _atom_site_fract_y
 _atom_site_fract_z
 _atom_site_occupancy
  Ta  Ta0  1  0.66666665  0.33333334  0.59995399  1
  Ta  Ta1  1  0.33333332  0.66666668  0.09995400  1
  Ta  Ta2  1  0.33333332  0.66666668  0.40004600  1
  Ta  Ta3  1  0.66666665  0.33333334  0.90004599  1
  C  C4  1  0.00000000  0.00000000  0.50000000  1
  As  As5  1  0.00000000  0.00000000  0.00000000  1
  As  As6  1  0.33333332  0.66666668  0.74999999  1
  As  As7  1  0.66666665  0.33333334  0.25000000  1
