# generated using pymatgen
data_BaAlP
_symmetry_space_group_name_H-M   'P 1'
_cell_length_a   4.18642378
_cell_length_b   4.18642426
_cell_length_c   5.05031300
_cell_angle_alpha   90.00000000
_cell_angle_beta   90.00000000
_cell_angle_gamma   120.00000000
_symmetry_Int_Tables_number   1
_chemical_formula_structural   BaAlP
_chemical_formula_sum   'Ba1 Al1 P1'
_cell_volume   76.65409361
_cell_formula_units_Z   1
loop_
 _symmetry_equiv_pos_site_id
 _symmetry_equiv_pos_as_xyz
  1  'x, y, z'
loop_
 _atom_site_type_symbol
 _atom_site_label
 _atom_site_symmetry_multiplicity
 _atom_site_fract_x
 _atom_site_fract_y
 _atom_site_fract_z
 _atom_site_occupancy
  Ba  Ba0  1  0.00000000  0.00000000  0.00000000  1
  Al  Al1  1  0.33333339  0.66666671  0.50000000  1
  P  P2  1  0.66666672  0.33333336  0.50000000  1
