# generated using pymatgen
data_ScV2O8
_symmetry_space_group_name_H-M   'P 1'
_cell_length_a   6.05484009
_cell_length_b   6.05484056
_cell_length_c   6.27779293
_cell_angle_alpha   90.00000000
_cell_angle_beta   90.00000000
_cell_angle_gamma   120.00000000
_symmetry_Int_Tables_number   1
_chemical_formula_structural   ScV2O8
_chemical_formula_sum   'Sc1 V2 O8'
_cell_volume   199.31638778
_cell_formula_units_Z   1
loop_
 _symmetry_equiv_pos_site_id
 _symmetry_equiv_pos_as_xyz
  1  'x, y, z'
loop_
 _atom_site_type_symbol
 _atom_site_label
 _atom_site_symmetry_multiplicity
 _atom_site_fract_x
 _atom_site_fract_y
 _atom_site_fract_z
 _atom_site_occupancy
  Sc  Sc0  1  0.00000000  0.00000000  0.00000000  1
  V  V1  1  0.33333338  0.66666670  0.29698000  1
  V  V2  1  0.66666668  0.33333335  0.70302001  1
  O  O3  1  0.65293105  0.86339304  0.20243200  1
  O  O4  1  0.78953803  0.65293103  0.79756801  1
  O  O5  1  0.86339300  0.21046201  0.79756801  1
  O  O6  1  0.33333338  0.66666670  0.57497301  1
  O  O7  1  0.66666668  0.33333335  0.42502700  1
  O  O8  1  0.13660705  0.78953804  0.20243200  1
  O  O9  1  0.21046202  0.34706902  0.20243200  1
  O  O10  1  0.34706900  0.13660701  0.79756801  1
