# generated using pymatgen
data_ErMg2
_symmetry_space_group_name_H-M   'P 1'
_cell_length_a   3.23392606
_cell_length_b   5.59134722
_cell_length_c   8.59133720
_cell_angle_alpha   90.00000000
_cell_angle_beta   100.84825134
_cell_angle_gamma   90.00000000
_symmetry_Int_Tables_number   1
_chemical_formula_structural   ErMg2
_chemical_formula_sum   'Er2 Mg4'
_cell_volume   152.57237003
_cell_formula_units_Z   2
loop_
 _symmetry_equiv_pos_site_id
 _symmetry_equiv_pos_as_xyz
  1  'x, y, z'
loop_
 _atom_site_type_symbol
 _atom_site_label
 _atom_site_symmetry_multiplicity
 _atom_site_fract_x
 _atom_site_fract_y
 _atom_site_fract_z
 _atom_site_occupancy
  Er  Er0  1  0.61012098  0.24999999  0.22024198  1
  Er  Er1  1  0.38987899  0.74999997  0.77975797  1
  Mg  Mg2  1  0.27589099  0.24999999  0.55178198  1
  Mg  Mg3  1  0.94586197  0.24999999  0.89172396  1
  Mg  Mg4  1  0.72410898  0.74999997  0.44821797  1
  Mg  Mg5  1  0.05413800  0.74999997  0.10827600  1
