# generated using pymatgen
data_Mg6ScIn
_symmetry_space_group_name_H-M   'P 1'
_cell_length_a   5.20310783
_cell_length_b   6.77124786
_cell_length_c   6.77124834
_cell_angle_alpha   60.00000000
_cell_angle_beta   90.00000000
_cell_angle_gamma   90.00000000
_symmetry_Int_Tables_number   1
_chemical_formula_structural   Mg6ScIn
_chemical_formula_sum   'Mg6 Sc1 In1'
_cell_volume   206.60028303
_cell_formula_units_Z   1
loop_
 _symmetry_equiv_pos_site_id
 _symmetry_equiv_pos_as_xyz
  1  'x, y, z'
loop_
 _atom_site_type_symbol
 _atom_site_label
 _atom_site_symmetry_multiplicity
 _atom_site_fract_x
 _atom_site_fract_y
 _atom_site_fract_z
 _atom_site_occupancy
  Mg  Mg0  1  0.75000002  0.66666669  0.66666664  1
  Mg  Mg1  1  0.25000001  0.33333334  0.33333332  1
  Mg  Mg2  1  0.75000002  0.67614502  0.16192698  1
  Mg  Mg3  1  0.75000002  0.16192800  0.67614398  1
  Mg  Mg4  1  0.75000002  0.16192800  0.16192699  1
  Mg  Mg5  1  0.25000001  0.83807202  0.83807297  1
  Sc  Sc6  1  0.25000001  0.83807202  0.32385598  1
  In  In7  1  0.25000001  0.32385501  0.83807298  1
