# generated using pymatgen
data_TiCoSi
_symmetry_space_group_name_H-M   'P 1'
_cell_length_a   6.25932217
_cell_length_b   7.12129116
_cell_length_c   6.94084406
_cell_angle_alpha   119.16526794
_cell_angle_beta   90.00000000
_cell_angle_gamma   116.07067108
_symmetry_Int_Tables_number   1
_chemical_formula_structural   TiCoSi
_chemical_formula_sum   'Ti6 Co6 Si6'
_cell_volume   233.45030421
_cell_formula_units_Z   6
loop_
 _symmetry_equiv_pos_site_id
 _symmetry_equiv_pos_as_xyz
  1  'x, y, z'
loop_
 _atom_site_type_symbol
 _atom_site_label
 _atom_site_symmetry_multiplicity
 _atom_site_fract_x
 _atom_site_fract_y
 _atom_site_fract_z
 _atom_site_occupancy
  Ti  Ti0  1  0.08728400  0.00672100  0.75336099  1
  Ti  Ti1  1  0.50865797  0.54711297  0.02355597  1
  Ti  Ti2  1  0.96154396  0.45288598  0.97644296  1
  Ti  Ti3  1  0.50477396  0.60830597  0.55415296  1
  Ti  Ti4  1  0.08056396  0.99327995  0.24663994  1
  Ti  Ti5  1  0.89646796  0.39169298  0.44584597  1
  Co  Co6  1  0.74867994  0.99999995  0.49999994  1
  Co  Co7  1  0.74867994  0.99999995  -0.00000006  1
  Co  Co8  1  0.50225598  0.24669899  0.15702698  1
  Co  Co9  1  0.25555697  0.75330096  0.41032795  1
  Co  Co10  1  0.50225698  0.24669999  0.58967298  1
  Co  Co11  1  0.25555797  0.75330196  0.84297395  1
  Si  Si12  1  0.46270295  0.93957395  0.21978694  1
  Si  Si13  1  0.83745295  0.66506196  0.82410995  1
  Si  Si14  1  0.83745295  0.66506196  0.34095096  1
  Si  Si15  1  0.17238998  0.33493698  0.65904797  1
  Si  Si16  1  0.52312898  0.06042500  0.78021199  1
  Si  Si17  1  0.17238998  0.33493698  0.17588898  1
