# generated using pymatgen
data_CdCu3O8
_symmetry_space_group_name_H-M   'P 1'
_cell_length_a   3.68022203
_cell_length_b   4.00179291
_cell_length_c   9.88852501
_cell_angle_alpha   90.00000000
_cell_angle_beta   90.00000000
_cell_angle_gamma   90.00000000
_symmetry_Int_Tables_number   1
_chemical_formula_structural   CdCu3O8
_chemical_formula_sum   'Cd1 Cu3 O8'
_cell_volume   145.63311795
_cell_formula_units_Z   1
loop_
 _symmetry_equiv_pos_site_id
 _symmetry_equiv_pos_as_xyz
  1  'x, y, z'
loop_
 _atom_site_type_symbol
 _atom_site_label
 _atom_site_symmetry_multiplicity
 _atom_site_fract_x
 _atom_site_fract_y
 _atom_site_fract_z
 _atom_site_occupancy
  Cu  Cu0  1  0.30362300  0.00000000  -0.00000000  1
  Cd  Cd1  1  0.69637699  0.50000001  0.50000000  1
  Cu  Cu2  1  0.16788200  0.00000000  0.33490300  1
  Cu  Cu3  1  0.16788200  0.00000000  0.66509700  1
  O  O4  1  0.83211799  0.50000001  0.83490300  1
  O  O5  1  0.83211799  0.50000001  0.16509700  1
  O  O6  1  0.43940500  0.00000000  0.50000000  1
  O  O7  1  0.87633399  0.00000000  0.82657000  1
  O  O8  1  0.87633399  0.00000000  0.17343000  1
  O  O9  1  0.56059499  0.50000001  -0.00000000  1
  O  O10  1  0.12366600  0.50000001  0.32657000  1
  O  O11  1  0.12366600  0.50000001  0.67343000  1
