# generated using pymatgen
data_Cr4MoS8
_symmetry_space_group_name_H-M   'P 1'
_cell_length_a   6.58370590
_cell_length_b   6.58370590
_cell_length_c   6.78084517
_cell_angle_alpha   105.14960480
_cell_angle_beta   105.02866364
_cell_angle_gamma   117.63049316
_symmetry_Int_Tables_number   1
_chemical_formula_structural   Cr4MoS8
_chemical_formula_sum   'Cr4 Mo1 S8'
_cell_volume   225.09660825
_cell_formula_units_Z   1
loop_
 _symmetry_equiv_pos_site_id
 _symmetry_equiv_pos_as_xyz
  1  'x, y, z'
loop_
 _atom_site_type_symbol
 _atom_site_label
 _atom_site_symmetry_multiplicity
 _atom_site_fract_x
 _atom_site_fract_y
 _atom_site_fract_z
 _atom_site_occupancy
  Cr  Cr0  1  0.74117201  0.25267301  0.99384498  1
  Cr  Cr1  1  0.25882804  0.74732702  0.00615498  1
  Cr  Cr2  1  0.25744204  0.75744202  0.49999998  1
  Cr  Cr3  1  0.74255801  0.24255801  0.49999998  1
  Mo  Mo4  1  0.00000000  0.00000000  0.00000000  1
  S  S5  1  0.03947902  0.28848501  0.32796400  1
  S  S6  1  0.96052104  0.71151502  0.67203597  1
  S  S7  1  0.54737604  0.78839702  0.33577298  1
  S  S8  1  0.45262401  0.21160301  0.66422699  1
  S  S9  1  0.44752401  0.20775001  0.16471899  1
  S  S10  1  0.95696904  0.71719502  0.16471897  1
  S  S11  1  0.55247604  0.79225002  0.83528098  1
  S  S12  1  0.04303102  0.28280501  0.83528100  1
