# generated using pymatgen
data_U3Ge4C3
_symmetry_space_group_name_H-M   'P 1'
_cell_length_a   3.94157004
_cell_length_b   3.94157028
_cell_length_c   12.11473560
_cell_angle_alpha   90.00000000
_cell_angle_beta   90.00000000
_cell_angle_gamma   120.00000000
_symmetry_Int_Tables_number   1
_chemical_formula_structural   U3Ge4C3
_chemical_formula_sum   'U3 Ge4 C3'
_cell_volume   162.99830772
_cell_formula_units_Z   1
loop_
 _symmetry_equiv_pos_site_id
 _symmetry_equiv_pos_as_xyz
  1  'x, y, z'
loop_
 _atom_site_type_symbol
 _atom_site_label
 _atom_site_symmetry_multiplicity
 _atom_site_fract_x
 _atom_site_fract_y
 _atom_site_fract_z
 _atom_site_occupancy
  U  U0  1  0.66666667  0.33333333  0.43477701  1
  U  U1  1  0.33333335  0.66666667  0.93477703  1
  U  U2  1  0.33333335  0.66666667  0.56522302  1
  Ge  Ge3  1  0.66666667  0.33333333  0.06522300  1
  Ge  Ge4  1  0.00000000  0.00000000  0.75000002  1
  Ge  Ge5  1  0.00000000  0.00000000  0.25000001  1
  C  C6  1  0.66666667  0.33333333  0.63717402  1
  Ge  Ge7  1  0.33333335  0.66666667  0.13717400  1
  C  C8  1  0.33333335  0.66666667  0.36282601  1
  C  C9  1  0.66666667  0.33333333  0.86282603  1
