# generated using pymatgen
data_Li3Mn2O5
_symmetry_space_group_name_H-M   'P 1'
_cell_length_a   3.02533388
_cell_length_b   6.68333149
_cell_length_c   10.01424503
_cell_angle_alpha   101.18607330
_cell_angle_beta   90.00000000
_cell_angle_gamma   103.08135223
_symmetry_Int_Tables_number   1
_chemical_formula_structural   Li3Mn2O5
_chemical_formula_sum   'Li6 Mn4 O10'
_cell_volume   193.27545123
_cell_formula_units_Z   2
loop_
 _symmetry_equiv_pos_site_id
 _symmetry_equiv_pos_as_xyz
  1  'x, y, z'
loop_
 _atom_site_type_symbol
 _atom_site_label
 _atom_site_symmetry_multiplicity
 _atom_site_fract_x
 _atom_site_fract_y
 _atom_site_fract_z
 _atom_site_occupancy
  Li  Li0  1  0.00000000  0.00000000  0.00000000  1
  Li  Li1  1  0.39899406  0.79798801  0.19843200  1
  Li  Li2  1  0.30075105  0.60150201  0.90020302  1
  Li  Li3  1  0.90212808  0.80425601  0.70079701  1
  Li  Li4  1  0.69924905  0.39849800  0.09979700  1
  Li  Li5  1  0.80228007  0.60456001  0.39986801  1
  Mn  Mn6  1  0.09787202  0.19574400  0.29920301  1
  Mn  Mn7  1  0.19772003  0.39544000  0.60013201  1
  Mn  Mn8  1  0.60100603  0.20201200  0.80156802  1
  Mn  Mn9  1  0.50000008  1.00000001  0.50000001  1
  O  O10  1  0.54958003  0.09916000  0.14985500  1
  O  O11  1  0.45042007  0.90084001  0.85014502  1
  O  O12  1  0.94698209  0.89396401  0.34209901  1
  O  O13  1  0.05301801  0.10603600  0.65790101  1
  O  O14  1  0.84950007  0.69900001  0.04953400  1
  O  O15  1  0.35084805  0.70169601  0.54987501  1
  O  O16  1  0.24881704  0.49763401  0.25153700  1
  O  O17  1  0.15050002  0.30100000  0.95046602  1
  O  O18  1  0.75118306  0.50236601  0.74846301  1
  O  O19  1  0.64915204  0.29830400  0.45012501  1
