# generated using pymatgen
data_Mg5Ga
_symmetry_space_group_name_H-M   'P 1'
_cell_length_a   5.41339207
_cell_length_b   5.41339207
_cell_length_c   5.90238333
_cell_angle_alpha   62.70468903
_cell_angle_beta   62.70468903
_cell_angle_gamma   60.00000000
_symmetry_Int_Tables_number   1
_chemical_formula_structural   Mg5Ga
_chemical_formula_sum   'Mg5 Ga1'
_cell_volume   127.07072805
_cell_formula_units_Z   1
loop_
 _symmetry_equiv_pos_site_id
 _symmetry_equiv_pos_as_xyz
  1  'x, y, z'
loop_
 _atom_site_type_symbol
 _atom_site_label
 _atom_site_symmetry_multiplicity
 _atom_site_fract_x
 _atom_site_fract_y
 _atom_site_fract_z
 _atom_site_occupancy
  Mg  Mg0  1  0.34029298  0.65970699  0.00000000  1
  Mg  Mg1  1  0.65970697  0.99999998  0.00000000  1
  Mg  Mg2  1  -0.00000000  0.34029299  0.00000000  1
  Mg  Mg3  1  0.16578099  0.16578100  0.50265701  1
  Mg  Mg4  1  0.83421897  0.83421899  0.49734301  1
  Ga  Ga5  1  0.49999998  0.49999999  0.50000001  1
