# generated using pymatgen
data_Mn5MoO12
_symmetry_space_group_name_H-M   'P 1'
_cell_length_a   5.79605246
_cell_length_b   5.79605246
_cell_length_c   7.31584930
_cell_angle_alpha   74.15261841
_cell_angle_beta   74.15261841
_cell_angle_gamma   74.14563751
_symmetry_Int_Tables_number   1
_chemical_formula_structural   Mn5MoO12
_chemical_formula_sum   'Mn5 Mo1 O12'
_cell_volume   222.14274547
_cell_formula_units_Z   1
loop_
 _symmetry_equiv_pos_site_id
 _symmetry_equiv_pos_as_xyz
  1  'x, y, z'
loop_
 _atom_site_type_symbol
 _atom_site_label
 _atom_site_symmetry_multiplicity
 _atom_site_fract_x
 _atom_site_fract_y
 _atom_site_fract_z
 _atom_site_occupancy
  Mn  Mn0  1  0.67079598  0.67079600  0.83647792  1
  Mn  Mn1  1  0.33333332  0.33333333  0.66666662  1
  Mn  Mn2  1  0.64567098  0.64567100  0.32089694  1
  Mn  Mn3  1  0.33333332  0.33333333  0.16666697  1
  Mn  Mn4  1  0.99586997  0.99587000  0.49685590  1
  Mo  Mo5  1  0.02099600  0.02099600  0.01243700  1
  O  O6  1  0.25157099  0.25157100  0.95031895  1
  O  O7  1  0.41509599  0.41509600  0.38301395  1
  O  O8  1  0.03582298  0.63084400  0.66666662  1
  O  O9  1  0.35730297  0.97907000  0.31734194  1
  O  O10  1  0.88062697  0.88062700  0.30894992  1
  O  O11  1  0.55979998  0.55980000  0.64132294  1
  O  O12  1  0.78603997  0.78604000  0.02438293  1
  O  O13  1  0.10686600  0.10686600  0.69200997  1
  O  O14  1  0.97906998  0.35730300  0.31734193  1
  O  O15  1  0.63084399  0.03582300  0.66666662  1
  O  O16  1  0.30936398  0.68759600  0.01599196  1
  O  O17  1  0.68759599  0.30936400  0.01599196  1
