# generated using pymatgen
data_Li4V3F13
_symmetry_space_group_name_H-M   'P 1'
_cell_length_a   5.13396978
_cell_length_b   5.13397026
_cell_length_c   9.52792168
_cell_angle_alpha   90.00000000
_cell_angle_beta   90.00000000
_cell_angle_gamma   120.00000000
_symmetry_Int_Tables_number   1
_chemical_formula_structural   Li4V3F13
_chemical_formula_sum   'Li4 V3 F13'
_cell_volume   217.48808386
_cell_formula_units_Z   1
loop_
 _symmetry_equiv_pos_site_id
 _symmetry_equiv_pos_as_xyz
  1  'x, y, z'
loop_
 _atom_site_type_symbol
 _atom_site_label
 _atom_site_symmetry_multiplicity
 _atom_site_fract_x
 _atom_site_fract_y
 _atom_site_fract_z
 _atom_site_occupancy
  Li  Li0  1  0.33333339  0.66666672  0.53716602  1
  Li  Li1  1  0.33333339  0.66666672  0.25000001  1
  Li  Li2  1  0.66666672  0.33333336  0.75000003  1
  Li  Li3  1  0.66666672  0.33333336  0.46283402  1
  V  V4  1  0.66666672  0.33333336  0.03716600  1
  V  V5  1  0.33333339  0.66666672  0.96283403  1
  V  V6  1  0.00000000  0.00000000  0.50000002  1
  F  F7  1  0.00000000  0.00000000  0.00000000  1
  F  F8  1  0.69101507  0.66169605  0.60965402  1
  F  F9  1  0.66169707  0.69101605  0.10965400  1
  F  F10  1  0.66169709  0.97068207  0.39034601  1
  F  F11  1  0.69101503  0.02931800  0.89034603  1
  F  F12  1  0.30898503  0.33830403  0.39034601  1
  F  F13  1  0.33830303  0.30898402  0.89034603  1
  F  F14  1  0.02931902  0.33830403  0.10965400  1
  F  F15  1  0.97068106  0.30898402  0.60965402  1
  F  F16  1  0.30898507  0.97068207  0.10965400  1
  F  F17  1  0.33830302  0.02931800  0.60965402  1
  F  F18  1  0.97068108  0.66169605  0.89034603  1
  F  F19  1  0.02931904  0.69101605  0.39034601  1
