# generated using pymatgen
data_Y8Se7O5
_symmetry_space_group_name_H-M   'P 1'
_cell_length_a   3.81662607
_cell_length_b   9.22525501
_cell_length_c   14.17110920
_cell_angle_alpha   90.00000000
_cell_angle_beta   90.00000000
_cell_angle_gamma   90.00000000
_symmetry_Int_Tables_number   1
_chemical_formula_structural   Y8Se7O5
_chemical_formula_sum   'Y8 Se7 O5'
_cell_volume   498.95552670
_cell_formula_units_Z   1
loop_
 _symmetry_equiv_pos_site_id
 _symmetry_equiv_pos_as_xyz
  1  'x, y, z'
loop_
 _atom_site_type_symbol
 _atom_site_label
 _atom_site_symmetry_multiplicity
 _atom_site_fract_x
 _atom_site_fract_y
 _atom_site_fract_z
 _atom_site_occupancy
  Y  Y0  1  0.25000000  0.16577300  0.95126099  1
  Y  Y1  1  0.74999999  0.83422700  0.04873900  1
  Y  Y2  1  0.25000000  0.66577300  0.54873899  1
  Y  Y3  1  0.74999999  0.33422700  0.45126099  1
  Y  Y4  1  0.25000000  0.52280300  0.17260700  1
  Y  Y5  1  0.74999999  0.47719700  0.82739299  1
  Y  Y6  1  0.25000000  0.02280300  0.32739300  1
  Y  Y7  1  0.74999999  0.97719700  0.67260699  1
  Se  Se8  1  0.25000000  0.00944400  0.10469300  1
  Se  Se9  1  0.74999999  0.99055600  0.89530699  1
  Se  Se10  1  0.25000000  0.50944400  0.39530699  1
  Se  Se11  1  0.74999999  0.49055600  0.60469299  1
  Se  Se12  1  0.25000000  0.16903900  0.50964799  1
  Se  Se13  1  0.74999999  0.83096100  0.49035199  1
  Se  Se14  1  0.25000000  0.66903900  0.99035199  1
  O  O15  1  0.74999999  0.33096100  0.00964800  1
  O  O16  1  0.74999999  0.22739500  0.28643100  1
  O  O17  1  0.25000000  0.77260500  0.71356899  1
  O  O18  1  0.74999999  0.72739500  0.21356900  1
  O  O19  1  0.25000000  0.27260500  0.78643099  1
