# generated using pymatgen
data_CeMg
_symmetry_space_group_name_H-M   'P 1'
_cell_length_a   3.16166902
_cell_length_b   5.20093012
_cell_length_c   6.15708923
_cell_angle_alpha   90.00000000
_cell_angle_beta   90.00000000
_cell_angle_gamma   90.00000000
_symmetry_Int_Tables_number   1
_chemical_formula_structural   CeMg
_chemical_formula_sum   'Ce2 Mg2'
_cell_volume   101.24483326
_cell_formula_units_Z   2
loop_
 _symmetry_equiv_pos_site_id
 _symmetry_equiv_pos_as_xyz
  1  'x, y, z'
loop_
 _atom_site_type_symbol
 _atom_site_label
 _atom_site_symmetry_multiplicity
 _atom_site_fract_x
 _atom_site_fract_y
 _atom_site_fract_z
 _atom_site_occupancy
  Ce  Ce0  1  -0.00000000  0.74999998  0.88515697  1
  Ce  Ce1  1  0.00000000  0.24999999  0.11484300  1
  Mg  Mg2  1  0.50000000  0.74999998  0.36847599  1
  Mg  Mg3  1  0.50000000  0.24999999  0.63152398  1
