# generated using pymatgen
data_Pr3ClO4
_symmetry_space_group_name_H-M   'P 1'
_cell_length_a   3.99088073
_cell_length_b   3.99088073
_cell_length_c   13.35272217
_cell_angle_alpha   81.40548706
_cell_angle_beta   81.40548706
_cell_angle_gamma   59.99998856
_symmetry_Int_Tables_number   1
_chemical_formula_structural   Pr3ClO4
_chemical_formula_sum   'Pr3 Cl1 O4'
_cell_volume   181.41523141
_cell_formula_units_Z   1
loop_
 _symmetry_equiv_pos_site_id
 _symmetry_equiv_pos_as_xyz
  1  'x, y, z'
loop_
 _atom_site_type_symbol
 _atom_site_label
 _atom_site_symmetry_multiplicity
 _atom_site_fract_x
 _atom_site_fract_y
 _atom_site_fract_z
 _atom_site_occupancy
  Pr  Pr0  1  0.00000000  0.00000000  0.00000000  1
  Pr  Pr1  1  0.24920601  0.24920600  0.25238201  1
  Pr  Pr2  1  0.50000001  0.50000000  0.50000001  1
  Cl  Cl3  1  0.75079402  0.75079400  0.74761802  1
  O  O4  1  0.37398101  0.37398100  0.87805703  1
  O  O5  1  0.12475200  0.12475200  0.62574402  1
  O  O6  1  0.62601902  0.62601900  0.12194300  1
  O  O7  1  0.87524802  0.87524800  0.37425601  1
