# generated using pymatgen
data_Ho3Ga9Pd2
_symmetry_space_group_name_H-M   'P 1'
_cell_length_a   4.25355196
_cell_length_b   8.19875622
_cell_length_c   8.19875622
_cell_angle_alpha   73.81700897
_cell_angle_beta   74.96540070
_cell_angle_gamma   74.96540070
_symmetry_Int_Tables_number   1
_chemical_formula_structural   Ho3Ga9Pd2
_chemical_formula_sum   'Ho3 Ga9 Pd2'
_cell_volume   259.74126126
_cell_formula_units_Z   1
loop_
 _symmetry_equiv_pos_site_id
 _symmetry_equiv_pos_as_xyz
  1  'x, y, z'
loop_
 _atom_site_type_symbol
 _atom_site_label
 _atom_site_symmetry_multiplicity
 _atom_site_fract_x
 _atom_site_fract_y
 _atom_site_fract_z
 _atom_site_occupancy
  Ho  Ho0  1  0.00000000  0.00000000  0.00000000  1
  Ho  Ho1  1  0.30834199  0.69165798  0.69165798  1
  Ho  Ho2  1  0.69165800  0.30834199  0.30834199  1
  Ga  Ga3  1  -0.00000001  0.49999998  0.49999999  1
  Ga  Ga4  1  0.34201900  0.28740699  0.02855600  1
  Ga  Ga5  1  0.65798099  0.71259298  0.97144397  1
  Ga  Ga6  1  0.34201800  0.02855700  0.28740699  1
  Ga  Ga7  1  0.65798199  0.97144297  0.71259298  1
  Ga  Ga8  1  0.13697699  0.58048998  0.14555600  1
  Ga  Ga9  1  0.86302300  0.41950999  0.85444397  1
  Ga  Ga10  1  0.13697800  0.14555600  0.58048898  1
  Ga  Ga11  1  0.86302199  0.85444397  0.41951099  1
  Pd  Pd12  1  0.50000000  0.30154999  0.69844997  1
  Pd  Pd13  1  0.49999999  0.69844998  0.30154999  1
