# generated using pymatgen
data_Mn4O5F7
_symmetry_space_group_name_H-M   'P 1'
_cell_length_a   4.63215446
_cell_length_b   4.99669409
_cell_length_c   8.43586254
_cell_angle_alpha   90.09344482
_cell_angle_beta   90.93702698
_cell_angle_gamma   90.27252960
_symmetry_Int_Tables_number   1
_chemical_formula_structural   Mn4O5F7
_chemical_formula_sum   'Mn4 O5 F7'
_cell_volume   195.22330514
_cell_formula_units_Z   1
loop_
 _symmetry_equiv_pos_site_id
 _symmetry_equiv_pos_as_xyz
  1  'x, y, z'
loop_
 _atom_site_type_symbol
 _atom_site_label
 _atom_site_symmetry_multiplicity
 _atom_site_fract_x
 _atom_site_fract_y
 _atom_site_fract_z
 _atom_site_occupancy
  Mn  Mn0  1  0.98064501  0.49192002  0.81672702  1
  Mn  Mn1  1  0.50262301  0.01189900  0.66652503  1
  Mn  Mn2  1  0.97958401  0.99035303  0.31559099  1
  Mn  Mn3  1  0.50105000  0.50655802  0.16650099  1
  O  O4  1  0.75581801  0.82893903  0.18820599  1
  O  O5  1  0.75909901  0.32930201  0.68797202  1
  O  O6  1  0.24793700  0.67710102  0.32362700  1
  O  O7  1  0.25072200  0.17956001  0.82417403  1
  O  O8  1  0.25247800  0.67634302  0.68161102  1
  F  F9  1  0.25036700  0.17358001  0.17784100  1
  F  F10  1  0.24685400  0.12924100  0.49275702  1
  F  F11  1  0.24304100  0.63359102  0.99637204  1
  F  F12  1  0.75801301  0.86354603  0.50278700  1
  F  F13  1  0.75742201  0.36131801  0.00217498  1
  F  F14  1  0.75786801  0.32709201  0.32504200  1
  F  F15  1  0.75562201  0.82394103  0.82477302  1
