# generated using pymatgen
data_Al4ClO3
_symmetry_space_group_name_H-M   'P 1'
_cell_length_a   5.48564577
_cell_length_b   5.67506886
_cell_length_c   5.85991478
_cell_angle_alpha   118.32538605
_cell_angle_beta   90.00000000
_cell_angle_gamma   90.00000000
_symmetry_Int_Tables_number   1
_chemical_formula_structural   Al4ClO3
_chemical_formula_sum   'Al4 Cl1 O3'
_cell_volume   160.58490587
_cell_formula_units_Z   1
loop_
 _symmetry_equiv_pos_site_id
 _symmetry_equiv_pos_as_xyz
  1  'x, y, z'
loop_
 _atom_site_type_symbol
 _atom_site_label
 _atom_site_symmetry_multiplicity
 _atom_site_fract_x
 _atom_site_fract_y
 _atom_site_fract_z
 _atom_site_occupancy
  Al  Al0  1  0.25000001  0.30473502  0.14072002  1
  Al  Al1  1  0.75000003  0.69526504  0.85928004  1
  Al  Al2  1  0.75000003  0.01187000  0.50530000  1
  Al  Al3  1  0.25000001  0.98813005  0.49470006  1
  O  O4  1  0.99996204  0.00001900  0.71311600  1
  Cl  Cl5  1  0.00003800  0.99998105  0.28688406  1
  O  O6  1  0.49996202  0.99998105  0.28688406  1
  O  O7  1  0.50003802  0.00001900  0.71311600  1
