# generated using pymatgen
data_Mg4Ag
_symmetry_space_group_name_H-M   'P 1'
_cell_length_a   2.97748852
_cell_length_b   2.97748852
_cell_length_c   11.58936596
_cell_angle_alpha   82.61952972
_cell_angle_beta   82.61952972
_cell_angle_gamma   59.99998856
_symmetry_Int_Tables_number   1
_chemical_formula_structural   Mg4Ag
_chemical_formula_sum   'Mg4 Ag1'
_cell_volume   87.99530042
_cell_formula_units_Z   1
loop_
 _symmetry_equiv_pos_site_id
 _symmetry_equiv_pos_as_xyz
  1  'x, y, z'
loop_
 _atom_site_type_symbol
 _atom_site_label
 _atom_site_symmetry_multiplicity
 _atom_site_fract_x
 _atom_site_fract_y
 _atom_site_fract_z
 _atom_site_occupancy
  Mg  Mg0  1  0.00000000  0.00000000  0.00000000  1
  Mg  Mg1  1  0.60546999  0.60547000  0.18359001  1
  Mg  Mg2  1  0.20151700  0.20151700  0.39544900  1
  Mg  Mg3  1  0.79848298  0.79848300  0.60455101  1
  Ag  Ag4  1  0.39452999  0.39453000  0.81640999  1
