# generated using pymatgen
data_MgAg2
_symmetry_space_group_name_H-M   'P 1'
_cell_length_a   5.58249712
_cell_length_b   5.58249712
_cell_length_c   5.85693359
_cell_angle_alpha   71.52230072
_cell_angle_beta   71.52230072
_cell_angle_gamma   60.88497925
_symmetry_Int_Tables_number   1
_chemical_formula_structural   MgAg2
_chemical_formula_sum   'Mg2 Ag4'
_cell_volume   148.29781009
_cell_formula_units_Z   2
loop_
 _symmetry_equiv_pos_site_id
 _symmetry_equiv_pos_as_xyz
  1  'x, y, z'
loop_
 _atom_site_type_symbol
 _atom_site_label
 _atom_site_symmetry_multiplicity
 _atom_site_fract_x
 _atom_site_fract_y
 _atom_site_fract_z
 _atom_site_occupancy
  Mg  Mg0  1  0.66355001  0.00022300  0.00455003  1
  Mg  Mg1  1  0.99977702  0.33645000  0.99545005  1
  Ag  Ag2  1  0.50236601  0.49763401  0.50000004  1
  Ag  Ag3  1  0.34275901  0.65724101  0.00000005  1
  Ag  Ag4  1  0.16442200  0.17287500  0.49905901  1
  Ag  Ag5  1  0.82712501  0.83557801  0.50094107  1
