# generated using pymatgen
data_SrMgCuH5Pt
_symmetry_space_group_name_H-M   'P 1'
_cell_length_a   3.83678889
_cell_length_b   3.83678889
_cell_length_c   7.50576878
_cell_angle_alpha   90.00000000
_cell_angle_beta   90.00000000
_cell_angle_gamma   90.00000000
_symmetry_Int_Tables_number   1
_chemical_formula_structural   SrMgCuH5Pt
_chemical_formula_sum   'Sr1 Mg1 Cu1 H5 Pt1'
_cell_volume   110.49203941
_cell_formula_units_Z   1
loop_
 _symmetry_equiv_pos_site_id
 _symmetry_equiv_pos_as_xyz
  1  'x, y, z'
loop_
 _atom_site_type_symbol
 _atom_site_label
 _atom_site_symmetry_multiplicity
 _atom_site_fract_x
 _atom_site_fract_y
 _atom_site_fract_z
 _atom_site_occupancy
  Mg  Mg0  1  0.00000000  0.00000000  0.73881902  1
  Sr  Sr1  1  0.00000000  0.00000000  0.26118101  1
  H  H2  1  0.50000001  0.50000001  0.74672102  1
  Cu  Cu3  1  0.50000001  0.50000001  0.25327901  1
  H  H4  1  0.50000001  0.00000000  0.00000000  1
  H  H5  1  0.50000001  0.00000000  0.50000001  1
  H  H6  1  0.00000000  0.50000001  0.00000000  1
  H  H7  1  0.00000000  0.50000001  0.50000001  1
  Pt  Pt8  1  0.50000001  0.50000001  0.00000000  1
