# generated using pymatgen
data_CaTm3O8
_symmetry_space_group_name_H-M   'P 1'
_cell_length_a   3.54970503
_cell_length_b   5.74503183
_cell_length_c   8.28469467
_cell_angle_alpha   90.00000000
_cell_angle_beta   90.00000000
_cell_angle_gamma   90.00000000
_symmetry_Int_Tables_number   1
_chemical_formula_structural   CaTm3O8
_chemical_formula_sum   'Ca1 Tm3 O8'
_cell_volume   168.95117349
_cell_formula_units_Z   1
loop_
 _symmetry_equiv_pos_site_id
 _symmetry_equiv_pos_as_xyz
  1  'x, y, z'
loop_
 _atom_site_type_symbol
 _atom_site_label
 _atom_site_symmetry_multiplicity
 _atom_site_fract_x
 _atom_site_fract_y
 _atom_site_fract_z
 _atom_site_occupancy
  Ca  Ca0  1  0.74999999  0.63608502  0.33394501  1
  Tm  Tm1  1  0.74999999  0.86391503  0.83394503  1
  Tm  Tm2  1  0.25000000  0.36391501  0.66605503  1
  Tm  Tm3  1  0.25000000  0.13608500  0.16605501  1
  O  O4  1  0.74999999  0.88746803  0.10840900  1
  O  O5  1  0.74999999  0.61253202  0.60840902  1
  O  O6  1  0.25000000  0.11253200  0.89159104  1
  O  O7  1  0.25000000  0.38746801  0.39159102  1
  O  O8  1  0.25000000  0.86917803  0.36133501  1
  O  O9  1  0.25000000  0.63082202  0.86133503  1
  O  O10  1  0.74999999  0.13082200  0.63866503  1
  O  O11  1  0.74999999  0.36917801  0.13866501  1
