# generated using pymatgen
data_Pa(CoS)2
_symmetry_space_group_name_H-M   'P 1'
_cell_length_a   3.83766007
_cell_length_b   3.83766007
_cell_length_c   7.64765644
_cell_angle_alpha   104.53102875
_cell_angle_beta   104.53102875
_cell_angle_gamma   90.00000000
_symmetry_Int_Tables_number   1
_chemical_formula_structural   Pa(CoS)2
_chemical_formula_sum   'Pa1 Co2 S2'
_cell_volume   105.30293360
_cell_formula_units_Z   1
loop_
 _symmetry_equiv_pos_site_id
 _symmetry_equiv_pos_as_xyz
  1  'x, y, z'
loop_
 _atom_site_type_symbol
 _atom_site_label
 _atom_site_symmetry_multiplicity
 _atom_site_fract_x
 _atom_site_fract_y
 _atom_site_fract_z
 _atom_site_occupancy
  Pa  Pa0  1  0.00000000  0.00000000  0.00000000  1
  Co  Co1  1  0.74999997  0.24999999  0.49999996  1
  Co  Co2  1  0.24999997  0.74999997  0.49999996  1
  S  S3  1  0.32446698  0.32446699  0.64893396  1
  S  S4  1  0.67553296  0.67553298  0.35106595  1
