# generated using pymatgen
data_Ca4Bi2SbO13
_symmetry_space_group_name_H-M   'P 1'
_cell_length_a   5.73849678
_cell_length_b   6.09735823
_cell_length_c   8.43364906
_cell_angle_alpha   90.00000000
_cell_angle_beta   89.85803986
_cell_angle_gamma   90.00000000
_symmetry_Int_Tables_number   1
_chemical_formula_structural   Ca4Bi2SbO13
_chemical_formula_sum   'Ca4 Bi2 Sb1 O13'
_cell_volume   295.08969652
_cell_formula_units_Z   1
loop_
 _symmetry_equiv_pos_site_id
 _symmetry_equiv_pos_as_xyz
  1  'x, y, z'
loop_
 _atom_site_type_symbol
 _atom_site_label
 _atom_site_symmetry_multiplicity
 _atom_site_fract_x
 _atom_site_fract_y
 _atom_site_fract_z
 _atom_site_occupancy
  Ca  Ca0  1  0.00897447  0.76987636  0.75410457  1
  Ca  Ca1  1  0.50897445  0.23012364  0.25410460  1
  Ca  Ca2  1  0.50355700  0.77380771  0.00743334  1
  Ca  Ca3  1  0.00355702  0.22619229  0.50743331  1
  Bi  Bi4  1  0.50478646  0.32458789  0.79225315  1
  Bi  Bi5  1  0.00478648  0.67541211  0.29225313  1
  Sb  Sb6  1  0.00082412  0.24460843  0.99762688  1
  O  O7  1  0.50082410  0.75539157  0.49762691  1
  O  O8  1  0.81293064  0.97746253  0.03749829  1
  O  O9  1  0.72141210  0.50088505  0.45566647  1
  O  O10  1  0.22141212  0.49911495  0.95566644  1
  O  O11  1  0.31293066  0.02253747  0.53749826  1
  O  O12  1  0.71065592  0.44398683  0.00112838  1
  O  O13  1  0.78874742  0.93518487  0.45821291  1
  O  O14  1  0.28874744  0.06481513  0.95821288  1
  O  O15  1  0.21065594  0.55601317  0.50112835  1
  O  O16  1  0.53698021  0.69884640  0.73327335  1
  O  O17  1  0.91113144  0.23176471  0.76280278  1
  O  O18  1  0.41113146  0.76823529  0.26280277  1
  O  O19  1  0.03698023  0.30115360  0.23327334  1
