# generated using pymatgen
data_KCuAu
_symmetry_space_group_name_H-M   'P 1'
_cell_length_a   4.55516386
_cell_length_b   4.55516434
_cell_length_c   4.62038803
_cell_angle_alpha   90.00000000
_cell_angle_beta   90.00000000
_cell_angle_gamma   120.00000000
_symmetry_Int_Tables_number   1
_chemical_formula_structural   KCuAu
_chemical_formula_sum   'K1 Cu1 Au1'
_cell_volume   83.02657747
_cell_formula_units_Z   1
loop_
 _symmetry_equiv_pos_site_id
 _symmetry_equiv_pos_as_xyz
  1  'x, y, z'
loop_
 _atom_site_type_symbol
 _atom_site_label
 _atom_site_symmetry_multiplicity
 _atom_site_fract_x
 _atom_site_fract_y
 _atom_site_fract_z
 _atom_site_occupancy
  K  K0  1  0.33333337  0.66666666  0.99999999  1
  Cu  Cu1  1  0.00000000  0.00000000  0.50000000  1
  Au  Au2  1  0.66666670  0.33333333  0.50000000  1
