# generated using pymatgen
data_K2HF3
_symmetry_space_group_name_H-M   'P 1'
_cell_length_a   6.10974216
_cell_length_b   7.82870388
_cell_length_c   7.82870388
_cell_angle_alpha   90.00000000
_cell_angle_beta   90.00000000
_cell_angle_gamma   90.00000000
_symmetry_Int_Tables_number   1
_chemical_formula_structural   K2HF3
_chemical_formula_sum   'K6 H3 F9'
_cell_volume   374.45757079
_cell_formula_units_Z   3
loop_
 _symmetry_equiv_pos_site_id
 _symmetry_equiv_pos_as_xyz
  1  'x, y, z'
loop_
 _atom_site_type_symbol
 _atom_site_label
 _atom_site_symmetry_multiplicity
 _atom_site_fract_x
 _atom_site_fract_y
 _atom_site_fract_z
 _atom_site_occupancy
  K  K0  1  -0.00000000  0.50000001  0.50000001  1
  K  K1  1  0.00000000  0.00000000  0.00000000  1
  K  K2  1  0.49999999  0.18375800  0.68375801  1
  K  K3  1  0.49999999  0.81624201  0.31624200  1
  K  K4  1  0.49999999  0.68375801  0.81624201  1
  K  K5  1  0.49999999  0.31624200  0.18375800  1
  F  F6  1  0.49999999  0.50000001  0.50000001  1
  H  H7  1  0.49999999  0.00000000  0.00000000  1
  H  H8  1  0.81169998  0.60899901  0.10899900  1
  H  H9  1  0.81169998  0.39100101  0.89100101  1
  F  F10  1  0.81169998  0.10899900  0.39100101  1
  F  F11  1  0.81169998  0.89100101  0.60899901  1
  F  F12  1  0.18829999  0.39100101  0.89100101  1
  F  F13  1  0.18829999  0.60899901  0.10899900  1
  F  F14  1  0.18829999  0.89100101  0.60899901  1
  F  F15  1  0.18829999  0.10899900  0.39100101  1
  F  F16  1  -0.00000000  0.50000001  0.00000000  1
  F  F17  1  -0.00000000  1.00000002  0.50000001  1
