# generated using pymatgen
data_AlNi3
_symmetry_space_group_name_H-M   'P 1'
_cell_length_a   4.23988485
_cell_length_b   4.51430702
_cell_length_c   5.18148613
_cell_angle_alpha   90.00000000
_cell_angle_beta   90.00000000
_cell_angle_gamma   90.00000000
_symmetry_Int_Tables_number   1
_chemical_formula_structural   AlNi3
_chemical_formula_sum   'Al2 Ni6'
_cell_volume   99.17438012
_cell_formula_units_Z   2
loop_
 _symmetry_equiv_pos_site_id
 _symmetry_equiv_pos_as_xyz
  1  'x, y, z'
loop_
 _atom_site_type_symbol
 _atom_site_label
 _atom_site_symmetry_multiplicity
 _atom_site_fract_x
 _atom_site_fract_y
 _atom_site_fract_z
 _atom_site_occupancy
  Al  Al0  1  0.00000000  0.66656600  -0.00000000  1
  Al  Al1  1  0.50000002  0.33343400  0.49999999  1
  Ni  Ni2  1  0.00000000  0.66755800  0.49999999  1
  Ni  Ni3  1  0.50000002  0.33244200  0.00000000  1
  Ni  Ni4  1  0.00000000  0.16571200  0.25098999  1
  Ni  Ni5  1  0.00000000  0.16571200  0.74900998  1
  Ni  Ni6  1  0.50000002  0.83428800  0.24900999  1
  Ni  Ni7  1  0.50000002  0.83428800  0.75098998  1
