# generated using pymatgen
data_Ho3Ga8Ag3
_symmetry_space_group_name_H-M   'P 1'
_cell_length_a   4.27645206
_cell_length_b   8.16178799
_cell_length_c   8.16178799
_cell_angle_alpha   72.07279205
_cell_angle_beta   74.81241608
_cell_angle_gamma   74.81241608
_symmetry_Int_Tables_number   1
_chemical_formula_structural   Ho3Ga8Ag3
_chemical_formula_sum   'Ho3 Ga8 Ag3'
_cell_volume   256.42522916
_cell_formula_units_Z   1
loop_
 _symmetry_equiv_pos_site_id
 _symmetry_equiv_pos_as_xyz
  1  'x, y, z'
loop_
 _atom_site_type_symbol
 _atom_site_label
 _atom_site_symmetry_multiplicity
 _atom_site_fract_x
 _atom_site_fract_y
 _atom_site_fract_z
 _atom_site_occupancy
  Ho  Ho0  1  0.00000000  0.00000000  0.00000000  1
  Ho  Ho1  1  0.30368906  0.69631097  0.69631095  1
  Ho  Ho2  1  0.69631101  0.30368899  0.30368899  1
  Ga  Ga3  1  1.00000002  0.49999998  0.49999999  1
  Ga  Ga4  1  0.34378599  0.02526900  0.28715900  1
  Ga  Ga5  1  0.65621408  0.97473096  0.71284094  1
  Ga  Ga6  1  0.34378602  0.28715899  0.02526900  1
  Ga  Ga7  1  0.65621405  0.71284097  0.97473094  1
  Ga  Ga8  1  0.13942001  0.14215199  0.57900797  1
  Ga  Ga9  1  0.86058006  0.85784796  0.42099197  1
  Ga  Ga10  1  0.13941905  0.57900798  0.14215297  1
  Ag  Ag11  1  0.86058102  0.42099198  0.85784697  1
  Ag  Ag12  1  0.50000006  0.69101497  0.30898497  1
  Ag  Ag13  1  0.50000002  0.30898499  0.69101497  1
