# generated using pymatgen
data_Ca3Tl5
_symmetry_space_group_name_H-M   'P 1'
_cell_length_a   5.73953819
_cell_length_b   5.73953819
_cell_length_c   10.14723206
_cell_angle_alpha   90.00000000
_cell_angle_beta   90.00000000
_cell_angle_gamma   120.00000000
_symmetry_Int_Tables_number   1
_chemical_formula_structural   Ca3Tl5
_chemical_formula_sum   'Ca3 Tl5'
_cell_volume   289.48903885
_cell_formula_units_Z   1
loop_
 _symmetry_equiv_pos_site_id
 _symmetry_equiv_pos_as_xyz
  1  'x, y, z'
loop_
 _atom_site_type_symbol
 _atom_site_label
 _atom_site_symmetry_multiplicity
 _atom_site_fract_x
 _atom_site_fract_y
 _atom_site_fract_z
 _atom_site_occupancy
  Ca  Ca0  1  0.66666665  0.33333334  0.42184900  1
  Ca  Ca1  1  0.33333334  0.66666668  0.92184899  1
  Ca  Ca2  1  0.33333334  0.66666668  0.57815100  1
  Tl  Tl3  1  0.66666665  0.33333334  0.07815100  1
  Tl  Tl4  1  0.00000000  0.00000000  0.25000000  1
  Tl  Tl5  1  0.00000000  0.00000000  0.75000000  1
  Tl  Tl6  1  0.33333334  0.66666668  0.25000000  1
  Tl  Tl7  1  0.66666665  0.33333334  0.75000000  1
