# generated using pymatgen
data_La4PrSmS8
_symmetry_space_group_name_H-M   'P 1'
_cell_length_a   7.48371983
_cell_length_b   7.48371983
_cell_length_c   7.48371983
_cell_angle_alpha   109.44520569
_cell_angle_beta   109.48423004
_cell_angle_gamma   109.48423004
_symmetry_Int_Tables_number   1
_chemical_formula_structural   La4PrSmS8
_chemical_formula_sum   'La4 Pr1 Sm1 S8'
_cell_volume   322.64920431
_cell_formula_units_Z   1
loop_
 _symmetry_equiv_pos_site_id
 _symmetry_equiv_pos_as_xyz
  1  'x, y, z'
loop_
 _atom_site_type_symbol
 _atom_site_label
 _atom_site_symmetry_multiplicity
 _atom_site_fract_x
 _atom_site_fract_y
 _atom_site_fract_z
 _atom_site_occupancy
  La  La0  1  0.00000000  0.00000000  0.00000000  1
  La  La1  1  0.12680200  0.24872201  0.62339903  1
  La  La2  1  0.50000001  0.75000003  0.25000003  1
  La  La3  1  0.87319802  0.49659702  0.12192001  1
  Pr  Pr4  1  0.37467701  0.87808004  0.75127805  1
  Sm  Sm5  1  0.62532301  0.37660102  0.50340302  1
  S  S6  1  0.89641302  0.76836103  0.51462503  1
  S  S7  1  0.59533601  0.62061803  0.87393404  1
  S  S8  1  0.74626502  0.12805301  0.23164000  1
  S  S9  1  0.25373501  0.48537502  0.38178703  1
  S  S10  1  0.10358700  0.61821203  0.87194705  1
  S  S11  1  0.74668402  0.12606701  0.72140202  1
  S  S12  1  0.25331601  0.97471804  0.37938205  1
  S  S13  1  0.40466401  0.27859801  0.02528101  1
