# generated using pymatgen
data_ZrTi3SbSe8
_symmetry_space_group_name_H-M   'P 1'
_cell_length_a   7.28172064
_cell_length_b   7.28172064
_cell_length_c   7.28172064
_cell_angle_alpha   60.00000000
_cell_angle_beta   60.00000000
_cell_angle_gamma   60.00000000
_symmetry_Int_Tables_number   1
_chemical_formula_structural   ZrTi3SbSe8
_chemical_formula_sum   'Zr1 Ti3 Sb1 Se8'
_cell_volume   273.01533528
_cell_formula_units_Z   1
loop_
 _symmetry_equiv_pos_site_id
 _symmetry_equiv_pos_as_xyz
  1  'x, y, z'
loop_
 _atom_site_type_symbol
 _atom_site_label
 _atom_site_symmetry_multiplicity
 _atom_site_fract_x
 _atom_site_fract_y
 _atom_site_fract_z
 _atom_site_occupancy
  Ti  Ti0  1  0.00000000  0.00000000  0.00000000  1
  Zr  Zr1  1  0.60004000  0.19988000  0.60004000  1
  Ti  Ti2  1  0.60004000  0.60004000  0.60004000  1
  Ti  Ti3  1  0.60004000  0.60004000  0.19988000  1
  Sb  Sb4  1  0.19988000  0.60004000  0.60004000  1
  Se  Se5  1  0.86272899  0.41181500  0.86272799  1
  Se  Se6  1  0.86272899  0.86272799  0.86272799  1
  Se  Se7  1  0.86272899  0.86272799  0.41181500  1
  Se  Se8  1  0.90656899  0.36447700  0.36447700  1
  Se  Se9  1  0.36447700  0.36447700  0.90656899  1
  Se  Se10  1  0.36447700  0.36447700  0.36447700  1
  Se  Se11  1  0.36447700  0.90656899  0.36447700  1
  Se  Se12  1  0.41181600  0.86272799  0.86272799  1
