# generated using pymatgen
data_In2Se3
_symmetry_space_group_name_H-M   'P 1'
_cell_length_a   6.91291618
_cell_length_b   6.91291618
_cell_length_c   8.29596901
_cell_angle_alpha   65.37717438
_cell_angle_beta   65.37717438
_cell_angle_gamma   60.00000000
_symmetry_Int_Tables_number   1
_chemical_formula_structural   In2Se3
_chemical_formula_sum   'In4 Se6'
_cell_volume   300.99199038
_cell_formula_units_Z   2
loop_
 _symmetry_equiv_pos_site_id
 _symmetry_equiv_pos_as_xyz
  1  'x, y, z'
loop_
 _atom_site_type_symbol
 _atom_site_label
 _atom_site_symmetry_multiplicity
 _atom_site_fract_x
 _atom_site_fract_y
 _atom_site_fract_z
 _atom_site_occupancy
  In  In0  1  0.66639604  0.66639599  0.00081198  1
  In  In1  1  0.33360402  0.33360400  0.99918804  1
  In  In2  1  0.94459305  0.94459299  0.16622097  1
  In  In3  1  0.05540700  0.05540700  0.83377904  1
  Se  Se4  1  0.45227701  0.07829500  0.76318703  1
  Se  Se5  1  0.07829504  0.70624099  0.76318702  1
  Se  Se6  1  0.70624103  0.45227699  0.76318702  1
  Se  Se7  1  0.54772305  0.92170499  0.23681298  1
  Se  Se8  1  0.92170502  0.29375900  0.23681299  1
  Se  Se9  1  0.29375903  0.54772299  0.23681299  1
