# generated using pymatgen
data_CuF4
_symmetry_space_group_name_H-M   'P 1'
_cell_length_a   5.59781551
_cell_length_b   5.59781551
_cell_length_c   5.70427752
_cell_angle_alpha   106.13777161
_cell_angle_beta   106.13777161
_cell_angle_gamma   115.69190216
_symmetry_Int_Tables_number   1
_chemical_formula_structural   CuF4
_chemical_formula_sum   'Cu2 F8'
_cell_volume   137.36243979
_cell_formula_units_Z   2
loop_
 _symmetry_equiv_pos_site_id
 _symmetry_equiv_pos_as_xyz
  1  'x, y, z'
loop_
 _atom_site_type_symbol
 _atom_site_label
 _atom_site_symmetry_multiplicity
 _atom_site_fract_x
 _atom_site_fract_y
 _atom_site_fract_z
 _atom_site_occupancy
  Cu  Cu0  1  0.75688194  0.75688196  -0.00000000  1
  Cu  Cu1  1  0.00688197  0.50688197  0.49999998  1
  F  F2  1  0.24708396  0.51564497  0.32187099  1
  F  F3  1  0.19377394  0.92521295  0.67812897  1
  F  F4  1  0.71259596  0.48093797  0.18127400  1
  F  F5  1  0.29966396  0.53132197  0.81872597  1
  F  F6  1  0.73093796  0.46259598  0.68127398  1
  F  F7  1  0.78132198  0.04966400  0.31872600  1
  F  F8  1  0.17521294  0.94377395  0.17812898  1
  F  F9  1  0.76564492  0.99708395  0.82187097  1
