# generated using pymatgen
data_Zr2FeSb4
_symmetry_space_group_name_H-M   'P 1'
_cell_length_a   3.68383694
_cell_length_b   6.76811409
_cell_length_c   7.34334135
_cell_angle_alpha   107.28327179
_cell_angle_beta   90.00000000
_cell_angle_gamma   90.00000000
_symmetry_Int_Tables_number   1
_chemical_formula_structural   Zr2FeSb4
_chemical_formula_sum   'Zr2 Fe1 Sb4'
_cell_volume   174.82190081
_cell_formula_units_Z   1
loop_
 _symmetry_equiv_pos_site_id
 _symmetry_equiv_pos_as_xyz
  1  'x, y, z'
loop_
 _atom_site_type_symbol
 _atom_site_label
 _atom_site_symmetry_multiplicity
 _atom_site_fract_x
 _atom_site_fract_y
 _atom_site_fract_z
 _atom_site_occupancy
  Zr  Zr0  1  -0.00000000  0.81621200  0.00489902  1
  Zr  Zr1  1  0.50000001  0.18134300  0.99451603  1
  Fe  Fe2  1  -0.00000000  0.59999500  0.58083603  1
  Sb  Sb3  1  -0.00000000  0.00391300  0.71149702  1
  Sb  Sb4  1  0.50000001  0.00317600  0.28600101  1
  Sb  Sb5  1  -0.00000000  0.49630500  0.21308702  1
  Sb  Sb6  1  0.50000001  0.50085600  0.79286404  1
