# generated using pymatgen
data_ZrSiRh
_symmetry_space_group_name_H-M   'P 1'
_cell_length_a   3.72020102
_cell_length_b   6.66464186
_cell_length_c   6.66464186
_cell_angle_alpha   120.00000000
_cell_angle_beta   90.00000000
_cell_angle_gamma   90.00000000
_symmetry_Int_Tables_number   1
_chemical_formula_structural   ZrSiRh
_chemical_formula_sum   'Zr3 Si3 Rh3'
_cell_volume   143.10363695
_cell_formula_units_Z   3
loop_
 _symmetry_equiv_pos_site_id
 _symmetry_equiv_pos_as_xyz
  1  'x, y, z'
loop_
 _atom_site_type_symbol
 _atom_site_label
 _atom_site_symmetry_multiplicity
 _atom_site_fract_x
 _atom_site_fract_y
 _atom_site_fract_z
 _atom_site_occupancy
  Zr  Zr0  1  -0.00000000  0.58891101  -0.00000001  1
  Zr  Zr1  1  -0.00000000  0.41108900  0.41108898  1
  Zr  Zr2  1  0.00000000  0.00000000  0.58891099  1
  Si  Si3  1  0.50000000  0.33333334  0.66666665  1
  Si  Si4  1  0.00000000  0.00000000  0.00000000  1
  Si  Si5  1  0.50000000  0.66666667  0.33333331  1
  Rh  Rh6  1  0.50000000  0.00000000  0.25997600  1
  Rh  Rh7  1  0.50000000  0.25997600  -0.00000001  1
  Rh  Rh8  1  0.50000000  0.74002401  0.74002397  1
