# generated using pymatgen
data_ErZnSn
_symmetry_space_group_name_H-M   'P 1'
_cell_length_a   4.50722408
_cell_length_b   4.50722456
_cell_length_c   15.15196991
_cell_angle_alpha   90.00000000
_cell_angle_beta   90.00000000
_cell_angle_gamma   120.00000000
_symmetry_Int_Tables_number   1
_chemical_formula_structural   ErZnSn
_chemical_formula_sum   'Er4 Zn4 Sn4'
_cell_volume   266.57417706
_cell_formula_units_Z   4
loop_
 _symmetry_equiv_pos_site_id
 _symmetry_equiv_pos_as_xyz
  1  'x, y, z'
loop_
 _atom_site_type_symbol
 _atom_site_label
 _atom_site_symmetry_multiplicity
 _atom_site_fract_x
 _atom_site_fract_y
 _atom_site_fract_z
 _atom_site_occupancy
  Er  Er0  1  0.00000000  0.00000000  0.75000000  1
  Er  Er1  1  0.00000000  0.00000000  0.25000000  1
  Er  Er2  1  0.00000000  0.00000000  0.00000000  1
  Er  Er3  1  0.00000000  0.00000000  0.50000000  1
  Zn  Zn4  1  0.66666668  0.33333334  0.84268801  1
  Zn  Zn5  1  0.33333337  0.66666667  0.15731200  1
  Zn  Zn6  1  0.33333337  0.66666667  0.34268800  1
  Zn  Zn7  1  0.66666668  0.33333334  0.65731200  1
  Sn  Sn8  1  0.66666668  0.33333334  0.38883400  1
  Sn  Sn9  1  0.33333337  0.66666667  0.61116600  1
  Sn  Sn10  1  0.33333337  0.66666667  0.88883401  1
  Sn  Sn11  1  0.66666668  0.33333334  0.11116600  1
