# generated using pymatgen
data_LiZnAgTeAs
_symmetry_space_group_name_H-M   'P 1'
_cell_length_a   4.37580204
_cell_length_b   4.37580204
_cell_length_c   7.02856493
_cell_angle_alpha   90.00000000
_cell_angle_beta   90.00000000
_cell_angle_gamma   120.00000000
_symmetry_Int_Tables_number   1
_chemical_formula_structural   LiZnAgTeAs
_chemical_formula_sum   'Li1 Zn1 Ag1 Te1 As1'
_cell_volume   116.55009336
_cell_formula_units_Z   1
loop_
 _symmetry_equiv_pos_site_id
 _symmetry_equiv_pos_as_xyz
  1  'x, y, z'
loop_
 _atom_site_type_symbol
 _atom_site_label
 _atom_site_symmetry_multiplicity
 _atom_site_fract_x
 _atom_site_fract_y
 _atom_site_fract_z
 _atom_site_occupancy
  Li  Li0  1  0.66666667  0.33333336  0.01372900  1
  Zn  Zn1  1  0.00000000  0.00000000  0.62455501  1
  Ag  Ag2  1  0.33333336  0.66666672  0.36203900  1
  Te  Te3  1  0.33333336  0.66666672  0.75010901  1
  As  As4  1  0.00000000  0.00000000  0.24956800  1
