# generated using pymatgen
data_Nb4Co(CS2)2
_symmetry_space_group_name_H-M   'P 1'
_cell_length_a   3.31923604
_cell_length_b   5.74315786
_cell_length_c   8.79874039
_cell_angle_alpha   102.17628479
_cell_angle_beta   90.00000000
_cell_angle_gamma   90.00000000
_symmetry_Int_Tables_number   1
_chemical_formula_structural   Nb4Co(CS2)2
_chemical_formula_sum   'Nb4 Co1 C2 S4'
_cell_volume   163.95611475
_cell_formula_units_Z   1
loop_
 _symmetry_equiv_pos_site_id
 _symmetry_equiv_pos_as_xyz
  1  'x, y, z'
loop_
 _atom_site_type_symbol
 _atom_site_label
 _atom_site_symmetry_multiplicity
 _atom_site_fract_x
 _atom_site_fract_y
 _atom_site_fract_z
 _atom_site_occupancy
  Nb  Nb0  1  0.49999999  0.37441901  0.63491203  1
  Nb  Nb1  1  0.99999999  0.88076603  0.63338105  1
  Nb  Nb2  1  0.49999999  0.62558102  0.36508803  1
  Nb  Nb3  1  0.99999999  0.11923400  0.36661902  1
  Co  Co4  1  0.00000000  0.00000000  0.00000000  1
  C  C5  1  -0.00000000  0.50000002  0.50000003  1
  C  C6  1  0.49999999  0.00000000  0.50000002  1
  S  S7  1  0.49999999  0.22718101  0.16783901  1
  S  S8  1  -0.00000000  0.72403802  0.16966402  1
  S  S9  1  0.49999999  0.77281902  0.83216105  1
  S  S10  1  -0.00000000  0.27596201  0.83033604  1
