# generated using pymatgen
data_Ho3Co2Si3
_symmetry_space_group_name_H-M   'P 1'
_cell_length_a   4.11866379
_cell_length_b   5.65340233
_cell_length_c   13.69262791
_cell_angle_alpha   90.00000000
_cell_angle_beta   90.00000000
_cell_angle_gamma   111.36230469
_symmetry_Int_Tables_number   1
_chemical_formula_structural   Ho3Co2Si3
_chemical_formula_sum   'Ho6 Co4 Si6'
_cell_volume   296.92080188
_cell_formula_units_Z   2
loop_
 _symmetry_equiv_pos_site_id
 _symmetry_equiv_pos_as_xyz
  1  'x, y, z'
loop_
 _atom_site_type_symbol
 _atom_site_label
 _atom_site_symmetry_multiplicity
 _atom_site_fract_x
 _atom_site_fract_y
 _atom_site_fract_z
 _atom_site_occupancy
  Ho  Ho0  1  0.36152998  0.72305999  0.75000001  1
  Ho  Ho1  1  0.63847002  0.27693999  0.25000000  1
  Ho  Ho2  1  0.07950100  0.15900200  0.88740201  1
  Ho  Ho3  1  0.92049900  0.84099798  0.11259800  1
  Ho  Ho4  1  0.92049900  0.84099798  0.38740200  1
  Ho  Ho5  1  0.07950100  0.15900200  0.61259800  1
  Co  Co6  1  0.21437799  0.42875599  0.41877200  1
  Co  Co7  1  0.78562201  0.57124399  0.58122800  1
  Co  Co8  1  0.78562201  0.57124399  0.91877201  1
  Co  Co9  1  0.21437799  0.42875599  0.08122800  1
  Si  Si10  1  0.66961802  0.33923599  0.75000001  1
  Si  Si11  1  0.33038198  0.66076399  0.25000000  1
  Si  Si12  1  0.37964798  0.75929598  0.96117301  1
  Si  Si13  1  0.62035202  0.24070400  0.03882700  1
  Si  Si14  1  0.62035202  0.24070400  0.46117300  1
  Si  Si15  1  0.37964798  0.75929598  0.53882700  1
