# generated using pymatgen
data_La4SbSe5S
_symmetry_space_group_name_H-M   'P 1'
_cell_length_a   4.31751204
_cell_length_b   4.31751204
_cell_length_c   22.03874207
_cell_angle_alpha   84.37870789
_cell_angle_beta   84.37870789
_cell_angle_gamma   60.00000000
_symmetry_Int_Tables_number   1
_chemical_formula_structural   La4SbSe5S
_chemical_formula_sum   'La4 Sb1 Se5 S1'
_cell_volume   353.49938610
_cell_formula_units_Z   1
loop_
 _symmetry_equiv_pos_site_id
 _symmetry_equiv_pos_as_xyz
  1  'x, y, z'
loop_
 _atom_site_type_symbol
 _atom_site_label
 _atom_site_symmetry_multiplicity
 _atom_site_fract_x
 _atom_site_fract_y
 _atom_site_fract_z
 _atom_site_occupancy
  La  La0  1  0.54595799  0.54595799  0.36212600  1
  La  La1  1  0.45528799  0.45528800  0.63413600  1
  La  La2  1  0.26976299  0.26976300  0.19071100  1
  La  La3  1  0.99741698  0.99741699  0.00774901  1
  Sb  Sb4  1  0.72823898  0.72823899  0.81528300  1
  Se  Se5  1  0.91544998  0.91544999  0.25365001  1
  Se  Se6  1  0.80937798  0.80937799  0.57186600  1
  Se  Se7  1  0.63667499  0.63667499  0.08997501  1
  Se  Se8  1  0.36252599  0.36252600  0.91242199  1
  S  S9  1  0.19165100  0.19165100  0.42504700  1
  Se  Se10  1  0.08865500  0.08865500  0.73403499  1
