# generated using pymatgen
data_La10Bi6SCl
_symmetry_space_group_name_H-M   'P 1'
_cell_length_a   6.93083477
_cell_length_b   9.67331219
_cell_length_c   9.67331123
_cell_angle_alpha   120.00000000
_cell_angle_beta   90.00000000
_cell_angle_gamma   90.00000000
_symmetry_Int_Tables_number   1
_chemical_formula_structural   La10Bi6SCl
_chemical_formula_sum   'La10 Bi6 S1 Cl1'
_cell_volume   561.65100762
_cell_formula_units_Z   1
loop_
 _symmetry_equiv_pos_site_id
 _symmetry_equiv_pos_as_xyz
  1  'x, y, z'
loop_
 _atom_site_type_symbol
 _atom_site_label
 _atom_site_symmetry_multiplicity
 _atom_site_fract_x
 _atom_site_fract_y
 _atom_site_fract_z
 _atom_site_occupancy
  La  La0  1  -0.00000000  0.33333332  0.66666665  1
  La  La1  1  0.50000002  0.66666663  0.33333329  1
  La  La2  1  0.50000002  0.33333332  0.66666665  1
  La  La3  1  1.00000003  0.66666663  0.33333329  1
  La  La4  1  0.25000001  0.26017999  0.26017998  1
  La  La5  1  0.75000002  0.26017999  0.99999998  1
  La  La6  1  0.75000002  0.00000000  0.26018000  1
  La  La7  1  0.25000001  0.00000000  0.73982000  1
  La  La8  1  0.25000001  0.73981996  0.99999995  1
  La  La9  1  0.75000002  0.73981996  0.73981996  1
  Bi  Bi10  1  0.25000001  0.38780198  0.99999997  1
  Bi  Bi11  1  0.75000002  0.00000000  0.61219800  1
  Bi  Bi12  1  0.75000002  0.38780198  0.38780198  1
  Bi  Bi13  1  0.25000001  0.61219797  0.61219796  1
  Bi  Bi14  1  0.25000001  0.00000000  0.38780200  1
  Bi  Bi15  1  0.75000002  0.61219797  0.99999996  1
  Cl  Cl16  1  0.50000002  0.00000000  -0.00000000  1
  S  S17  1  0.00000000  0.00000000  0.00000000  1
