# generated using pymatgen
data_CaYb2CdS6
_symmetry_space_group_name_H-M   'P 1'
_cell_length_a   4.05965805
_cell_length_b   6.82319832
_cell_length_c   8.48403168
_cell_angle_alpha   90.00000000
_cell_angle_beta   90.00000000
_cell_angle_gamma   107.30686951
_symmetry_Int_Tables_number   1
_chemical_formula_structural   CaYb2CdS6
_chemical_formula_sum   'Ca1 Yb2 Cd1 S6'
_cell_volume   224.36653855
_cell_formula_units_Z   1
loop_
 _symmetry_equiv_pos_site_id
 _symmetry_equiv_pos_as_xyz
  1  'x, y, z'
loop_
 _atom_site_type_symbol
 _atom_site_label
 _atom_site_symmetry_multiplicity
 _atom_site_fract_x
 _atom_site_fract_y
 _atom_site_fract_z
 _atom_site_occupancy
  Yb  Yb0  1  0.00000000  0.00000000  0.00000000  1
  Yb  Yb1  1  0.00000000  0.00000000  0.50000002  1
  Ca  Ca2  1  0.70232197  0.40464400  0.75000003  1
  Cd  Cd3  1  0.29767797  0.59535600  0.25000001  1
  S  S4  1  0.93680895  0.87361801  0.25000001  1
  S  S5  1  0.06319099  0.12638200  0.75000003  1
  S  S6  1  0.35157496  0.70315000  0.93698704  1
  S  S7  1  0.35157496  0.70315000  0.56301302  1
  S  S8  1  0.64842498  0.29685000  0.06301300  1
  S  S9  1  0.64842498  0.29685000  0.43698702  1
