# generated using pymatgen
data_CaSO4
_symmetry_space_group_name_H-M   'P 1'
_cell_length_a   5.11071014
_cell_length_b   5.11071014
_cell_length_c   6.98240185
_cell_angle_alpha   111.46733856
_cell_angle_beta   111.46733856
_cell_angle_gamma   90.00000000
_symmetry_Int_Tables_number   1
_chemical_formula_structural   CaSO4
_chemical_formula_sum   'Ca2 S2 O8'
_cell_volume   156.04924468
_cell_formula_units_Z   2
loop_
 _symmetry_equiv_pos_site_id
 _symmetry_equiv_pos_as_xyz
  1  'x, y, z'
loop_
 _atom_site_type_symbol
 _atom_site_label
 _atom_site_symmetry_multiplicity
 _atom_site_fract_x
 _atom_site_fract_y
 _atom_site_fract_z
 _atom_site_occupancy
  Ca  Ca0  1  0.74999998  0.24999999  0.50000000  1
  Ca  Ca1  1  0.00000000  0.00000000  0.00000000  1
  S  S2  1  0.25000000  0.74999998  0.50000000  1
  S  S3  1  0.49999999  0.49999999  0.00000001  1
  O  O4  1  0.30604099  0.43063599  0.34943300  1
  O  O5  1  0.04339200  0.91879698  0.34943200  1
  O  O6  1  0.18063500  0.29339099  0.84943199  1
  O  O7  1  0.66879699  0.55604099  0.84943300  1
  O  O8  1  0.44395899  0.81936398  0.15056701  1
  O  O9  1  0.70660798  0.33120299  0.15056800  1
  O  O10  1  0.56936499  0.95660898  0.65056800  1
  O  O11  1  0.08120300  0.69395898  0.65056700  1
