# generated using pymatgen
data_Sr2CaTlO6
_symmetry_space_group_name_H-M   'P 1'
_cell_length_a   5.93057108
_cell_length_b   5.93057108
_cell_length_c   5.97901201
_cell_angle_alpha   90.34725189
_cell_angle_beta   119.65083313
_cell_angle_gamma   119.67871094
_symmetry_Int_Tables_number   1
_chemical_formula_structural   Sr2CaTlO6
_chemical_formula_sum   'Sr2 Ca1 Tl1 O6'
_cell_volume   149.74988838
_cell_formula_units_Z   1
loop_
 _symmetry_equiv_pos_site_id
 _symmetry_equiv_pos_as_xyz
  1  'x, y, z'
loop_
 _atom_site_type_symbol
 _atom_site_label
 _atom_site_symmetry_multiplicity
 _atom_site_fract_x
 _atom_site_fract_y
 _atom_site_fract_z
 _atom_site_occupancy
  Sr  Sr0  1  0.99667597  0.24943099  0.24610700  1
  Sr  Sr1  1  0.01600295  0.75208796  0.76809096  1
  Ca  Ca2  1  0.50095092  0.99910295  0.50005395  1
  Tl  Tl3  1  0.49944896  0.49974197  0.99919098  1
  O  O4  1  0.95733894  0.70172196  0.17719497  1
  O  O5  1  0.48624894  0.76351196  0.80364596  1
  O  O6  1  0.04013398  0.31739698  0.80364598  1
  O  O7  1  0.47547298  0.21985599  0.17719499  1
  O  O8  1  0.58607494  0.72537996  0.31145497  1
  O  O9  1  0.44164898  0.27176899  0.71341799  1
