# generated using pymatgen
data_HoSiRu2C
_symmetry_space_group_name_H-M   'P 1'
_cell_length_a   3.77719212
_cell_length_b   5.88679314
_cell_length_c   7.14239502
_cell_angle_alpha   90.00000000
_cell_angle_beta   90.00000000
_cell_angle_gamma   108.71247101
_symmetry_Int_Tables_number   1
_chemical_formula_structural   HoSiRu2C
_chemical_formula_sum   'Ho2 Si2 Ru4 C2'
_cell_volume   150.42018179
_cell_formula_units_Z   2
loop_
 _symmetry_equiv_pos_site_id
 _symmetry_equiv_pos_as_xyz
  1  'x, y, z'
loop_
 _atom_site_type_symbol
 _atom_site_label
 _atom_site_symmetry_multiplicity
 _atom_site_fract_x
 _atom_site_fract_y
 _atom_site_fract_z
 _atom_site_occupancy
  Ho  Ho0  1  0.45393698  0.90787400  0.75000000  1
  Ho  Ho1  1  0.54606298  0.09212600  0.25000000  1
  Si  Si2  1  0.73233098  0.46466200  0.75000000  1
  Si  Si3  1  0.26766899  0.53533800  0.25000000  1
  Ru  Ru4  1  0.16346099  0.32692200  0.94369400  1
  Ru  Ru5  1  0.83653897  0.67307800  0.05630600  1
  Ru  Ru6  1  0.83653897  0.67307800  0.44369400  1
  Ru  Ru7  1  0.16346099  0.32692200  0.55630600  1
  C  C8  1  0.00000000  0.00000000  0.00000000  1
  C  C9  1  0.00000000  0.00000000  0.50000000  1
