# generated using pymatgen
data_K2CuF4
_symmetry_space_group_name_H-M   'P 1'
_cell_length_a   4.12942410
_cell_length_b   4.12942410
_cell_length_c   7.59337568
_cell_angle_alpha   105.77793121
_cell_angle_beta   105.77793121
_cell_angle_gamma   90.00000000
_symmetry_Int_Tables_number   1
_chemical_formula_structural   K2CuF4
_chemical_formula_sum   'K2 Cu1 F4'
_cell_volume   119.52723536
_cell_formula_units_Z   1
loop_
 _symmetry_equiv_pos_site_id
 _symmetry_equiv_pos_as_xyz
  1  'x, y, z'
loop_
 _atom_site_type_symbol
 _atom_site_label
 _atom_site_symmetry_multiplicity
 _atom_site_fract_x
 _atom_site_fract_y
 _atom_site_fract_z
 _atom_site_occupancy
  K  K0  1  0.64829797  0.64829798  0.29659599  1
  K  K1  1  0.35170199  0.35170199  0.70340401  1
  Cu  Cu2  1  0.00000000  0.00000000  0.00000000  1
  F  F3  1  -0.00000001  0.49999999  -0.00000001  1
  F  F4  1  0.49999999  0.00000000  -0.00000001  1
  F  F5  1  0.85536397  0.85536398  0.71072800  1
  F  F6  1  0.14463599  0.14463600  0.28927201  1
