# generated using pymatgen
data_MnVGe2O7
_symmetry_space_group_name_H-M   'P 1'
_cell_length_a   5.00987101
_cell_length_b   5.61587906
_cell_length_c   5.61587906
_cell_angle_alpha   74.02893829
_cell_angle_beta   82.50043488
_cell_angle_gamma   97.49956512
_symmetry_Int_Tables_number   1
_chemical_formula_structural   MnVGe2O7
_chemical_formula_sum   'Mn1 V1 Ge2 O7'
_cell_volume   148.29011876
_cell_formula_units_Z   1
loop_
 _symmetry_equiv_pos_site_id
 _symmetry_equiv_pos_as_xyz
  1  'x, y, z'
loop_
 _atom_site_type_symbol
 _atom_site_label
 _atom_site_symmetry_multiplicity
 _atom_site_fract_x
 _atom_site_fract_y
 _atom_site_fract_z
 _atom_site_occupancy
  Mn  Mn0  1  0.00000001  0.30803601  0.30803602  1
  V  V1  1  0.00000002  0.69196403  0.69196404  1
  Ge  Ge2  1  0.59452505  0.76673203  0.23326801  1
  Ge  Ge3  1  0.40547502  0.23326801  0.76673203  1
  O  O4  1  0.21075902  0.40441502  0.92582104  1
  O  O5  1  0.78924106  0.92582104  0.40441501  1
  O  O6  1  0.78924105  0.59558502  0.07417900  1
  O  O7  1  0.21075901  0.07417900  0.59558502  1
  O  O8  1  0.50000002  0.00000000  -0.00000001  1
  O  O9  1  0.72554904  0.40957502  0.59042502  1
  O  O10  1  0.27445103  0.59042502  0.40957502  1
