# generated using pymatgen
data_LiVSi2O7
_symmetry_space_group_name_H-M   'P 1'
_cell_length_a   4.85037279
_cell_length_b   5.52417707
_cell_length_c   5.52419567
_cell_angle_alpha   105.84175110
_cell_angle_beta   97.75803375
_cell_angle_gamma   97.75799561
_symmetry_Int_Tables_number   1
_chemical_formula_structural   LiVSi2O7
_chemical_formula_sum   'Li1 V1 Si2 O7'
_cell_volume   138.78035439
_cell_formula_units_Z   1
loop_
 _symmetry_equiv_pos_site_id
 _symmetry_equiv_pos_as_xyz
  1  'x, y, z'
loop_
 _atom_site_type_symbol
 _atom_site_label
 _atom_site_symmetry_multiplicity
 _atom_site_fract_x
 _atom_site_fract_y
 _atom_site_fract_z
 _atom_site_occupancy
  Li  Li0  1  0.28045701  0.31527599  0.93427999  1
  V  V1  1  0.28045905  0.93428097  0.31527899  1
  Si  Si2  1  0.68511703  0.85243697  0.85243699  1
  Si  Si3  1  0.87525799  0.39516399  0.39516400  1
  O  O4  1  0.60536699  0.21622799  0.21622800  1
  O  O5  1  0.02808900  0.00056400  0.00056700  1
  O  O6  1  0.75437201  0.59492298  0.59492100  1
  O  O7  1  0.49051402  0.69477797  0.02349999  1
  O  O8  1  0.49051798  0.02350400  0.69478000  1
  O  O9  1  0.05492603  0.53916298  0.24927999  1
  O  O10  1  0.05492601  0.24928099  0.53916299  1
