# generated using pymatgen
data_Li6MnCoO8
_symmetry_space_group_name_H-M   'P 1'
_cell_length_a   4.05029821
_cell_length_b   5.13516140
_cell_length_c   7.71588612
_cell_angle_alpha   75.44281769
_cell_angle_beta   74.78209686
_cell_angle_gamma   66.77238464
_symmetry_Int_Tables_number   1
_chemical_formula_structural   Li6MnCoO8
_chemical_formula_sum   'Li6 Mn1 Co1 O8'
_cell_volume   140.31177821
_cell_formula_units_Z   1
loop_
 _symmetry_equiv_pos_site_id
 _symmetry_equiv_pos_as_xyz
  1  'x, y, z'
loop_
 _atom_site_type_symbol
 _atom_site_label
 _atom_site_symmetry_multiplicity
 _atom_site_fract_x
 _atom_site_fract_y
 _atom_site_fract_z
 _atom_site_occupancy
  Li  Li0  1  0.24848503  0.37743699  0.12555500  1
  Li  Li1  1  0.24970608  0.87579998  0.62472301  1
  Li  Li2  1  0.49566007  0.75761498  0.25107799  1
  Li  Li3  1  0.50689703  0.23822199  0.74798301  1
  Li  Li4  1  0.75351102  0.11967700  0.37333399  1
  Li  Li5  1  0.74815106  0.62944098  0.87417600  1
  Mn  Mn6  1  0.99601502  0.00648800  0.00149697  1
  Co  Co7  1  0.00419504  0.49190799  0.49971001  1
  O  O8  1  0.98133304  0.26434699  0.77305899  1
  O  O9  1  0.98620308  0.78504298  0.24256198  1
  O  O10  1  0.51353309  0.97963497  0.99331701  1
  O  O11  1  0.51873705  0.47081899  0.49172900  1
  O  O12  1  0.77116604  0.34353399  0.11414998  1
  O  O13  1  0.76814608  0.84669698  0.61698900  1
  O  O14  1  0.23635302  0.14560600  0.38172300  1
  O  O15  1  0.22191106  0.66773098  0.88841502  1
