# generated using pymatgen
data_Nd7Pt3
_symmetry_space_group_name_H-M   'P 1'
_cell_length_a   6.44387197
_cell_length_b   10.06331253
_cell_length_c   10.06331253
_cell_angle_alpha   119.88320923
_cell_angle_beta   90.00000000
_cell_angle_gamma   90.00000000
_symmetry_Int_Tables_number   1
_chemical_formula_structural   Nd7Pt3
_chemical_formula_sum   'Nd14 Pt6'
_cell_volume   565.80835797
_cell_formula_units_Z   2
loop_
 _symmetry_equiv_pos_site_id
 _symmetry_equiv_pos_as_xyz
  1  'x, y, z'
loop_
 _atom_site_type_symbol
 _atom_site_label
 _atom_site_symmetry_multiplicity
 _atom_site_fract_x
 _atom_site_fract_y
 _atom_site_fract_z
 _atom_site_occupancy
  Nd  Nd0  1  0.45558700  0.33333334  0.66666668  1
  Nd  Nd1  1  0.95558700  0.66666668  0.33333331  1
  Nd  Nd2  1  0.24854300  0.12742800  0.87257203  1
  Nd  Nd3  1  0.24821700  0.74541201  0.87274800  1
  Nd  Nd4  1  0.24821700  0.12725200  0.25458800  1
  Nd  Nd5  1  0.74854300  0.87257201  0.12742796  1
  Nd  Nd6  1  0.74821700  0.25458800  0.12725199  1
  Nd  Nd7  1  0.74821700  0.87274801  0.74541199  1
  Nd  Nd8  1  0.44191200  0.53769101  0.46230899  1
  Nd  Nd9  1  0.44188700  0.92425501  0.46213897  1
  Nd  Nd10  1  0.44188700  0.53786101  0.07574498  1
  Nd  Nd11  1  0.94191200  0.46230901  0.53769100  1
  Nd  Nd12  1  0.94188700  0.07574500  0.53786102  1
  Nd  Nd13  1  0.94188700  0.46213901  0.92425501  1
  Pt  Pt14  1  0.18888600  0.81088501  0.18911497  1
  Pt  Pt15  1  0.18893200  0.37829901  0.18922799  1
  Pt  Pt16  1  0.18893200  0.81077201  0.62170098  1
  Pt  Pt17  1  0.68888600  0.18911500  0.81088502  1
  Pt  Pt18  1  0.68893200  0.62170101  0.81077200  1
  Pt  Pt19  1  0.68893200  0.18922800  0.37829901  1
