# generated using pymatgen
data_SrHg2
_symmetry_space_group_name_H-M   'P 1'
_cell_length_a   5.06312418
_cell_length_b   6.44840622
_cell_length_c   6.44840622
_cell_angle_alpha   79.67627716
_cell_angle_beta   66.88441467
_cell_angle_gamma   66.88441467
_symmetry_Int_Tables_number   1
_chemical_formula_structural   SrHg2
_chemical_formula_sum   'Sr2 Hg4'
_cell_volume   178.00762182
_cell_formula_units_Z   2
loop_
 _symmetry_equiv_pos_site_id
 _symmetry_equiv_pos_as_xyz
  1  'x, y, z'
loop_
 _atom_site_type_symbol
 _atom_site_label
 _atom_site_symmetry_multiplicity
 _atom_site_fract_x
 _atom_site_fract_y
 _atom_site_fract_z
 _atom_site_occupancy
  Sr  Sr0  1  0.96072696  0.28927300  0.78927295  1
  Sr  Sr1  1  0.03927292  0.71072700  0.21072704  1
  Hg  Hg2  1  0.66426789  0.88926000  0.78220400  1
  Hg  Hg3  1  0.33573198  0.11074000  0.21779598  1
  Hg  Hg4  1  0.33573191  0.71779600  0.61074001  1
  Hg  Hg5  1  0.66426796  0.28220400  0.38925997  1
