# generated using pymatgen
data_CaYRhPbC
_symmetry_space_group_name_H-M   'P 1'
_cell_length_a   4.09536409
_cell_length_b   4.09536409
_cell_length_c   5.50974417
_cell_angle_alpha   90.00000000
_cell_angle_beta   90.00000000
_cell_angle_gamma   90.00000000
_symmetry_Int_Tables_number   1
_chemical_formula_structural   CaYRhPbC
_chemical_formula_sum   'Ca1 Y1 Rh1 Pb1 C1'
_cell_volume   92.40946808
_cell_formula_units_Z   1
loop_
 _symmetry_equiv_pos_site_id
 _symmetry_equiv_pos_as_xyz
  1  'x, y, z'
loop_
 _atom_site_type_symbol
 _atom_site_label
 _atom_site_symmetry_multiplicity
 _atom_site_fract_x
 _atom_site_fract_y
 _atom_site_fract_z
 _atom_site_occupancy
  Ca  Ca0  1  0.49999999  0.49999999  0.68546698  1
  Y  Y1  1  0.00000000  0.00000000  0.97101397  1
  Pb  Pb2  1  0.49999999  0.00000000  0.19849299  1
  Rh  Rh3  1  0.00000000  0.49999999  0.19849299  1
  C  C4  1  0.00000000  0.00000000  0.55473298  1
