# generated using pymatgen
data_K2AgF3
_symmetry_space_group_name_H-M   'P 1'
_cell_length_a   3.74106193
_cell_length_b   7.43763876
_cell_length_c   9.82592583
_cell_angle_alpha   90.00000000
_cell_angle_beta   90.00000000
_cell_angle_gamma   104.56600952
_symmetry_Int_Tables_number   1
_chemical_formula_structural   K2AgF3
_chemical_formula_sum   'K4 Ag2 F6'
_cell_volume   264.61554038
_cell_formula_units_Z   2
loop_
 _symmetry_equiv_pos_site_id
 _symmetry_equiv_pos_as_xyz
  1  'x, y, z'
loop_
 _atom_site_type_symbol
 _atom_site_label
 _atom_site_symmetry_multiplicity
 _atom_site_fract_x
 _atom_site_fract_y
 _atom_site_fract_z
 _atom_site_occupancy
  K  K0  1  0.00000000  0.00000000  0.50000001  1
  K  K1  1  0.00000000  0.00000000  0.00000000  1
  K  K2  1  0.25447395  0.50894799  0.75000001  1
  K  K3  1  0.74552596  0.49105199  0.25000000  1
  Ag  Ag4  1  0.46429791  0.92859598  0.25000000  1
  Ag  Ag5  1  0.53570200  0.07140400  0.75000001  1
  F  F6  1  0.37917192  0.75834398  0.44761701  1
  F  F7  1  0.62082799  0.24165599  0.55238301  1
  F  F8  1  0.62082799  0.24165599  0.94761702  1
  F  F9  1  0.06251299  0.12502600  0.25000000  1
  F  F10  1  0.93748692  0.87497398  0.75000001  1
  F  F11  1  0.37917192  0.75834398  0.05238300  1
