# generated using pymatgen
data_La3Ge4Pt5
_symmetry_space_group_name_H-M   'P 1'
_cell_length_a   4.59159613
_cell_length_b   4.61834192
_cell_length_c   13.84644985
_cell_angle_alpha   99.60006714
_cell_angle_beta   90.00000000
_cell_angle_gamma   90.00000000
_symmetry_Int_Tables_number   1
_chemical_formula_structural   La3Ge4Pt5
_chemical_formula_sum   'La3 Ge4 Pt5'
_cell_volume   289.50981008
_cell_formula_units_Z   1
loop_
 _symmetry_equiv_pos_site_id
 _symmetry_equiv_pos_as_xyz
  1  'x, y, z'
loop_
 _atom_site_type_symbol
 _atom_site_label
 _atom_site_symmetry_multiplicity
 _atom_site_fract_x
 _atom_site_fract_y
 _atom_site_fract_z
 _atom_site_occupancy
  La  La0  1  0.49999999  0.50000001  0.00000000  1
  La  La1  1  0.00000000  0.18517500  0.37035000  1
  La  La2  1  -0.00000000  0.81482501  0.62965000  1
  Ge  Ge3  1  0.49999999  0.37246401  0.74492800  1
  Ge  Ge4  1  0.49999999  0.62753601  0.25507200  1
  Ge  Ge5  1  0.00000000  0.00000000  0.00000000  1
  Pt  Pt6  1  0.00000000  0.41161301  0.82322600  1
  Ge  Ge7  1  0.99999997  0.58838701  0.17677400  1
  Pt  Pt8  1  0.49999999  0.08906700  0.17813400  1
  Pt  Pt9  1  0.49999999  0.91093302  0.82186600  1
  Pt  Pt10  1  0.49999999  0.28149100  0.56298200  1
  Pt  Pt11  1  0.49999999  0.71850901  0.43701800  1
