# generated using pymatgen
data_La2Si3Pt
_symmetry_space_group_name_H-M   'P 1'
_cell_length_a   4.16839123
_cell_length_b   4.16839123
_cell_length_c   7.46982908
_cell_angle_alpha   90.00000000
_cell_angle_beta   90.00000000
_cell_angle_gamma   90.00000000
_symmetry_Int_Tables_number   1
_chemical_formula_structural   La2Si3Pt
_chemical_formula_sum   'La2 Si3 Pt1'
_cell_volume   129.79190637
_cell_formula_units_Z   1
loop_
 _symmetry_equiv_pos_site_id
 _symmetry_equiv_pos_as_xyz
  1  'x, y, z'
loop_
 _atom_site_type_symbol
 _atom_site_label
 _atom_site_symmetry_multiplicity
 _atom_site_fract_x
 _atom_site_fract_y
 _atom_site_fract_z
 _atom_site_occupancy
  La  La0  1  0.49999997  0.00000000  0.63882199  1
  La  La1  1  -0.00000000  0.49999997  0.36117800  1
  Si  Si2  1  0.00000000  0.00000000  0.00000000  1
  Si  Si3  1  0.49999997  0.49999997  -0.00000000  1
  Si  Si4  1  0.49999997  0.00000000  0.21496700  1
  Pt  Pt5  1  -0.00000000  0.49999997  0.78503299  1
