# generated using pymatgen
data_CaAsO4
_symmetry_space_group_name_H-M   'P 1'
_cell_length_a   5.19905376
_cell_length_b   5.19905376
_cell_length_c   6.97415400
_cell_angle_alpha   111.88452911
_cell_angle_beta   111.88452911
_cell_angle_gamma   90.00000000
_symmetry_Int_Tables_number   1
_chemical_formula_structural   CaAsO4
_chemical_formula_sum   'Ca2 As2 O8'
_cell_volume   160.19502255
_cell_formula_units_Z   2
loop_
 _symmetry_equiv_pos_site_id
 _symmetry_equiv_pos_as_xyz
  1  'x, y, z'
loop_
 _atom_site_type_symbol
 _atom_site_label
 _atom_site_symmetry_multiplicity
 _atom_site_fract_x
 _atom_site_fract_y
 _atom_site_fract_z
 _atom_site_occupancy
  Ca  Ca0  1  0.75000003  0.25000001  0.50000001  1
  Ca  Ca1  1  0.00000000  0.00000000  0.00000000  1
  As  As2  1  0.25000001  0.75000003  0.50000001  1
  As  As3  1  0.50000002  0.50000002  1.00000003  1
  O  O4  1  0.30763901  0.42482802  0.34568001  1
  O  O5  1  0.03804100  0.92085204  0.34568101  1
  O  O6  1  0.17482901  0.28804201  0.84568103  1
  O  O7  1  0.67085203  0.55763902  0.84568002  1
  O  O8  1  0.44236102  0.82517204  0.15432000  1
  O  O9  1  0.71195903  0.32914801  0.15431900  1
  O  O10  1  0.57517102  0.96195804  0.65431902  1
  O  O11  1  0.07914800  0.69236103  0.65432002  1
