# generated using pymatgen
data_Sr2CuO4
_symmetry_space_group_name_H-M   'P 1'
_cell_length_a   3.78073406
_cell_length_b   3.78073406
_cell_length_c   6.80187511
_cell_angle_alpha   106.13601685
_cell_angle_beta   106.13601685
_cell_angle_gamma   90.00000000
_symmetry_Int_Tables_number   1
_chemical_formula_structural   Sr2CuO4
_chemical_formula_sum   'Sr2 Cu1 O4'
_cell_volume   89.40123368
_cell_formula_units_Z   1
loop_
 _symmetry_equiv_pos_site_id
 _symmetry_equiv_pos_as_xyz
  1  'x, y, z'
loop_
 _atom_site_type_symbol
 _atom_site_label
 _atom_site_symmetry_multiplicity
 _atom_site_fract_x
 _atom_site_fract_y
 _atom_site_fract_z
 _atom_site_occupancy
  Sr  Sr0  1  0.64347302  0.64347300  0.28694605  1
  Sr  Sr1  1  0.35944201  0.35944200  0.71888404  1
  Cu  Cu2  1  0.00444900  0.00444900  0.00889800  1
  O  O3  1  0.83916003  0.83916000  0.67832007  1
  O  O4  1  0.16459901  0.16459900  0.32919802  1
  O  O5  1  0.99443902  0.49443900  0.98887807  1
  O  O6  1  0.49443903  0.99443900  0.98887808  1
