# generated using pymatgen
data_Cs2CoNi6N7
_symmetry_space_group_name_H-M   'P 1'
_cell_length_a   6.90046692
_cell_length_b   6.90046692
_cell_length_c   6.90046692
_cell_angle_alpha   60.00000000
_cell_angle_beta   60.00000000
_cell_angle_gamma   60.00000000
_symmetry_Int_Tables_number   1
_chemical_formula_structural   Cs2CoNi6N7
_chemical_formula_sum   'Cs2 Co1 Ni6 N7'
_cell_volume   232.33810175
_cell_formula_units_Z   1
loop_
 _symmetry_equiv_pos_site_id
 _symmetry_equiv_pos_as_xyz
  1  'x, y, z'
loop_
 _atom_site_type_symbol
 _atom_site_label
 _atom_site_symmetry_multiplicity
 _atom_site_fract_x
 _atom_site_fract_y
 _atom_site_fract_z
 _atom_site_occupancy
  Cs  Cs0  1  0.50000001  0.50000001  0.50000001  1
  Cs  Cs1  1  0.00000000  0.00000000  0.00000000  1
  Co  Co2  1  0.50000001  0.00000000  0.50000001  1
  Ni  Ni3  1  0.50000001  0.50000001  -0.00000000  1
  Ni  Ni4  1  -0.00000000  0.50000001  0.50000001  1
  Ni  Ni5  1  -0.00000000  0.50000001  -0.00000000  1
  Ni  Ni6  1  0.50000001  0.00000000  -0.00000000  1
  Ni  Ni7  1  -0.00000000  0.00000000  0.50000001  1
  N  N8  1  0.57495101  0.14168300  0.14168300  1
  Ni  Ni9  1  0.85831701  0.85831701  0.42504900  1
  N  N10  1  0.85831701  0.42504900  0.85831701  1
  N  N11  1  0.85831701  0.85831701  0.85831701  1
  N  N12  1  0.14168300  0.57495101  0.14168300  1
  N  N13  1  0.14168300  0.14168300  0.14168300  1
  N  N14  1  0.42504900  0.85831701  0.85831701  1
  N  N15  1  0.14168300  0.14168300  0.57495101  1
