# generated using pymatgen
data_Li2V2PO9
_symmetry_space_group_name_H-M   'P 1'
_cell_length_a   4.37313080
_cell_length_b   4.37313080
_cell_length_c   9.39948845
_cell_angle_alpha   89.99999237
_cell_angle_beta   89.99999237
_cell_angle_gamma   90.00000000
_symmetry_Int_Tables_number   1
_chemical_formula_structural   Li2V2PO9
_chemical_formula_sum   'Li2 V2 P1 O9'
_cell_volume   179.75838297
_cell_formula_units_Z   1
loop_
 _symmetry_equiv_pos_site_id
 _symmetry_equiv_pos_as_xyz
  1  'x, y, z'
loop_
 _atom_site_type_symbol
 _atom_site_label
 _atom_site_symmetry_multiplicity
 _atom_site_fract_x
 _atom_site_fract_y
 _atom_site_fract_z
 _atom_site_occupancy
  Li  Li0  1  0.50000002  0.50000002  -0.00000001  1
  Li  Li1  1  0.00000000  0.00000000  0.49999998  1
  V  V2  1  0.00000000  0.50000002  0.24999998  1
  V  V3  1  0.50000002  0.00000000  0.74999996  1
  O  O4  1  0.00000000  0.00000000  0.00000000  1
  P  P5  1  0.50000002  0.50000002  0.49999996  1
  O  O6  1  0.21990601  0.19049201  0.90410195  1
  O  O7  1  0.71990603  0.69049203  0.40410196  1
  O  O8  1  0.30950901  0.71990603  0.59589796  1
  O  O9  1  0.80950904  0.21990601  0.09589798  1
  O  O10  1  0.78009304  0.80950904  0.90410194  1
  O  O11  1  0.28009301  0.30950901  0.40410197  1
  O  O12  1  0.69049203  0.28009301  0.59589796  1
  O  O13  1  0.19049201  0.78009304  0.09589798  1
