# generated using pymatgen
data_Li2VO3
_symmetry_space_group_name_H-M   'P 1'
_cell_length_a   5.21936941
_cell_length_b   5.21936941
_cell_length_c   6.76519203
_cell_angle_alpha   90.00000000
_cell_angle_beta   90.00000000
_cell_angle_gamma   111.86783600
_symmetry_Int_Tables_number   1
_chemical_formula_structural   Li2VO3
_chemical_formula_sum   'Li4 V2 O6'
_cell_volume   171.03518657
_cell_formula_units_Z   2
loop_
 _symmetry_equiv_pos_site_id
 _symmetry_equiv_pos_as_xyz
  1  'x, y, z'
loop_
 _atom_site_type_symbol
 _atom_site_label
 _atom_site_symmetry_multiplicity
 _atom_site_fract_x
 _atom_site_fract_y
 _atom_site_fract_z
 _atom_site_occupancy
  Li  Li0  1  0.36069903  0.63930099  0.25000000  1
  Li  Li1  1  0.63930100  0.36069899  0.75000000  1
  Li  Li2  1  0.00000000  0.00000000  0.00000000  1
  Li  Li3  1  0.00000000  0.00000000  0.50000000  1
  O  O4  1  0.21698601  0.26592600  0.25000000  1
  V  V5  1  0.26592600  0.21698600  0.75000000  1
  V  V6  1  0.78301401  0.73407399  0.75000000  1
  O  O7  1  0.73407402  0.78301399  0.25000000  1
  O  O8  1  0.75256498  0.24743500  0.95442800  1
  O  O9  1  0.24743504  0.75256499  0.04557200  1
  O  O10  1  0.75256498  0.24743500  0.54557200  1
  O  O11  1  0.24743504  0.75256499  0.45442800  1
