# generated using pymatgen
data_Ca2TaRuO6
_symmetry_space_group_name_H-M   'P 1'
_cell_length_a   5.39348316
_cell_length_b   5.82053280
_cell_length_c   7.71308231
_cell_angle_alpha   90.00000000
_cell_angle_beta   90.70598602
_cell_angle_gamma   90.00000000
_symmetry_Int_Tables_number   1
_chemical_formula_structural   Ca2TaRuO6
_chemical_formula_sum   'Ca4 Ta2 Ru2 O12'
_cell_volume   242.11799271
_cell_formula_units_Z   2
loop_
 _symmetry_equiv_pos_site_id
 _symmetry_equiv_pos_as_xyz
  1  'x, y, z'
loop_
 _atom_site_type_symbol
 _atom_site_label
 _atom_site_symmetry_multiplicity
 _atom_site_fract_x
 _atom_site_fract_y
 _atom_site_fract_z
 _atom_site_occupancy
  Ca  Ca0  1  0.00000000  0.00000000  0.00000000  1
  Ca  Ca1  1  0.49999998  0.50000002  0.49999999  1
  Ca  Ca2  1  0.47932799  0.92221003  0.25212199  1
  Ca  Ca3  1  0.02067200  0.42221001  0.24787801  1
  Ta  Ta4  1  0.97932797  0.57779002  0.75212198  1
  Ta  Ta5  1  0.52067198  0.07779000  0.74787800  1
  Ru  Ru6  1  0.49999998  0.50000002  1.00000000  1
  Ru  Ru7  1  0.00000000  0.00000000  0.50000001  1
  O  O8  1  0.17557699  0.70868502  0.44320100  1
  O  O9  1  0.32442299  0.20868501  0.05679899  1
  O  O10  1  0.82442297  0.29131501  0.55679898  1
  O  O11  1  0.67557698  0.79131503  0.94320099  1
  O  O12  1  0.10749900  0.96537103  0.74621202  1
  O  O13  1  0.39250099  0.46537102  0.75378800  1
  O  O14  1  0.19595199  0.68531702  0.05166199  1
  O  O15  1  0.30404799  0.18531701  0.44833800  1
  O  O16  1  0.80404798  0.31468301  0.94833799  1
  O  O17  1  0.69595198  0.81468303  0.55166198  1
  O  O18  1  0.60749898  0.53462902  0.24621198  1
  O  O19  1  0.89250097  0.03462900  0.25378797  1
