# generated using pymatgen
data_Yb3Ge5
_symmetry_space_group_name_H-M   'P 1'
_cell_length_a   4.30009604
_cell_length_b   6.95098591
_cell_length_c   6.95098543
_cell_angle_alpha   120.00000000
_cell_angle_beta   90.00000000
_cell_angle_gamma   90.00000000
_symmetry_Int_Tables_number   1
_chemical_formula_structural   Yb3Ge5
_chemical_formula_sum   'Yb3 Ge5'
_cell_volume   179.92916849
_cell_formula_units_Z   1
loop_
 _symmetry_equiv_pos_site_id
 _symmetry_equiv_pos_as_xyz
  1  'x, y, z'
loop_
 _atom_site_type_symbol
 _atom_site_label
 _atom_site_symmetry_multiplicity
 _atom_site_fract_x
 _atom_site_fract_y
 _atom_site_fract_z
 _atom_site_occupancy
  Yb  Yb0  1  0.50000000  0.00000000  0.64277402  1
  Yb  Yb1  1  0.50000000  0.64277400  -0.00000002  1
  Yb  Yb2  1  0.50000000  0.35722600  0.35722600  1
  Ge  Ge3  1  -0.00000000  0.33333333  0.66666667  1
  Ge  Ge4  1  -0.00000000  0.66666666  0.33333332  1
  Ge  Ge5  1  0.00000000  0.00000000  0.26850601  1
  Ge  Ge6  1  0.99999999  0.73149400  0.73149399  1
  Ge  Ge7  1  -0.00000000  0.26850600  -0.00000001  1
