# generated using pymatgen
data_Zr5Sn7Pt6
_symmetry_space_group_name_H-M   'P 1'
_cell_length_a   7.24506617
_cell_length_b   7.24506569
_cell_length_c   7.47163677
_cell_angle_alpha   90.00000000
_cell_angle_beta   90.00000000
_cell_angle_gamma   120.00000000
_symmetry_Int_Tables_number   1
_chemical_formula_structural   Zr5Sn7Pt6
_chemical_formula_sum   'Zr5 Sn7 Pt6'
_cell_volume   339.64956760
_cell_formula_units_Z   1
loop_
 _symmetry_equiv_pos_site_id
 _symmetry_equiv_pos_as_xyz
  1  'x, y, z'
loop_
 _atom_site_type_symbol
 _atom_site_label
 _atom_site_symmetry_multiplicity
 _atom_site_fract_x
 _atom_site_fract_y
 _atom_site_fract_z
 _atom_site_occupancy
  Zr  Zr0  1  0.41000898  0.39583700  0.25000001  1
  Zr  Zr1  1  0.98582797  0.58999101  0.25000001  1
  Zr  Zr2  1  0.60416299  0.01417200  0.25000001  1
  Zr  Zr3  1  0.01417199  0.60416301  0.75000002  1
  Zr  Zr4  1  0.39583698  0.41000900  0.75000002  1
  Sn  Sn5  1  0.58999097  0.98582801  0.75000002  1
  Sn  Sn6  1  0.26003099  0.00000000  -0.00000000  1
  Sn  Sn7  1  0.73996897  0.73996901  1.00000003  1
  Sn  Sn8  1  -0.00000000  0.26003100  -0.00000000  1
  Sn  Sn9  1  0.26003099  0.00000000  0.50000002  1
  Sn  Sn10  1  0.73996897  0.73996901  0.50000002  1
  Sn  Sn11  1  -0.00000000  0.26003100  0.50000002  1
  Pt  Pt12  1  0.00000000  0.00000000  0.25000001  1
  Pt  Pt13  1  0.00000000  0.00000000  0.75000002  1
  Pt  Pt14  1  0.33333331  0.66666667  0.01949300  1
  Pt  Pt15  1  0.33333331  0.66666667  0.48050701  1
  Pt  Pt16  1  0.66666665  0.33333334  0.51949302  1
  Pt  Pt17  1  0.66666665  0.33333334  0.98050703  1
