# generated using pymatgen
data_BaYCuBO5
_symmetry_space_group_name_H-M   'P 1'
_cell_length_a   5.52725887
_cell_length_b   5.52725887
_cell_length_c   7.58966684
_cell_angle_alpha   90.00000000
_cell_angle_beta   90.00000000
_cell_angle_gamma   90.00000000
_symmetry_Int_Tables_number   1
_chemical_formula_structural   BaYCuBO5
_chemical_formula_sum   'Ba2 Y2 Cu2 B2 O10'
_cell_volume   231.86880490
_cell_formula_units_Z   2
loop_
 _symmetry_equiv_pos_site_id
 _symmetry_equiv_pos_as_xyz
  1  'x, y, z'
loop_
 _atom_site_type_symbol
 _atom_site_label
 _atom_site_symmetry_multiplicity
 _atom_site_fract_x
 _atom_site_fract_y
 _atom_site_fract_z
 _atom_site_occupancy
  Ba  Ba0  1  0.00000000  0.00000000  0.00784700  1
  Ba  Ba1  1  0.50000001  0.50000001  0.00784700  1
  Y  Y2  1  0.00000000  0.00000000  0.51322401  1
  Y  Y3  1  0.50000001  0.50000001  0.51322401  1
  Cu  Cu4  1  0.50000001  0.00000000  0.73194002  1
  Cu  Cu5  1  -0.00000000  0.50000001  0.73194002  1
  B  B6  1  0.50000001  0.00000000  0.25304701  1
  B  B7  1  -0.00000000  0.50000001  0.25304701  1
  O  O8  1  0.15626300  0.65626302  0.34031801  1
  O  O9  1  0.84373702  0.34373701  0.34031801  1
  O  O10  1  0.34373701  0.15626300  0.34031801  1
  O  O11  1  0.65626302  0.84373702  0.34031801  1
  O  O12  1  0.50000001  0.00000000  0.06868500  1
  O  O13  1  -0.00000000  0.50000001  0.06868500  1
  O  O14  1  0.25249501  0.75249502  0.71381001  1
  O  O15  1  0.74750502  0.24750501  0.71381001  1
  O  O16  1  0.24750501  0.25249501  0.71381001  1
  O  O17  1  0.75249502  0.74750502  0.71381001  1
