# generated using pymatgen
data_Li2Sn
_symmetry_space_group_name_H-M   'P 1'
_cell_length_a   4.54708481
_cell_length_b   7.66810322
_cell_length_c   8.50153255
_cell_angle_alpha   90.00000000
_cell_angle_beta   90.00000000
_cell_angle_gamma   90.00000000
_symmetry_Int_Tables_number   1
_chemical_formula_structural   Li2Sn
_chemical_formula_sum   'Li8 Sn4'
_cell_volume   296.42731941
_cell_formula_units_Z   4
loop_
 _symmetry_equiv_pos_site_id
 _symmetry_equiv_pos_as_xyz
  1  'x, y, z'
loop_
 _atom_site_type_symbol
 _atom_site_label
 _atom_site_symmetry_multiplicity
 _atom_site_fract_x
 _atom_site_fract_y
 _atom_site_fract_z
 _atom_site_occupancy
  Li  Li0  1  0.25000001  0.98257697  0.68219404  1
  Li  Li1  1  0.25000001  0.48257699  0.81780604  1
  Li  Li2  1  0.75000003  0.51742299  0.18219401  1
  Li  Li3  1  0.75000003  0.01742300  0.31780602  1
  Li  Li4  1  0.75000003  0.64438498  0.56436003  1
  Li  Li5  1  0.75000003  0.14438500  0.93564005  1
  Li  Li6  1  0.25000001  0.85561498  0.06436000  1
  Li  Li7  1  0.25000001  0.35561499  0.43564002  1
  Sn  Sn8  1  0.75000003  0.27374099  0.61228303  1
  Sn  Sn9  1  0.75000003  0.77374098  0.88771705  1
  Sn  Sn10  1  0.25000001  0.22625899  0.11228301  1
  Sn  Sn11  1  0.25000001  0.72625898  0.38771702  1
