# generated using pymatgen
data_TlSn6SbSe12
_symmetry_space_group_name_H-M   'P 1'
_cell_length_a   10.04768372
_cell_length_b   10.09793854
_cell_length_c   10.09793854
_cell_angle_alpha   70.42819214
_cell_angle_beta   70.62956238
_cell_angle_gamma   109.37043762
_symmetry_Int_Tables_number   1
_chemical_formula_structural   TlSn6SbSe12
_chemical_formula_sum   'Tl1 Sn6 Sb1 Se12'
_cell_volume   789.67468225
_cell_formula_units_Z   1
loop_
 _symmetry_equiv_pos_site_id
 _symmetry_equiv_pos_as_xyz
  1  'x, y, z'
loop_
 _atom_site_type_symbol
 _atom_site_label
 _atom_site_symmetry_multiplicity
 _atom_site_fract_x
 _atom_site_fract_y
 _atom_site_fract_z
 _atom_site_occupancy
  Sn  Sn0  1  0.18149200  0.01612300  0.76054403  1
  Tl  Tl1  1  0.16536899  0.22333299  0.01612302  1
  Sn  Sn2  1  0.94203596  0.76054398  0.22333309  1
  Sn  Sn3  1  0.44203595  0.77666698  0.23945608  1
  Sn  Sn4  1  0.66536894  0.98387698  0.77666711  1
  Sn  Sn5  1  0.68149199  0.23945599  0.98387706  1
  Sn  Sn6  1  0.81850794  0.98387698  0.23945610  1
  Sb  Sb7  1  0.83463096  0.77666698  0.98387711  1
  Se  Se8  1  0.05796398  0.23945599  0.77666704  1
  Se  Se9  1  0.55796399  0.22333299  0.76054405  1
  Se  Se10  1  0.33463101  0.01612300  0.22333302  1
  Se  Se11  1  0.31850795  0.76054398  0.01612307  1
  Se  Se12  1  0.24999993  0.99999998  0.00000008  1
  Se  Se13  1  0.74999994  0.99999998  0.00000009  1
  Se  Se14  1  0.24999995  0.74334498  0.74334508  1
  Se  Se15  1  0.50665497  0.51330999  0.74334507  1
  Se  Se16  1  0.99334496  0.74334498  0.51331010  1
  Se  Se17  1  0.49334497  0.48668999  0.25665506  1
  Se  Se18  1  0.00665498  0.25665499  0.48669003  1
  Se  Se19  1  0.74999999  0.25665499  0.25665505  1
