# generated using pymatgen
data_CaGa2
_symmetry_space_group_name_H-M   'P 1'
_cell_length_a   4.55068779
_cell_length_b   5.78596401
_cell_length_c   5.83305120
_cell_angle_alpha   78.84053040
_cell_angle_beta   67.04065704
_cell_angle_gamma   66.84297943
_symmetry_Int_Tables_number   1
_chemical_formula_structural   CaGa2
_chemical_formula_sum   'Ca2 Ga4'
_cell_volume   129.87798280
_cell_formula_units_Z   2
loop_
 _symmetry_equiv_pos_site_id
 _symmetry_equiv_pos_as_xyz
  1  'x, y, z'
loop_
 _atom_site_type_symbol
 _atom_site_label
 _atom_site_symmetry_multiplicity
 _atom_site_fract_x
 _atom_site_fract_y
 _atom_site_fract_z
 _atom_site_occupancy
  Ca  Ca0  1  0.45574504  0.29384698  0.79466301  1
  Ca  Ca1  1  0.54354107  0.70783296  0.20508502  1
  Ga  Ga2  1  0.16440402  0.28375898  0.38743301  1
  Ga  Ga3  1  0.16545306  0.88698695  0.78210702  1
  Ga  Ga4  1  0.83525505  0.10773399  0.22175600  1
  Ga  Ga5  1  0.83560108  0.71984196  0.60895602  1
