# generated using pymatgen
data_Tb2NdTm2Tl3
_symmetry_space_group_name_H-M   'P 1'
_cell_length_a   6.10145283
_cell_length_b   6.82750988
_cell_length_c   6.82750988
_cell_angle_alpha   120.00000000
_cell_angle_beta   90.00000000
_cell_angle_gamma   90.00000000
_symmetry_Int_Tables_number   1
_chemical_formula_structural   Tb2NdTm2Tl3
_chemical_formula_sum   'Tb2 Nd1 Tm2 Tl3'
_cell_volume   246.31369782
_cell_formula_units_Z   1
loop_
 _symmetry_equiv_pos_site_id
 _symmetry_equiv_pos_as_xyz
  1  'x, y, z'
loop_
 _atom_site_type_symbol
 _atom_site_label
 _atom_site_symmetry_multiplicity
 _atom_site_fract_x
 _atom_site_fract_y
 _atom_site_fract_z
 _atom_site_occupancy
  Tm  Tm0  1  0.25000001  0.66666668  0.33333333  1
  Tb  Tb1  1  0.75000002  0.33333334  0.66666667  1
  Tb  Tb2  1  0.75000002  0.82842301  0.17157799  1
  Nd  Nd3  1  0.75000002  0.34315500  0.17157800  1
  Tm  Tm4  1  0.75000002  0.82842301  0.65684600  1
  Tl  Tl5  1  0.25000001  0.17157700  0.82842200  1
  Tl  Tl6  1  0.25000001  0.65684501  0.82842200  1
  Tl  Tl7  1  0.25000001  0.17157700  0.34315400  1
