# generated using pymatgen
data_La3InBi5
_symmetry_space_group_name_H-M   'P 1'
_cell_length_a   6.57426214
_cell_length_b   9.77964973
_cell_length_c   9.77965069
_cell_angle_alpha   120.00000000
_cell_angle_beta   90.00000000
_cell_angle_gamma   90.00000000
_symmetry_Int_Tables_number   1
_chemical_formula_structural   La3InBi5
_chemical_formula_sum   'La6 In2 Bi10'
_cell_volume   544.53311033
_cell_formula_units_Z   2
loop_
 _symmetry_equiv_pos_site_id
 _symmetry_equiv_pos_as_xyz
  1  'x, y, z'
loop_
 _atom_site_type_symbol
 _atom_site_label
 _atom_site_symmetry_multiplicity
 _atom_site_fract_x
 _atom_site_fract_y
 _atom_site_fract_z
 _atom_site_occupancy
  La  La0  1  0.74999998  0.62048503  1.00000001  1
  La  La1  1  0.74999998  1.00000005  0.62048503  1
  La  La2  1  0.24999999  1.00000005  0.37951503  1
  La  La3  1  0.74999998  0.37951502  0.37951501  1
  La  La4  1  0.24999999  0.37951502  1.00000000  1
  La  La5  1  0.24999999  0.62048503  0.62048502  1
  In  In6  1  0.00000000  0.00000000  0.00000000  1
  In  In7  1  0.49999999  0.00000000  -0.00000000  1
  Bi  Bi8  1  0.49999999  0.33333335  0.66666667  1
  Bi  Bi9  1  0.24999999  0.25247901  0.25247901  1
  Bi  Bi10  1  -0.00000000  0.33333335  0.66666667  1
  Bi  Bi11  1  0.74999998  1.00000005  0.25247904  1
  Bi  Bi12  1  0.49999999  0.66666670  0.33333336  1
  Bi  Bi13  1  0.74999998  0.74752103  0.74752102  1
  Bi  Bi14  1  0.24999999  1.00000005  0.74752103  1
  Bi  Bi15  1  0.74999998  0.25247901  0.00000001  1
  Bi  Bi16  1  -0.00000000  0.66666670  0.33333336  1
  Bi  Bi17  1  0.24999999  0.74752103  0.00000003  1
