# generated using pymatgen
data_LaAlGe2Rh
_symmetry_space_group_name_H-M   'P 1'
_cell_length_a   4.47603989
_cell_length_b   4.47603989
_cell_length_c   5.99668312
_cell_angle_alpha   111.91370392
_cell_angle_beta   111.91370392
_cell_angle_gamma   90.00000000
_symmetry_Int_Tables_number   1
_chemical_formula_structural   LaAlGe2Rh
_chemical_formula_sum   'La1 Al1 Ge2 Rh1'
_cell_volume   102.04595876
_cell_formula_units_Z   1
loop_
 _symmetry_equiv_pos_site_id
 _symmetry_equiv_pos_as_xyz
  1  'x, y, z'
loop_
 _atom_site_type_symbol
 _atom_site_label
 _atom_site_symmetry_multiplicity
 _atom_site_fract_x
 _atom_site_fract_y
 _atom_site_fract_z
 _atom_site_occupancy
  La  La0  1  0.42061804  0.42061802  0.84123608  1
  Al  Al1  1  0.15756305  0.65756304  0.31512606  1
  Ge  Ge2  1  0.65756304  0.15756301  0.31512605  1
  Ge  Ge3  1  0.99952411  0.99952406  0.99904815  1
  Rh  Rh4  1  0.76169208  0.76169204  0.52338410  1
