# generated using pymatgen
data_CsK3
_symmetry_space_group_name_H-M   'P 1'
_cell_length_a   6.53884220
_cell_length_b   6.53884268
_cell_length_c   11.59241676
_cell_angle_alpha   90.00000000
_cell_angle_beta   90.00000000
_cell_angle_gamma   120.00000000
_symmetry_Int_Tables_number   1
_chemical_formula_structural   CsK3
_chemical_formula_sum   'Cs2 K6'
_cell_volume   429.24610528
_cell_formula_units_Z   2
loop_
 _symmetry_equiv_pos_site_id
 _symmetry_equiv_pos_as_xyz
  1  'x, y, z'
loop_
 _atom_site_type_symbol
 _atom_site_label
 _atom_site_symmetry_multiplicity
 _atom_site_fract_x
 _atom_site_fract_y
 _atom_site_fract_z
 _atom_site_occupancy
  Cs  Cs0  1  0.66666667  0.33333334  0.08167800  1
  Cs  Cs1  1  0.33333337  0.66666668  0.58167801  1
  K  K2  1  0.00000000  0.00000000  0.75000002  1
  K  K3  1  0.33333337  0.66666668  0.91832202  1
  K  K4  1  0.00000000  0.00000000  0.25000001  1
  K  K5  1  0.66666667  0.33333334  0.41832201  1
  K  K6  1  0.33333337  0.66666668  0.25000001  1
  K  K7  1  0.66666667  0.33333334  0.75000002  1
