# generated using pymatgen
data_YSnPt
_symmetry_space_group_name_H-M   'P 1'
_cell_length_a   4.44425392
_cell_length_b   6.88537312
_cell_length_c   8.05381584
_cell_angle_alpha   90.00000000
_cell_angle_beta   90.00000000
_cell_angle_gamma   90.00000000
_symmetry_Int_Tables_number   1
_chemical_formula_structural   YSnPt
_chemical_formula_sum   'Y4 Sn4 Pt4'
_cell_volume   246.44955516
_cell_formula_units_Z   4
loop_
 _symmetry_equiv_pos_site_id
 _symmetry_equiv_pos_as_xyz
  1  'x, y, z'
loop_
 _atom_site_type_symbol
 _atom_site_label
 _atom_site_symmetry_multiplicity
 _atom_site_fract_x
 _atom_site_fract_y
 _atom_site_fract_z
 _atom_site_occupancy
  Y  Y0  1  0.25000000  0.53259999  0.19647200  1
  Y  Y1  1  0.75000001  0.46739999  0.80352802  1
  Y  Y2  1  0.25000000  0.03260000  0.30352801  1
  Y  Y3  1  0.75000001  0.96739998  0.69647201  1
  Sn  Sn4  1  0.25000000  0.15406600  0.93185902  1
  Sn  Sn5  1  0.75000001  0.84593399  0.06814100  1
  Sn  Sn6  1  0.25000000  0.65406599  0.56814101  1
  Sn  Sn7  1  0.75000001  0.34593399  0.43185901  1
  Pt  Pt8  1  0.75000001  0.74062199  0.39228501  1
  Pt  Pt9  1  0.25000000  0.25937800  0.60771501  1
  Pt  Pt10  1  0.75000001  0.24062200  0.10771500  1
  Pt  Pt11  1  0.25000000  0.75937799  0.89228502  1
