# generated using pymatgen
data_Mg2Ga
_symmetry_space_group_name_H-M   'P 1'
_cell_length_a   3.09395194
_cell_length_b   5.91203547
_cell_length_c   6.87518358
_cell_angle_alpha   104.34136963
_cell_angle_beta   90.00000000
_cell_angle_gamma   105.16891479
_symmetry_Int_Tables_number   1
_chemical_formula_structural   Mg2Ga
_chemical_formula_sum   'Mg4 Ga2'
_cell_volume   117.31095595
_cell_formula_units_Z   2
loop_
 _symmetry_equiv_pos_site_id
 _symmetry_equiv_pos_as_xyz
  1  'x, y, z'
loop_
 _atom_site_type_symbol
 _atom_site_label
 _atom_site_symmetry_multiplicity
 _atom_site_fract_x
 _atom_site_fract_y
 _atom_site_fract_z
 _atom_site_occupancy
  Mg  Mg0  1  0.17445303  0.34890601  0.11987001  1
  Mg  Mg1  1  0.86457708  0.72915403  0.46277903  1
  Mg  Mg2  1  0.13542302  0.27084601  0.53722101  1
  Mg  Mg3  1  0.82554707  0.65109402  0.88013002  1
  Ga  Ga4  1  0.47425509  0.94851003  0.20032404  1
  Ga  Ga5  1  0.52574501  0.05149000  0.79967600  1
