# generated using pymatgen
data_Mn2ZnTe4
_symmetry_space_group_name_H-M   'P 1'
_cell_length_a   8.18582630
_cell_length_b   8.18582630
_cell_length_c   8.18582630
_cell_angle_alpha   60.00000000
_cell_angle_beta   60.00000000
_cell_angle_gamma   60.00000000
_symmetry_Int_Tables_number   1
_chemical_formula_structural   Mn2ZnTe4
_chemical_formula_sum   'Mn4 Zn2 Te8'
_cell_volume   387.85784219
_cell_formula_units_Z   2
loop_
 _symmetry_equiv_pos_site_id
 _symmetry_equiv_pos_as_xyz
  1  'x, y, z'
loop_
 _atom_site_type_symbol
 _atom_site_label
 _atom_site_symmetry_multiplicity
 _atom_site_fract_x
 _atom_site_fract_y
 _atom_site_fract_z
 _atom_site_occupancy
  Mn  Mn0  1  0.49999998  0.49999998  0.49999998  1
  Mn  Mn1  1  0.24999999  0.24999999  0.24999999  1
  Mn  Mn2  1  0.87499996  0.87499996  0.37499998  1
  Mn  Mn3  1  0.37499998  0.87499996  0.87499996  1
  Zn  Zn4  1  0.87499996  0.87499996  0.87499996  1
  Zn  Zn5  1  0.87499996  0.37499998  0.87499996  1
  Te  Te6  1  0.09644000  0.63451997  0.63451997  1
  Te  Te7  1  0.11548099  0.11547999  0.65355897  1
  Te  Te8  1  0.11548099  0.65355897  0.11547999  1
  Te  Te9  1  0.11548099  0.11547999  0.11547999  1
  Te  Te10  1  0.63451897  0.09644100  0.63451997  1
  Te  Te11  1  0.63451897  0.63451997  0.63451997  1
  Te  Te12  1  0.65355997  0.11547999  0.11547999  1
  Te  Te13  1  0.63451897  0.63451997  0.09644100  1
