# generated using pymatgen
data_Ca2PbO4
_symmetry_space_group_name_H-M   'P 1'
_cell_length_a   3.58169603
_cell_length_b   3.79839396
_cell_length_c   6.97237635
_cell_angle_alpha   105.80646515
_cell_angle_beta   104.88317871
_cell_angle_gamma   90.00000000
_symmetry_Int_Tables_number   1
_chemical_formula_structural   Ca2PbO4
_chemical_formula_sum   'Ca2 Pb1 O4'
_cell_volume   87.95825002
_cell_formula_units_Z   1
loop_
 _symmetry_equiv_pos_site_id
 _symmetry_equiv_pos_as_xyz
  1  'x, y, z'
loop_
 _atom_site_type_symbol
 _atom_site_label
 _atom_site_symmetry_multiplicity
 _atom_site_fract_x
 _atom_site_fract_y
 _atom_site_fract_z
 _atom_site_occupancy
  Ca  Ca0  1  0.00000000  0.00000000  0.00000000  1
  Ca  Ca1  1  0.63655403  0.63655402  0.27310805  1
  Pb  Pb2  1  0.36344602  0.36344601  0.72689205  1
  O  O3  1  0.50000000  0.00000000  1.00000005  1
  O  O4  1  0.00000002  0.50000002  0.00000002  1
  O  O5  1  0.17722601  0.17722601  0.35445202  1
  O  O6  1  0.82277404  0.82277402  0.64554808  1
