# generated using pymatgen
data_K2Mo2Se5
_symmetry_space_group_name_H-M   'P 1'
_cell_length_a   6.43102980
_cell_length_b   6.46558094
_cell_length_c   13.85333347
_cell_angle_alpha   83.37125397
_cell_angle_beta   76.57859802
_cell_angle_gamma   60.17661667
_symmetry_Int_Tables_number   1
_chemical_formula_structural   K2Mo2Se5
_chemical_formula_sum   'K4 Mo4 Se10'
_cell_volume   486.09066118
_cell_formula_units_Z   2
loop_
 _symmetry_equiv_pos_site_id
 _symmetry_equiv_pos_as_xyz
  1  'x, y, z'
loop_
 _atom_site_type_symbol
 _atom_site_label
 _atom_site_symmetry_multiplicity
 _atom_site_fract_x
 _atom_site_fract_y
 _atom_site_fract_z
 _atom_site_occupancy
  K  K0  1  0.32336802  0.50000001  0.35326398  1
  K  K1  1  0.17663202  0.50000001  0.64673597  1
  K  K2  1  0.42663204  1.00000001  0.14673597  1
  K  K3  1  0.57336801  0.00000000  0.85326399  1
  Mo  Mo4  1  0.75092905  1.00000001  0.49814197  1
  Mo  Mo5  1  0.50092903  0.50000001  0.99814197  1
  Mo  Mo6  1  0.99907104  0.50000001  0.00185800  1
  Mo  Mo7  1  0.00000000  0.00000000  0.00000000  1
  Se  Se8  1  0.75000003  0.50000001  0.49999998  1
  Se  Se9  1  0.24907101  0.00000000  0.50185799  1
  Se  Se10  1  0.76659503  0.33274900  0.12267200  1
  Se  Se11  1  0.11073402  0.66725001  0.12267198  1
  Se  Se12  1  0.90065703  0.33274900  0.87732698  1
  Se  Se13  1  0.52798304  0.83275001  0.62267297  1
  Se  Se14  1  0.98340503  0.16725100  0.37732800  1
  Se  Se15  1  0.22201702  0.66725001  0.87732696  1
  Se  Se16  1  0.84934302  0.16725100  0.62267299  1
  Se  Se17  1  0.63926604  0.83275001  0.37732797  1
