# generated using pymatgen
data_Ca2V3GeBiO12
_symmetry_space_group_name_H-M   'P 1'
_cell_length_a   5.49920416
_cell_length_b   7.25376463
_cell_length_c   7.57785559
_cell_angle_alpha   102.78522491
_cell_angle_beta   92.74090576
_cell_angle_gamma   90.09844208
_symmetry_Int_Tables_number   1
_chemical_formula_structural   Ca2V3GeBiO12
_chemical_formula_sum   'Ca2 V3 Ge1 Bi1 O12'
_cell_volume   294.42483704
_cell_formula_units_Z   1
loop_
 _symmetry_equiv_pos_site_id
 _symmetry_equiv_pos_as_xyz
  1  'x, y, z'
loop_
 _atom_site_type_symbol
 _atom_site_label
 _atom_site_symmetry_multiplicity
 _atom_site_fract_x
 _atom_site_fract_y
 _atom_site_fract_z
 _atom_site_occupancy
  Ca  Ca0  1  0.75870597  0.71401201  0.91306202  1
  Ca  Ca1  1  0.26101499  0.28005900  0.07232500  1
  V  V2  1  0.76481998  0.07851700  0.30119500  1
  V  V3  1  0.31481498  0.80736201  0.19399300  1
  V  V4  1  0.79201497  0.21169600  0.80657502  1
  Bi  Bi5  1  0.73460797  0.58967901  0.41664201  1
  Ge  Ge6  1  0.24447899  0.39299000  0.57546901  1
  O  O7  1  0.01232300  0.35241400  0.32753301  1
  O  O8  1  0.99257696  0.80560201  0.20096500  1
  O  O9  1  0.44237698  0.59000501  0.09783700  1
  O  O10  1  0.92968997  0.41490500  0.92436802  1
  O  O11  1  0.49744998  0.32491500  0.36155501  1
  O  O12  1  0.42465798  0.96798601  0.07682700  1
  O  O13  1  0.00092499  0.61864201  0.65172102  1
  O  O14  1  0.51278198  0.60400801  0.65911101  1
  O  O15  1  0.86862997  0.05564000  0.94138702  1
  O  O16  1  0.46853398  0.24179000  0.77953502  1
  O  O17  1  0.95542597  0.16233300  0.60283401  1
  O  O18  1  0.46970698  0.87822401  0.40165801  1
