# generated using pymatgen
data_NdNi3
_symmetry_space_group_name_H-M   'P 1'
_cell_length_a   5.69005394
_cell_length_b   7.18623114
_cell_length_c   7.53474188
_cell_angle_alpha   90.00000000
_cell_angle_beta   90.00000000
_cell_angle_gamma   90.00000000
_symmetry_Int_Tables_number   1
_chemical_formula_structural   NdNi3
_chemical_formula_sum   'Nd4 Ni12'
_cell_volume   308.09591782
_cell_formula_units_Z   4
loop_
 _symmetry_equiv_pos_site_id
 _symmetry_equiv_pos_as_xyz
  1  'x, y, z'
loop_
 _atom_site_type_symbol
 _atom_site_label
 _atom_site_symmetry_multiplicity
 _atom_site_fract_x
 _atom_site_fract_y
 _atom_site_fract_z
 _atom_site_occupancy
  Nd  Nd0  1  0.35047000  0.74999999  0.03291700  1
  Nd  Nd1  1  0.14953000  0.74999999  0.53291701  1
  Nd  Nd2  1  0.64953001  0.25000000  0.96708302  1
  Nd  Nd3  1  0.85047001  0.25000000  0.46708301  1
  Ni  Ni4  1  0.64978901  0.74999999  0.38196301  1
  Ni  Ni5  1  0.85021101  0.74999999  0.88196301  1
  Ni  Ni6  1  0.35021100  0.25000000  0.61803701  1
  Ni  Ni7  1  0.14978900  0.25000000  0.11803700  1
  Ni  Ni8  1  0.91218901  0.55185499  0.17867600  1
  Ni  Ni9  1  0.58781101  0.94814498  0.67867601  1
  Ni  Ni10  1  0.08781100  0.05185500  0.82132401  1
  Ni  Ni11  1  0.41218900  0.44814499  0.32132401  1
  Ni  Ni12  1  0.08781100  0.44814499  0.82132401  1
  Ni  Ni13  1  0.41218900  0.05185500  0.32132401  1
  Ni  Ni14  1  0.91218901  0.94814498  0.17867600  1
  Ni  Ni15  1  0.58781101  0.55185499  0.67867601  1
