# generated using pymatgen
data_ZrS4
_symmetry_space_group_name_H-M   'P 1'
_cell_length_a   5.97083187
_cell_length_b   5.97083187
_cell_length_c   6.52618980
_cell_angle_alpha   90.00000000
_cell_angle_beta   90.00000000
_cell_angle_gamma   90.00000000
_symmetry_Int_Tables_number   1
_chemical_formula_structural   ZrS4
_chemical_formula_sum   'Zr2 S8'
_cell_volume   232.66410435
_cell_formula_units_Z   2
loop_
 _symmetry_equiv_pos_site_id
 _symmetry_equiv_pos_as_xyz
  1  'x, y, z'
loop_
 _atom_site_type_symbol
 _atom_site_label
 _atom_site_symmetry_multiplicity
 _atom_site_fract_x
 _atom_site_fract_y
 _atom_site_fract_z
 _atom_site_occupancy
  Zr  Zr0  1  0.00000000  0.00000000  0.75000002  1
  Zr  Zr1  1  0.00000000  0.00000000  0.25000001  1
  S  S2  1  0.33402401  0.13625100  0.50000002  1
  S  S3  1  0.66597601  0.86374902  0.50000002  1
  S  S4  1  0.33402401  0.86374902  -0.00000000  1
  S  S5  1  0.66597601  0.13625100  -0.00000000  1
  S  S6  1  0.13625100  0.66597601  0.50000002  1
  S  S7  1  0.86374902  0.33402401  0.50000002  1
  S  S8  1  0.86374902  0.66597601  -0.00000000  1
  S  S9  1  0.13625100  0.33402401  -0.00000000  1
