# generated using pymatgen
data_ErMgPd
_symmetry_space_group_name_H-M   'P 1'
_cell_length_a   3.94778490
_cell_length_b   7.40207577
_cell_length_c   7.40207624
_cell_angle_alpha   120.00000000
_cell_angle_beta   90.00000000
_cell_angle_gamma   90.00000000
_symmetry_Int_Tables_number   1
_chemical_formula_structural   ErMgPd
_chemical_formula_sum   'Er3 Mg3 Pd3'
_cell_volume   187.32303851
_cell_formula_units_Z   3
loop_
 _symmetry_equiv_pos_site_id
 _symmetry_equiv_pos_as_xyz
  1  'x, y, z'
loop_
 _atom_site_type_symbol
 _atom_site_label
 _atom_site_symmetry_multiplicity
 _atom_site_fract_x
 _atom_site_fract_y
 _atom_site_fract_z
 _atom_site_occupancy
  Er  Er0  1  0.50000001  0.00000000  0.58921899  1
  Er  Er1  1  0.50000001  0.58921902  0.99999999  1
  Er  Er2  1  0.50000001  0.41078101  0.41078100  1
  Mg  Mg3  1  1.00000003  0.25480001  0.99999999  1
  Mg  Mg4  1  -0.00000000  0.00000000  0.25480000  1
  Mg  Mg5  1  1.00000003  0.74520003  0.74520000  1
  Pd  Pd6  1  1.00000003  0.66666669  0.33333334  1
  Pd  Pd7  1  0.50000001  0.00000000  -0.00000000  1
  Pd  Pd8  1  1.00000003  0.33333335  0.66666666  1
