# generated using pymatgen
data_Li5FeO5
_symmetry_space_group_name_H-M   'P 1'
_cell_length_a   4.03118181
_cell_length_b   5.33430481
_cell_length_c   5.88051414
_cell_angle_alpha   107.36647797
_cell_angle_beta   90.00000000
_cell_angle_gamma   112.20085144
_symmetry_Int_Tables_number   1
_chemical_formula_structural   Li5FeO5
_chemical_formula_sum   'Li5 Fe1 O5'
_cell_volume   110.82661187
_cell_formula_units_Z   1
loop_
 _symmetry_equiv_pos_site_id
 _symmetry_equiv_pos_as_xyz
  1  'x, y, z'
loop_
 _atom_site_type_symbol
 _atom_site_label
 _atom_site_symmetry_multiplicity
 _atom_site_fract_x
 _atom_site_fract_y
 _atom_site_fract_z
 _atom_site_occupancy
  Li  Li0  1  0.28608107  0.57216202  0.65538803  1
  Li  Li1  1  0.30768307  0.61536602  0.14108104  1
  Li  Li2  1  0.00000000  0.00000000  0.49999999  1
  Li  Li3  1  0.69231707  0.38463401  0.85891901  1
  Li  Li4  1  0.71391907  0.42783801  0.34461202  1
  Fe  Fe5  1  0.00000000  0.00000000  0.00000000  1
  O  O6  1  0.14419203  0.28838401  0.82594700  1
  O  O7  1  0.15690804  0.31381601  0.31642701  1
  O  O8  1  0.50000002  0.00000000  0.00000000  1
  O  O9  1  0.84309210  0.68618402  0.68357303  1
  O  O10  1  0.85580811  0.71161602  0.17405304  1
