# generated using pymatgen
data_Ca4Cu3O10
_symmetry_space_group_name_H-M   'P 1'
_cell_length_a   3.67037892
_cell_length_b   3.67037892
_cell_length_c   14.04846096
_cell_angle_alpha   90.00000000
_cell_angle_beta   90.00000000
_cell_angle_gamma   90.00000000
_symmetry_Int_Tables_number   1
_chemical_formula_structural   Ca4Cu3O10
_chemical_formula_sum   'Ca4 Cu3 O10'
_cell_volume   189.25639080
_cell_formula_units_Z   1
loop_
 _symmetry_equiv_pos_site_id
 _symmetry_equiv_pos_as_xyz
  1  'x, y, z'
loop_
 _atom_site_type_symbol
 _atom_site_label
 _atom_site_symmetry_multiplicity
 _atom_site_fract_x
 _atom_site_fract_y
 _atom_site_fract_z
 _atom_site_occupancy
  Ca  Ca0  1  0.00000000  0.00000000  0.86160900  1
  Ca  Ca1  1  0.00000000  0.00000000  0.13839100  1
  Ca  Ca2  1  0.00000000  0.00000000  0.37827800  1
  Ca  Ca3  1  0.00000000  0.00000000  0.62172200  1
  Cu  Cu4  1  0.50000001  0.50000001  0.86842100  1
  Cu  Cu5  1  0.50000001  0.50000001  0.13157900  1
  O  O6  1  0.50000001  0.50000001  0.37517400  1
  Cu  Cu7  1  0.50000001  0.50000001  0.62482600  1
  O  O8  1  0.50000001  0.00000000  0.00000000  1
  O  O9  1  0.50000001  0.00000000  0.25477900  1
  O  O10  1  0.50000001  0.00000000  0.50000000  1
  O  O11  1  0.50000001  0.00000000  0.74522100  1
  O  O12  1  0.00000000  0.50000001  0.00000000  1
  O  O13  1  0.00000000  0.50000001  0.25477900  1
  O  O14  1  0.00000000  0.50000001  0.50000000  1
  O  O15  1  0.00000000  0.50000001  0.74522100  1
  O  O16  1  0.50000001  0.50000001  0.00000000  1
