# generated using pymatgen
data_CsTlCrRhCl6
_symmetry_space_group_name_H-M   'P 1'
_cell_length_a   5.67208099
_cell_length_b   7.65643597
_cell_length_c   7.65643692
_cell_angle_alpha   120.00000000
_cell_angle_beta   90.00000000
_cell_angle_gamma   90.00000000
_symmetry_Int_Tables_number   1
_chemical_formula_structural   CsTlCrRhCl6
_chemical_formula_sum   'Cs1 Tl1 Cr1 Rh1 Cl6'
_cell_volume   287.95619012
_cell_formula_units_Z   1
loop_
 _symmetry_equiv_pos_site_id
 _symmetry_equiv_pos_as_xyz
  1  'x, y, z'
loop_
 _atom_site_type_symbol
 _atom_site_label
 _atom_site_symmetry_multiplicity
 _atom_site_fract_x
 _atom_site_fract_y
 _atom_site_fract_z
 _atom_site_occupancy
  Cs  Cs0  1  0.75000000  0.33333335  0.66666668  1
  Tl  Tl1  1  0.25000000  0.66666669  0.33333337  1
  Cr  Cr2  1  0.50000000  0.00000000  -0.00000000  1
  Rh  Rh3  1  0.00000000  0.00000000  0.00000000  1
  Cl  Cl4  1  0.25000000  0.15738901  0.84261100  1
  Cl  Cl5  1  0.75000000  0.84261103  0.68522205  1
  Cl  Cl6  1  0.75000000  0.31477801  0.15738902  1
  Cl  Cl7  1  0.25000000  0.68522203  0.84261103  1
  Cl  Cl8  1  0.75000000  0.84261103  0.15738906  1
  Cl  Cl9  1  0.25000000  0.15738901  0.31477801  1
