# generated using pymatgen
data_ErGa3
_symmetry_space_group_name_H-M   'P 1'
_cell_length_a   4.04655647
_cell_length_b   4.04655647
_cell_length_c   20.50421906
_cell_angle_alpha   90.00000000
_cell_angle_beta   90.00000000
_cell_angle_gamma   89.86109161
_symmetry_Int_Tables_number   1
_chemical_formula_structural   ErGa3
_chemical_formula_sum   'Er4 Ga12'
_cell_volume   335.74779409
_cell_formula_units_Z   4
loop_
 _symmetry_equiv_pos_site_id
 _symmetry_equiv_pos_as_xyz
  1  'x, y, z'
loop_
 _atom_site_type_symbol
 _atom_site_label
 _atom_site_symmetry_multiplicity
 _atom_site_fract_x
 _atom_site_fract_y
 _atom_site_fract_z
 _atom_site_occupancy
  Er  Er0  1  0.73720701  0.26279301  0.38276900  1
  Er  Er1  1  0.26279299  0.73720702  0.61723100  1
  Er  Er2  1  0.23720699  0.76279302  0.11723100  1
  Er  Er3  1  0.76279302  0.23720701  0.88276900  1
  Ga  Ga4  1  0.23696799  0.76303202  0.34532100  1
  Ga  Ga5  1  0.76303202  0.23696801  0.65467900  1
  Ga  Ga6  1  0.73696801  0.26303201  0.15467900  1
  Ga  Ga7  1  0.26303199  0.73696802  0.84532100  1
  Ga  Ga8  1  0.22725100  0.22725101  0.50000000  1
  Ga  Ga9  1  0.27274900  0.27274901  -0.00000000  1
  Ga  Ga10  1  0.77274900  0.77274902  0.50000000  1
  Ga  Ga11  1  0.72725100  0.72725102  -0.00000000  1
  Ga  Ga12  1  0.23410000  0.26590001  0.25000000  1
  Ga  Ga13  1  0.26590000  0.23410001  0.75000000  1
  Ga  Ga14  1  0.76590000  0.73410002  0.75000000  1
  Ga  Ga15  1  0.73410000  0.76590002  0.25000000  1
