# generated using pymatgen
data_Sr(FeP)2
_symmetry_space_group_name_H-M   'P 1'
_cell_length_a   5.45873213
_cell_length_b   5.46282101
_cell_length_c   6.96934891
_cell_angle_alpha   90.00000000
_cell_angle_beta   113.05560303
_cell_angle_gamma   90.00000000
_symmetry_Int_Tables_number   1
_chemical_formula_structural   Sr(FeP)2
_chemical_formula_sum   'Sr2 Fe4 P4'
_cell_volume   191.22642311
_cell_formula_units_Z   2
loop_
 _symmetry_equiv_pos_site_id
 _symmetry_equiv_pos_as_xyz
  1  'x, y, z'
loop_
 _atom_site_type_symbol
 _atom_site_label
 _atom_site_symmetry_multiplicity
 _atom_site_fract_x
 _atom_site_fract_y
 _atom_site_fract_z
 _atom_site_occupancy
  Sr  Sr0  1  0.49999999  0.50000000  0.00000001  1
  Sr  Sr1  1  0.00000000  0.00000000  0.00000000  1
  Fe  Fe2  1  0.49999999  0.75044400  0.50000002  1
  Fe  Fe3  1  -0.00000000  0.24955600  0.50000001  1
  Fe  Fe4  1  -0.00000000  0.75044400  0.50000001  1
  Fe  Fe5  1  0.49999999  0.24955600  0.50000002  1
  P  P6  1  0.35023799  0.00000000  0.70047602  1
  P  P7  1  0.85020899  0.50000000  0.70041803  1
  P  P8  1  0.14979100  0.50000000  0.29958201  1
  P  P9  1  0.64976199  0.00000000  0.29952402  1
