# generated using pymatgen
data_Ca2Cu2O3
_symmetry_space_group_name_H-M   'P 1'
_cell_length_a   3.46731806
_cell_length_b   5.47979927
_cell_length_c   5.70787382
_cell_angle_alpha   104.43157196
_cell_angle_beta   90.00000000
_cell_angle_gamma   108.44370270
_symmetry_Int_Tables_number   1
_chemical_formula_structural   Ca2Cu2O3
_chemical_formula_sum   'Ca2 Cu2 O3'
_cell_volume   99.26629593
_cell_formula_units_Z   1
loop_
 _symmetry_equiv_pos_site_id
 _symmetry_equiv_pos_as_xyz
  1  'x, y, z'
loop_
 _atom_site_type_symbol
 _atom_site_label
 _atom_site_symmetry_multiplicity
 _atom_site_fract_x
 _atom_site_fract_y
 _atom_site_fract_z
 _atom_site_occupancy
  Ca  Ca0  1  0.60248798  0.20497599  0.81852796  1
  Ca  Ca1  1  0.39751195  0.79502395  0.18147195  1
  Cu  Cu2  1  0.84121095  0.68242196  0.60305094  1
  Cu  Cu3  1  0.15878898  0.31757798  0.39694897  1
  O  O4  1  0.70848397  0.41696798  0.28139197  1
  O  O5  1  0.29151596  0.58303197  0.71860795  1
  O  O6  1  0.00000000  0.00000000  0.49999998  1
