# generated using pymatgen
data_CsAsO3
_symmetry_space_group_name_H-M   'P 1'
_cell_length_a   4.56979418
_cell_length_b   6.17178011
_cell_length_c   7.37698364
_cell_angle_alpha   90.00000000
_cell_angle_beta   107.51309967
_cell_angle_gamma   90.00000000
_symmetry_Int_Tables_number   1
_chemical_formula_structural   CsAsO3
_chemical_formula_sum   'Cs2 As2 O6'
_cell_volume   198.41481063
_cell_formula_units_Z   2
loop_
 _symmetry_equiv_pos_site_id
 _symmetry_equiv_pos_as_xyz
  1  'x, y, z'
loop_
 _atom_site_type_symbol
 _atom_site_label
 _atom_site_symmetry_multiplicity
 _atom_site_fract_x
 _atom_site_fract_y
 _atom_site_fract_z
 _atom_site_occupancy
  Cs  Cs0  1  0.84185498  0.25000000  0.67460701  1
  Cs  Cs1  1  0.15814500  0.74999999  0.32539300  1
  As  As2  1  0.57239198  0.25000000  0.16001301  1
  As  As3  1  0.42760799  0.74999999  0.83998700  1
  O  O4  1  0.35385199  0.53275399  0.69881300  1
  O  O5  1  0.64614798  0.03275400  0.30118701  1
  O  O6  1  0.64614798  0.46724599  0.30118701  1
  O  O7  1  0.35385199  0.96724598  0.69881300  1
  O  O8  1  0.94410697  0.25000000  0.08393702  1
  O  O9  1  0.05589300  0.74999999  0.91606299  1
