# generated using pymatgen
data_HoSb2Pd
_symmetry_space_group_name_H-M   'P 1'
_cell_length_a   4.32047796
_cell_length_b   4.32047796
_cell_length_c   9.80848026
_cell_angle_alpha   90.00000000
_cell_angle_beta   90.00000000
_cell_angle_gamma   90.00000000
_symmetry_Int_Tables_number   1
_chemical_formula_structural   HoSb2Pd
_chemical_formula_sum   'Ho2 Sb4 Pd2'
_cell_volume   183.09028936
_cell_formula_units_Z   2
loop_
 _symmetry_equiv_pos_site_id
 _symmetry_equiv_pos_as_xyz
  1  'x, y, z'
loop_
 _atom_site_type_symbol
 _atom_site_label
 _atom_site_symmetry_multiplicity
 _atom_site_fract_x
 _atom_site_fract_y
 _atom_site_fract_z
 _atom_site_occupancy
  Ho  Ho0  1  0.50000000  0.00000000  0.25090599  1
  Ho  Ho1  1  0.00000000  0.50000000  0.74909398  1
  Sb  Sb2  1  0.00000000  0.00000000  0.00000000  1
  Sb  Sb3  1  0.50000000  0.50000000  -0.00000000  1
  Pd  Pd4  1  0.50000000  0.00000000  0.83845298  1
  Sb  Sb5  1  0.00000000  0.50000000  0.16154700  1
  Sb  Sb6  1  0.50000000  0.50000000  0.49999999  1
  Pd  Pd7  1  0.00000000  0.00000000  0.49999999  1
