# generated using pymatgen
data_Hf4Ni3P5
_symmetry_space_group_name_H-M   'P 1'
_cell_length_a   4.05419922
_cell_length_b   6.53506708
_cell_length_c   6.66402388
_cell_angle_alpha   90.00000000
_cell_angle_beta   90.00000000
_cell_angle_gamma   90.00000000
_symmetry_Int_Tables_number   1
_chemical_formula_structural   Hf4Ni3P5
_chemical_formula_sum   'Hf4 Ni3 P5'
_cell_volume   176.55973972
_cell_formula_units_Z   1
loop_
 _symmetry_equiv_pos_site_id
 _symmetry_equiv_pos_as_xyz
  1  'x, y, z'
loop_
 _atom_site_type_symbol
 _atom_site_label
 _atom_site_symmetry_multiplicity
 _atom_site_fract_x
 _atom_site_fract_y
 _atom_site_fract_z
 _atom_site_occupancy
  Hf  Hf0  1  0.74999996  0.51255299  0.80871602  1
  Hf  Hf1  1  0.24999999  0.98744699  0.30871601  1
  Hf  Hf2  1  0.74999996  0.01255300  0.69128401  1
  Hf  Hf3  1  0.24999999  0.48744699  0.19128400  1
  Ni  Ni4  1  0.24999999  0.65351599  0.56215301  1
  Ni  Ni5  1  0.24999999  0.15351600  0.93784702  1
  P  P6  1  0.74999996  0.84648399  0.06215300  1
  Ni  Ni7  1  0.74999996  0.34648400  0.43784701  1
  P  P8  1  0.24999999  0.79915399  0.89231902  1
  P  P9  1  0.24999999  0.29915400  0.60768101  1
  P  P10  1  0.74999996  0.20084600  0.10768100  1
  P  P11  1  0.74999996  0.70084599  0.39231901  1
