# generated using pymatgen
data_Mn3CoO6
_symmetry_space_group_name_H-M   'P 1'
_cell_length_a   5.08820009
_cell_length_b   5.46695805
_cell_length_c   7.47557831
_cell_angle_alpha   95.67222595
_cell_angle_beta   89.95175934
_cell_angle_gamma   89.99730682
_symmetry_Int_Tables_number   1
_chemical_formula_structural   Mn3CoO6
_chemical_formula_sum   'Mn6 Co2 O12'
_cell_volume   206.92971361
_cell_formula_units_Z   2
loop_
 _symmetry_equiv_pos_site_id
 _symmetry_equiv_pos_as_xyz
  1  'x, y, z'
loop_
 _atom_site_type_symbol
 _atom_site_label
 _atom_site_symmetry_multiplicity
 _atom_site_fract_x
 _atom_site_fract_y
 _atom_site_fract_z
 _atom_site_occupancy
  Mn  Mn0  1  0.00039600  0.29508800  0.85336898  1
  Mn  Mn1  1  0.50084599  0.19777700  0.15214899  1
  Mn  Mn2  1  0.99926998  0.70049799  0.15068598  1
  Mn  Mn3  1  0.99986098  0.30143900  0.35009598  1
  Co  Co4  1  0.49984499  0.79994699  0.34976298  1
  Mn  Mn5  1  0.50089399  0.20068000  0.64864498  1
  Co  Co6  1  0.99925098  0.69856199  0.64964697  1
  Mn  Mn7  1  0.50007799  0.79998399  0.84934097  1
  O  O8  1  0.69932499  0.49981500  0.24988398  1
  O  O9  1  0.14949200  0.34779700  0.09447799  1
  O  O10  1  0.34925699  0.14926500  0.40131199  1
  O  O11  1  0.34901200  0.84992299  0.10035099  1
  O  O12  1  0.84952699  0.34968500  0.60051797  1
  O  O13  1  0.80156899  0.99930599  0.25069898  1
  O  O14  1  0.15068200  0.64986999  0.39983298  1
  O  O15  1  0.65710299  0.15639000  0.90038297  1
  O  O16  1  0.64968999  0.85004899  0.59939197  1
  O  O17  1  0.85327099  0.64997699  0.89976696  1
  O  O18  1  0.29746500  0.49781200  0.74872797  1
  O  O19  1  0.19316700  0.00613600  0.75095798  1
