# generated using pymatgen
data_SrFeO3
_symmetry_space_group_name_H-M   'P 1'
_cell_length_a   5.45588589
_cell_length_b   5.82365179
_cell_length_c   5.45588589
_cell_angle_alpha   117.93209839
_cell_angle_beta   90.00000000
_cell_angle_gamma   117.93209839
_symmetry_Int_Tables_number   1
_chemical_formula_structural   SrFeO3
_chemical_formula_sum   'Sr2 Fe2 O6'
_cell_volume   129.85775426
_cell_formula_units_Z   2
loop_
 _symmetry_equiv_pos_site_id
 _symmetry_equiv_pos_as_xyz
  1  'x, y, z'
loop_
 _atom_site_type_symbol
 _atom_site_label
 _atom_site_symmetry_multiplicity
 _atom_site_fract_x
 _atom_site_fract_y
 _atom_site_fract_z
 _atom_site_occupancy
  Sr  Sr0  1  0.75000003  0.50000000  0.25000002  1
  Sr  Sr1  1  0.25000002  0.50000000  0.75000003  1
  Fe  Fe2  1  0.50000001  0.00000000  0.50000001  1
  Fe  Fe3  1  0.00000000  0.00000000  0.00000000  1
  O  O4  1  0.69945605  0.99999900  0.19343404  1
  O  O5  1  0.30054401  0.00000100  0.80656602  1
  O  O6  1  0.80656502  0.00000000  0.69945601  1
  O  O7  1  0.19343500  0.00000000  0.30054401  1
  O  O8  1  0.77515804  0.55031600  0.77515804  1
  O  O9  1  0.22484202  0.44968400  0.22484202  1
