# generated using pymatgen
data_Li5Mn3Co3O8
_symmetry_space_group_name_H-M   'P 1'
_cell_length_a   4.04758167
_cell_length_b   6.51508522
_cell_length_c   7.58010483
_cell_angle_alpha   105.92690277
_cell_angle_beta   105.48506165
_cell_angle_gamma   90.00000000
_symmetry_Int_Tables_number   1
_chemical_formula_structural   Li5Mn3Co3O8
_chemical_formula_sum   'Li5 Mn3 Co3 O8'
_cell_volume   184.65942457
_cell_formula_units_Z   1
loop_
 _symmetry_equiv_pos_site_id
 _symmetry_equiv_pos_as_xyz
  1  'x, y, z'
loop_
 _atom_site_type_symbol
 _atom_site_label
 _atom_site_symmetry_multiplicity
 _atom_site_fract_x
 _atom_site_fract_y
 _atom_site_fract_z
 _atom_site_occupancy
  Li  Li0  1  0.21506598  0.16946700  0.43013300  1
  Li  Li1  1  0.78493393  0.83053300  0.56986700  1
  Li  Li2  1  0.04175899  0.22815300  0.08351700  1
  Li  Li3  1  0.95824091  0.77184700  0.91648300  1
  Li  Li4  1  0.32489296  0.57032200  0.64978601  1
  Mn  Mn5  1  0.67510694  0.42967800  0.35021399  1
  Mn  Mn6  1  0.40535397  0.04237700  0.81070800  1
  Mn  Mn7  1  0.59464594  0.95762300  0.18929200  1
  Co  Co8  1  0.14778297  0.70797400  0.29556701  1
  Co  Co9  1  0.85221693  0.29202600  0.70443299  1
  Co  Co10  1  0.49999995  0.50000000  1.00000001  1
  O  O11  1  0.09581997  0.95399500  0.19164102  1
  O  O12  1  0.90417994  0.04600500  0.80835898  1
  O  O13  1  0.17771698  0.42683800  0.35543401  1
  O  O14  1  0.82228293  0.57316200  0.64456599  1
  O  O15  1  0.35050497  0.28319900  0.70100900  1
  O  O16  1  0.64949494  0.71680100  0.29899100  1
  O  O17  1  0.45497695  0.76181200  0.90995401  1
  O  O18  1  0.54502296  0.23818800  0.09004599  1
