# generated using pymatgen
data_EuAu2
_symmetry_space_group_name_H-M   'P 1'
_cell_length_a   4.72600412
_cell_length_b   6.01498890
_cell_length_c   6.01498890
_cell_angle_alpha   73.89131927
_cell_angle_beta   66.86790466
_cell_angle_gamma   66.86790466
_symmetry_Int_Tables_number   1
_chemical_formula_structural   EuAu2
_chemical_formula_sum   'Eu2 Au4'
_cell_volume   143.05743552
_cell_formula_units_Z   2
loop_
 _symmetry_equiv_pos_site_id
 _symmetry_equiv_pos_as_xyz
  1  'x, y, z'
loop_
 _atom_site_type_symbol
 _atom_site_label
 _atom_site_symmetry_multiplicity
 _atom_site_fract_x
 _atom_site_fract_y
 _atom_site_fract_z
 _atom_site_occupancy
  Eu  Eu0  1  0.46540095  0.78459900  0.28459899  1
  Eu  Eu1  1  0.53459898  0.21540100  0.71540097  1
  Au  Au2  1  0.83647796  0.63048400  0.69655897  1
  Au  Au3  1  0.16352198  0.36951600  0.30344100  1
  Au  Au4  1  0.83647898  0.19655800  0.13048397  1
  Au  Au5  1  0.16352095  0.80344200  0.86951600  1
