# generated using pymatgen
data_Ba(FeP)2
_symmetry_space_group_name_H-M   'P 1'
_cell_length_a   3.78927588
_cell_length_b   3.78927588
_cell_length_c   6.39095879
_cell_angle_alpha   107.24486542
_cell_angle_beta   107.24486542
_cell_angle_gamma   90.00000000
_symmetry_Int_Tables_number   1
_chemical_formula_structural   Ba(FeP)2
_chemical_formula_sum   'Ba1 Fe2 P2'
_cell_volume   83.31094675
_cell_formula_units_Z   1
loop_
 _symmetry_equiv_pos_site_id
 _symmetry_equiv_pos_as_xyz
  1  'x, y, z'
loop_
 _atom_site_type_symbol
 _atom_site_label
 _atom_site_symmetry_multiplicity
 _atom_site_fract_x
 _atom_site_fract_y
 _atom_site_fract_z
 _atom_site_occupancy
  Ba  Ba0  1  0.00000000  0.00000000  0.00000000  1
  Fe  Fe1  1  0.75000003  0.25000001  0.50000001  1
  Fe  Fe2  1  0.25000001  0.75000002  0.50000001  1
  P  P3  1  0.65105202  0.65105202  0.30210401  1
  P  P4  1  0.34894801  0.34894801  0.69789601  1
