# generated using pymatgen
data_LiYO2
_symmetry_space_group_name_H-M   'P 1'
_cell_length_a   3.46896195
_cell_length_b   5.31571817
_cell_length_c   5.82498598
_cell_angle_alpha   90.00000000
_cell_angle_beta   90.00000000
_cell_angle_gamma   90.00000000
_symmetry_Int_Tables_number   1
_chemical_formula_structural   LiYO2
_chemical_formula_sum   'Li2 Y2 O4'
_cell_volume   107.41288190
_cell_formula_units_Z   2
loop_
 _symmetry_equiv_pos_site_id
 _symmetry_equiv_pos_as_xyz
  1  'x, y, z'
loop_
 _atom_site_type_symbol
 _atom_site_label
 _atom_site_symmetry_multiplicity
 _atom_site_fract_x
 _atom_site_fract_y
 _atom_site_fract_z
 _atom_site_occupancy
  Li  Li0  1  0.75000001  0.49905698  0.30238100  1
  Li  Li1  1  0.75000001  0.99905697  0.19761900  1
  Y  Y2  1  0.25000000  0.50094298  0.69761900  1
  Y  Y3  1  0.25000000  0.00094300  0.80238100  1
  O  O4  1  0.75000001  0.79982297  0.58847300  1
  O  O5  1  0.25000000  0.70017698  0.08847300  1
  O  O6  1  0.25000000  0.20017699  0.41152700  1
  O  O7  1  0.75000001  0.29982299  0.91152700  1
