# generated using pymatgen
data_AgPd
_symmetry_space_group_name_H-M   'P 1'
_cell_length_a   5.73430920
_cell_length_b   5.75015259
_cell_length_c   10.85224056
_cell_angle_alpha   90.00000000
_cell_angle_beta   90.00000000
_cell_angle_gamma   101.10184479
_symmetry_Int_Tables_number   1
_chemical_formula_structural   AgPd
_chemical_formula_sum   'Ag8 Pd8'
_cell_volume   351.13627427
_cell_formula_units_Z   8
loop_
 _symmetry_equiv_pos_site_id
 _symmetry_equiv_pos_as_xyz
  1  'x, y, z'
loop_
 _atom_site_type_symbol
 _atom_site_label
 _atom_site_symmetry_multiplicity
 _atom_site_fract_x
 _atom_site_fract_y
 _atom_site_fract_z
 _atom_site_occupancy
  Ag  Ag0  1  0.88686203  0.84859201  0.71279803  1
  Ag  Ag1  1  0.11313801  0.15140800  0.21279801  1
  Ag  Ag2  1  0.35945201  0.39682701  0.70750403  1
  Ag  Ag3  1  0.64054802  0.60317301  0.20750401  1
  Ag  Ag4  1  0.88330299  0.34357201  0.49096302  1
  Ag  Ag5  1  0.11669704  0.65642801  0.99096304  1
  Ag  Ag6  1  0.35069605  0.89465201  0.49507102  1
  Ag  Ag7  1  0.64930398  0.10534800  0.99507104  1
  Pd  Pd8  1  0.82954603  0.82403901  0.44073102  1
  Pd  Pd9  1  0.17045401  0.17596100  0.94073104  1
  Pd  Pd10  1  0.40234401  0.40863801  0.43348102  1
  Pd  Pd11  1  0.59765602  0.59136201  0.93348104  1
  Pd  Pd12  1  0.15734304  0.66777501  0.26465401  1
  Pd  Pd13  1  0.84265699  0.33222501  0.76465403  1
  Pd  Pd14  1  0.59373399  0.08783100  0.26969601  1
  Pd  Pd15  1  0.40626605  0.91216902  0.76969603  1
