# generated using pymatgen
data_Mn2CuO4
_symmetry_space_group_name_H-M   'P 1'
_cell_length_a   3.84431314
_cell_length_b   3.84431314
_cell_length_c   6.37190533
_cell_angle_alpha   107.51400757
_cell_angle_beta   107.51400757
_cell_angle_gamma   90.13716888
_symmetry_Int_Tables_number   1
_chemical_formula_structural   Mn2CuO4
_chemical_formula_sum   'Mn2 Cu1 O4'
_cell_volume   85.19187233
_cell_formula_units_Z   1
loop_
 _symmetry_equiv_pos_site_id
 _symmetry_equiv_pos_as_xyz
  1  'x, y, z'
loop_
 _atom_site_type_symbol
 _atom_site_label
 _atom_site_symmetry_multiplicity
 _atom_site_fract_x
 _atom_site_fract_y
 _atom_site_fract_z
 _atom_site_occupancy
  Mn  Mn0  1  0.65140694  0.65500500  0.30641194  1
  Mn  Mn1  1  0.34499497  0.34859300  0.69358796  1
  Cu  Cu2  1  0.02473890  0.97526100  -0.00000005  1
  O  O3  1  0.75026698  0.24973300  0.49999996  1
  O  O4  1  0.25026693  0.74973300  0.49999995  1
  O  O5  1  0.04226095  0.47293600  -0.00000002  1
  O  O6  1  0.52706391  0.95773900  -0.00000006  1
