# generated using pymatgen
data_La2AlAu7
_symmetry_space_group_name_H-M   'P 1'
_cell_length_a   4.61873102
_cell_length_b   4.61873102
_cell_length_c   10.56300640
_cell_angle_alpha   90.00000000
_cell_angle_beta   90.00000000
_cell_angle_gamma   90.00000000
_symmetry_Int_Tables_number   1
_chemical_formula_structural   La2AlAu7
_chemical_formula_sum   'La2 Al1 Au7'
_cell_volume   225.33719581
_cell_formula_units_Z   1
loop_
 _symmetry_equiv_pos_site_id
 _symmetry_equiv_pos_as_xyz
  1  'x, y, z'
loop_
 _atom_site_type_symbol
 _atom_site_label
 _atom_site_symmetry_multiplicity
 _atom_site_fract_x
 _atom_site_fract_y
 _atom_site_fract_z
 _atom_site_occupancy
  La  La0  1  0.00000000  0.50000000  0.24331899  1
  La  La1  1  0.50000000  0.00000000  0.75668097  1
  Au  Au2  1  0.00000000  0.00000000  0.49999998  1
  Al  Al3  1  0.50000000  0.50000000  0.49999998  1
  Au  Au4  1  0.00000000  0.50000000  0.87376897  1
  Au  Au5  1  0.50000000  0.00000000  0.12623100  1
  Au  Au6  1  0.00000000  0.00000000  0.00000000  1
  Au  Au7  1  0.50000000  0.50000000  -0.00000000  1
  Au  Au8  1  0.00000000  0.50000000  0.62789998  1
  Au  Au9  1  0.50000000  0.00000000  0.37209999  1
