# generated using pymatgen
data_USe2
_symmetry_space_group_name_H-M   'P 1'
_cell_length_a   4.03708792
_cell_length_b   5.73858404
_cell_length_c   7.02007055
_cell_angle_alpha   114.12488556
_cell_angle_beta   106.71067810
_cell_angle_gamma   90.00000000
_symmetry_Int_Tables_number   1
_chemical_formula_structural   USe2
_chemical_formula_sum   'U2 Se4'
_cell_volume   140.87092897
_cell_formula_units_Z   2
loop_
 _symmetry_equiv_pos_site_id
 _symmetry_equiv_pos_as_xyz
  1  'x, y, z'
loop_
 _atom_site_type_symbol
 _atom_site_label
 _atom_site_symmetry_multiplicity
 _atom_site_fract_x
 _atom_site_fract_y
 _atom_site_fract_z
 _atom_site_occupancy
  U  U0  1  0.99912104  0.99912098  0.99824202  1
  U  U1  1  0.66706103  0.66706098  0.33412200  1
  Se  Se2  1  0.33123401  0.33123399  0.66246802  1
  Se  Se3  1  0.01536200  0.51536199  0.03072398  1
  Se  Se4  1  0.32824402  0.82824398  0.65648800  1
  Se  Se5  1  0.65897902  0.15897900  0.31795802  1
