# generated using pymatgen
data_NaNiO2
_symmetry_space_group_name_H-M   'P 1'
_cell_length_a   3.03900433
_cell_length_b   5.05677032
_cell_length_c   11.01843262
_cell_angle_alpha   102.72376251
_cell_angle_beta   96.31267548
_cell_angle_gamma   92.27976990
_symmetry_Int_Tables_number   1
_chemical_formula_structural   NaNiO2
_chemical_formula_sum   'Na4 Ni4 O8'
_cell_volume   163.80868025
_cell_formula_units_Z   4
loop_
 _symmetry_equiv_pos_site_id
 _symmetry_equiv_pos_as_xyz
  1  'x, y, z'
loop_
 _atom_site_type_symbol
 _atom_site_label
 _atom_site_symmetry_multiplicity
 _atom_site_fract_x
 _atom_site_fract_y
 _atom_site_fract_z
 _atom_site_occupancy
  Na  Na0  1  0.87637296  0.52972398  0.74997295  1
  Na  Na1  1  0.40342100  0.02862200  0.74973297  1
  Na  Na2  1  0.12402295  0.47044698  0.24997598  1
  Na  Na3  1  0.59706690  0.97138796  0.25024897  1
  Ni  Ni4  1  0.24973198  0.24991499  0.50022298  1
  Ni  Ni5  1  0.49997195  0.50008898  0.99985595  1
  Ni  Ni6  1  0.74971293  0.74992797  0.50009496  1
  Ni  Ni7  1  0.00003600  0.00010600  0.99987796  1
  O  O8  1  0.33172094  0.61804497  0.59791497  1
  O  O9  1  0.83423400  0.11786899  0.59828696  1
  O  O10  1  0.66773597  0.38161098  0.40224497  1
  O  O11  1  0.16559790  0.88194196  0.40193097  1
  O  O12  1  0.57998098  0.22886499  0.09736099  1
  O  O13  1  0.99445294  0.72907097  0.09763097  1
  O  O14  1  0.42015292  0.77132396  0.90246695  1
  O  O15  1  0.00578597  0.27105199  0.90217796  1
