# generated using pymatgen
data_ErAl
_symmetry_space_group_name_H-M   'P 1'
_cell_length_a   5.52384520
_cell_length_b   5.76383495
_cell_length_c   11.20538521
_cell_angle_alpha   90.00000000
_cell_angle_beta   90.00000000
_cell_angle_gamma   90.00000000
_symmetry_Int_Tables_number   1
_chemical_formula_structural   ErAl
_chemical_formula_sum   'Er8 Al8'
_cell_volume   356.76301570
_cell_formula_units_Z   8
loop_
 _symmetry_equiv_pos_site_id
 _symmetry_equiv_pos_as_xyz
  1  'x, y, z'
loop_
 _atom_site_type_symbol
 _atom_site_label
 _atom_site_symmetry_multiplicity
 _atom_site_fract_x
 _atom_site_fract_y
 _atom_site_fract_z
 _atom_site_occupancy
  Er  Er0  1  0.24999999  0.39456300  0.33043899  1
  Er  Er1  1  0.74999997  0.60543700  0.66956099  1
  Er  Er2  1  0.74999997  0.39456300  0.16956100  1
  Er  Er3  1  0.24999999  0.60543700  0.83043898  1
  Er  Er4  1  0.24999999  0.15887700  0.01816700  1
  Er  Er5  1  0.74999997  0.84112301  0.98183298  1
  Er  Er6  1  0.74999997  0.15887700  0.48183299  1
  Er  Er7  1  0.24999999  0.84112301  0.51816699  1
  Al  Al8  1  0.00000000  0.92918801  0.25000000  1
  Al  Al9  1  0.49999998  0.07081200  0.74999999  1
  Al  Al10  1  -0.00000000  0.07081200  0.74999999  1
  Al  Al11  1  0.49999998  0.92918801  0.25000000  1
  Al  Al12  1  0.24999999  0.65616901  0.09594900  1
  Al  Al13  1  0.74999997  0.34383100  0.90405098  1
  Al  Al14  1  0.74999997  0.65616901  0.40405099  1
  Al  Al15  1  0.24999999  0.34383100  0.59594899  1
