# generated using pymatgen
data_LiNiF5
_symmetry_space_group_name_H-M   'P 1'
_cell_length_a   6.18938065
_cell_length_b   6.18938065
_cell_length_c   6.23437691
_cell_angle_alpha   61.03812790
_cell_angle_beta   61.03812790
_cell_angle_gamma   61.94359970
_symmetry_Int_Tables_number   1
_chemical_formula_structural   LiNiF5
_chemical_formula_sum   'Li2 Ni2 F10'
_cell_volume   173.93501214
_cell_formula_units_Z   2
loop_
 _symmetry_equiv_pos_site_id
 _symmetry_equiv_pos_as_xyz
  1  'x, y, z'
loop_
 _atom_site_type_symbol
 _atom_site_label
 _atom_site_symmetry_multiplicity
 _atom_site_fract_x
 _atom_site_fract_y
 _atom_site_fract_z
 _atom_site_occupancy
  Ni  Ni0  1  0.00000000  0.00000000  0.00000000  1
  Li  Li1  1  0.62458704  0.62458699  0.60831294  1
  Li  Li2  1  0.37541302  0.37541300  0.39168697  1
  Ni  Ni3  1  0.00000000  0.00000000  0.50000000  1
  F  F4  1  0.00000003  0.49999999  -0.00000003  1
  F  F5  1  0.50000000  0.00000000  -0.00000002  1
  F  F6  1  0.76244805  0.76244799  0.74780393  1
  F  F7  1  0.23760301  0.23760300  0.78043798  1
  F  F8  1  0.23651504  0.76932499  0.25927095  1
  F  F9  1  0.76932502  0.23651500  0.25927096  1
  F  F10  1  0.23755201  0.23755200  0.25219598  1
  F  F11  1  0.76239705  0.76239699  0.21956193  1
  F  F12  1  0.76348502  0.23067500  0.74072896  1
  F  F13  1  0.23067504  0.76348499  0.74072895  1
