# generated using pymatgen
data_LiMnF3
_symmetry_space_group_name_H-M   'P 1'
_cell_length_a   5.48905516
_cell_length_b   5.56705141
_cell_length_c   7.93363619
_cell_angle_alpha   89.28677368
_cell_angle_beta   90.01328278
_cell_angle_gamma   89.99774170
_symmetry_Int_Tables_number   1
_chemical_formula_structural   LiMnF3
_chemical_formula_sum   'Li4 Mn4 F12'
_cell_volume   242.41609258
_cell_formula_units_Z   4
loop_
 _symmetry_equiv_pos_site_id
 _symmetry_equiv_pos_as_xyz
  1  'x, y, z'
loop_
 _atom_site_type_symbol
 _atom_site_label
 _atom_site_symmetry_multiplicity
 _atom_site_fract_x
 _atom_site_fract_y
 _atom_site_fract_z
 _atom_site_occupancy
  Li  Li0  1  0.49956793  0.99998201  0.50012795  1
  Li  Li1  1  0.50021493  0.99984701  0.99989296  1
  Li  Li2  1  0.99964695  0.50005301  0.49998895  1
  Li  Li3  1  0.00033997  0.50011301  0.99980799  1
  Mn  Mn4  1  0.99867198  0.03096000  0.25333296  1
  Mn  Mn5  1  0.49858996  0.46905201  0.74675597  1
  Mn  Mn6  1  0.50143896  0.53096701  0.25329297  1
  Mn  Mn7  1  0.00133295  0.96905501  0.74667698  1
  F  F8  1  0.60612799  0.03456300  0.73435898  1
  F  F9  1  0.80293097  0.19773200  0.04364896  1
  F  F10  1  0.19092998  0.19741700  0.56137299  1
  F  F11  1  0.69161597  0.30283300  0.43859197  1
  F  F12  1  0.30294998  0.30225600  0.95633899  1
  F  F13  1  0.10631897  0.46548601  0.26569598  1
  F  F14  1  0.89367295  0.53452501  0.73433196  1
  F  F15  1  0.69734095  0.69766601  0.04363895  1
  F  F16  1  0.30828195  0.69705201  0.56147397  1
  F  F17  1  0.80888394  0.80267601  0.43869695  1
  F  F18  1  0.19726795  0.80232301  0.95629398  1
  F  F19  1  0.39387294  0.96544001  0.26567896  1
