# generated using pymatgen
data_Ba2YCu3O7
_symmetry_space_group_name_H-M   'P 1'
_cell_length_a   3.87767792
_cell_length_b   3.93909407
_cell_length_c   11.85357571
_cell_angle_alpha   90.00000000
_cell_angle_beta   90.00000000
_cell_angle_gamma   90.00000000
_symmetry_Int_Tables_number   1
_chemical_formula_structural   Ba2YCu3O7
_chemical_formula_sum   'Ba2 Y1 Cu3 O7'
_cell_volume   181.05789348
_cell_formula_units_Z   1
loop_
 _symmetry_equiv_pos_site_id
 _symmetry_equiv_pos_as_xyz
  1  'x, y, z'
loop_
 _atom_site_type_symbol
 _atom_site_label
 _atom_site_symmetry_multiplicity
 _atom_site_fract_x
 _atom_site_fract_y
 _atom_site_fract_z
 _atom_site_occupancy
  Ba  Ba0  1  0.50000001  0.49999999  0.82012302  1
  Ba  Ba1  1  0.50000001  0.49999999  0.17987700  1
  Y  Y2  1  0.50000001  0.49999999  0.50000001  1
  Cu  Cu3  1  0.00000000  0.00000000  0.65060002  1
  Cu  Cu4  1  0.00000000  0.00000000  0.34940001  1
  Cu  Cu5  1  0.00000000  0.00000000  0.00000000  1
  O  O6  1  0.00000000  0.00000000  0.84139902  1
  O  O7  1  0.00000000  0.00000000  0.15860100  1
  O  O8  1  0.00000000  0.49999999  0.62557202  1
  O  O9  1  0.00000000  0.49999999  0.37442801  1
  O  O10  1  0.50000001  0.00000000  0.62538902  1
  O  O11  1  0.50000001  0.00000000  0.37461101  1
  O  O12  1  0.00000000  0.49999999  0.00000000  1
