# generated using pymatgen
data_Sm2Ga4Fe13
_symmetry_space_group_name_H-M   'P 1'
_cell_length_a   6.56066179
_cell_length_b   6.56066179
_cell_length_c   6.56066179
_cell_angle_alpha   83.56990814
_cell_angle_beta   83.56990814
_cell_angle_gamma   83.56991577
_symmetry_Int_Tables_number   1
_chemical_formula_structural   Sm2Ga4Fe13
_chemical_formula_sum   'Sm2 Ga4 Fe13'
_cell_volume   277.42644700
_cell_formula_units_Z   1
loop_
 _symmetry_equiv_pos_site_id
 _symmetry_equiv_pos_as_xyz
  1  'x, y, z'
loop_
 _atom_site_type_symbol
 _atom_site_label
 _atom_site_symmetry_multiplicity
 _atom_site_fract_x
 _atom_site_fract_y
 _atom_site_fract_z
 _atom_site_occupancy
  Sm  Sm0  1  0.33946002  0.33946001  0.33945997  1
  Sm  Sm1  1  0.66054005  0.66054002  0.66053995  1
  Ga  Ga2  1  0.14648703  0.65605702  0.65605696  1
  Ga  Ga3  1  0.65605705  0.65605702  0.14648696  1
  Ga  Ga4  1  0.65605703  0.14648700  0.65605696  1
  Fe  Fe5  1  0.85351304  0.34394301  0.34394296  1
  Fe  Fe6  1  0.34394302  0.34394301  0.85351296  1
  Fe  Fe7  1  0.34394305  0.85351302  0.34394296  1
  Ga  Ga8  1  0.10030501  0.10030500  0.10030499  1
  Fe  Fe9  1  0.89969507  0.89969503  0.89969493  1
  Fe  Fe10  1  0.00000000  0.00000000  0.49999999  1
  Fe  Fe11  1  0.00000002  0.50000001  -0.00000001  1
  Fe  Fe12  1  0.50000002  0.00000000  -0.00000001  1
  Fe  Fe13  1  0.70449303  0.29550701  -0.00000002  1
  Fe  Fe14  1  0.29550701  0.00000000  0.70449297  1
  Fe  Fe15  1  0.00000003  0.70449302  0.29550697  1
  Fe  Fe16  1  0.70449302  0.00000000  0.29550698  1
  Fe  Fe17  1  0.00000001  0.29550701  0.70449297  1
  Fe  Fe18  1  0.29550704  0.70449302  -0.00000002  1
