# generated using pymatgen
data_KTlSeBrF2
_symmetry_space_group_name_H-M   'P 1'
_cell_length_a   3.86414003
_cell_length_b   3.86414003
_cell_length_c   8.33909607
_cell_angle_alpha   90.00000000
_cell_angle_beta   90.00000000
_cell_angle_gamma   90.00000000
_symmetry_Int_Tables_number   1
_chemical_formula_structural   KTlSeBrF2
_chemical_formula_sum   'K1 Tl1 Se1 Br1 F2'
_cell_volume   124.51586508
_cell_formula_units_Z   1
loop_
 _symmetry_equiv_pos_site_id
 _symmetry_equiv_pos_as_xyz
  1  'x, y, z'
loop_
 _atom_site_type_symbol
 _atom_site_label
 _atom_site_symmetry_multiplicity
 _atom_site_fract_x
 _atom_site_fract_y
 _atom_site_fract_z
 _atom_site_occupancy
  K  K0  1  0.00000000  0.50000000  0.13923200  1
  Tl  Tl1  1  0.50000000  0.00000000  0.86076799  1
  Br  Br2  1  0.00000000  0.50000000  0.65574899  1
  Se  Se3  1  0.50000000  0.00000000  0.34425100  1
  F  F4  1  0.50000000  0.50000000  -0.00000000  1
  F  F5  1  0.00000000  0.00000000  0.00000000  1
