# generated using pymatgen
data_CaVSb3
_symmetry_space_group_name_H-M   'P 1'
_cell_length_a   6.09305286
_cell_length_b   6.29238892
_cell_length_c   13.30208969
_cell_angle_alpha   90.00000000
_cell_angle_beta   90.00000000
_cell_angle_gamma   90.00000000
_symmetry_Int_Tables_number   1
_chemical_formula_structural   CaVSb3
_chemical_formula_sum   'Ca4 V4 Sb12'
_cell_volume   510.00023394
_cell_formula_units_Z   4
loop_
 _symmetry_equiv_pos_site_id
 _symmetry_equiv_pos_as_xyz
  1  'x, y, z'
loop_
 _atom_site_type_symbol
 _atom_site_label
 _atom_site_symmetry_multiplicity
 _atom_site_fract_x
 _atom_site_fract_y
 _atom_site_fract_z
 _atom_site_occupancy
  Ca  Ca0  1  0.25000001  0.50253701  0.30901501  1
  Ca  Ca1  1  0.75000002  0.49746301  0.69098502  1
  Ca  Ca2  1  0.25000001  0.00253700  0.69098502  1
  Ca  Ca3  1  0.75000002  0.99746301  0.30901501  1
  V  V4  1  0.00000000  0.75000001  0.90634902  1
  V  V5  1  0.00000000  0.25000000  0.09365100  1
  V  V6  1  0.50000001  0.25000000  0.09365100  1
  V  V7  1  0.50000001  0.75000001  0.90634902  1
  Sb  Sb8  1  0.00000000  0.75000001  0.50115801  1
  Sb  Sb9  1  0.00000000  0.25000000  0.49884201  1
  Sb  Sb10  1  0.50000001  0.25000000  0.49884201  1
  Sb  Sb11  1  0.50000001  0.75000001  0.50115801  1
  Sb  Sb12  1  0.25000001  0.60469601  0.06426400  1
  Sb  Sb13  1  0.75000002  0.39530401  0.93573602  1
  Sb  Sb14  1  0.25000001  0.10469600  0.93573602  1
  Sb  Sb15  1  0.75000002  0.89530401  0.06426400  1
  Sb  Sb16  1  0.25000001  0.99823501  0.21821101  1
  Sb  Sb17  1  0.75000002  0.00176500  0.78178902  1
  Sb  Sb18  1  0.25000001  0.49823501  0.78178902  1
  Sb  Sb19  1  0.75000002  0.50176501  0.21821101  1
