# generated using pymatgen
data_CuF4
_symmetry_space_group_name_H-M   'P 1'
_cell_length_a   5.47449684
_cell_length_b   5.49658966
_cell_length_c   10.43528271
_cell_angle_alpha   89.20384979
_cell_angle_beta   89.39920044
_cell_angle_gamma   60.45502090
_symmetry_Int_Tables_number   1
_chemical_formula_structural   CuF4
_chemical_formula_sum   'Cu4 F16'
_cell_volume   273.14907479
_cell_formula_units_Z   4
loop_
 _symmetry_equiv_pos_site_id
 _symmetry_equiv_pos_as_xyz
  1  'x, y, z'
loop_
 _atom_site_type_symbol
 _atom_site_label
 _atom_site_symmetry_multiplicity
 _atom_site_fract_x
 _atom_site_fract_y
 _atom_site_fract_z
 _atom_site_occupancy
  Cu  Cu0  1  0.00000000  0.00000000  0.00000000  1
  Cu  Cu1  1  0.00000000  0.00000000  0.49999999  1
  Cu  Cu2  1  0.43102801  0.00009000  0.24408498  1
  Cu  Cu3  1  0.56897200  0.99991003  0.75591493  1
  F  F4  1  0.69226902  0.06653000  0.89471895  1
  F  F5  1  0.16905700  0.06693300  0.35204998  1
  F  F6  1  0.83094301  0.93306703  0.64794993  1
  F  F7  1  0.30773099  0.93347003  0.10528096  1
  F  F8  1  0.68821402  0.07501700  0.40548397  1
  F  F9  1  0.82883302  0.35961001  0.04168296  1
  F  F10  1  0.84027802  0.35842001  0.54148195  1
  F  F11  1  0.16553700  0.07430600  0.86084297  1
  F  F12  1  0.68364401  0.66008202  0.29337695  1
  F  F13  1  0.63055301  0.65803102  0.78878994  1
  F  F14  1  0.36944701  0.34196901  0.21120997  1
  F  F15  1  0.31635600  0.33991801  0.70662296  1
  F  F16  1  0.83446301  0.92569403  0.13915694  1
  F  F17  1  0.17116699  0.64039002  0.95831695  1
  F  F18  1  0.15972199  0.64158002  0.45851796  1
  F  F19  1  0.31178599  0.92498303  0.59451595  1
