# generated using pymatgen
data_Ca4Co(RuO4)3
_symmetry_space_group_name_H-M   'P 1'
_cell_length_a   5.53106356
_cell_length_b   5.68850851
_cell_length_c   7.86046648
_cell_angle_alpha   89.87341309
_cell_angle_beta   89.93222046
_cell_angle_gamma   89.92974091
_symmetry_Int_Tables_number   1
_chemical_formula_structural   Ca4Co(RuO4)3
_chemical_formula_sum   'Ca4 Co1 Ru3 O12'
_cell_volume   247.31684191
_cell_formula_units_Z   1
loop_
 _symmetry_equiv_pos_site_id
 _symmetry_equiv_pos_as_xyz
  1  'x, y, z'
loop_
 _atom_site_type_symbol
 _atom_site_label
 _atom_site_symmetry_multiplicity
 _atom_site_fract_x
 _atom_site_fract_y
 _atom_site_fract_z
 _atom_site_occupancy
  Ca  Ca0  1  0.48967801  0.44714900  0.25041499  1
  Ca  Ca1  1  0.00887399  0.94406001  0.25053097  1
  Ca  Ca2  1  0.51121301  0.55619500  0.74949298  1
  Ca  Ca3  1  0.98926404  0.05214300  0.75069800  1
  Co  Co4  1  0.00142399  0.50227700  0.00607099  1
  Ru  Ru5  1  0.49804702  0.00024000  0.49320400  1
  Ru  Ru6  1  0.99996003  0.50074300  0.49641799  1
  Ru  Ru7  1  0.49921501  0.99989201  0.00417498  1
  O  O8  1  0.89940803  0.53402200  0.25806399  1
  O  O9  1  0.59847902  0.03989800  0.24288500  1
  O  O10  1  0.09681000  0.47669600  0.74259898  1
  O  O11  1  0.41377300  0.96770601  0.75590297  1
  O  O12  1  0.31626200  0.70772700  0.05161198  1
  O  O13  1  0.18098600  0.20299300  0.45143199  1
  O  O14  1  0.70961402  0.30676700  0.55301099  1
  O  O15  1  0.79372402  0.80485701  0.95553997  1
  O  O16  1  0.68920002  0.28780500  0.94523498  1
  O  O17  1  0.81014802  0.79142501  0.54655798  1
  O  O18  1  0.29423000  0.68974500  0.45046698  1
  O  O19  1  0.19968901  0.18766100  0.04568600  1
