# generated using pymatgen
data_Zr2TiBeSi5
_symmetry_space_group_name_H-M   'P 1'
_cell_length_a   3.75080609
_cell_length_b   6.24696398
_cell_length_c   6.24696350
_cell_angle_alpha   120.00000000
_cell_angle_beta   90.00000000
_cell_angle_gamma   90.00000000
_symmetry_Int_Tables_number   1
_chemical_formula_structural   Zr2TiBeSi5
_chemical_formula_sum   'Zr2 Ti1 Be1 Si5'
_cell_volume   126.76320606
_cell_formula_units_Z   1
loop_
 _symmetry_equiv_pos_site_id
 _symmetry_equiv_pos_as_xyz
  1  'x, y, z'
loop_
 _atom_site_type_symbol
 _atom_site_label
 _atom_site_symmetry_multiplicity
 _atom_site_fract_x
 _atom_site_fract_y
 _atom_site_fract_z
 _atom_site_occupancy
  Zr  Zr0  1  -0.00000000  0.99999998  0.74545396  1
  Zr  Zr1  1  -0.00000000  0.74545398  -0.00000004  1
  Ti  Ti2  1  -0.00000000  0.25454599  0.25454599  1
  Be  Be3  1  -0.00000000  0.66666665  0.33333330  1
  Si  Si4  1  -0.00000000  0.33333333  0.66666666  1
  Si  Si5  1  0.49999999  0.00000000  -0.00000000  1
  Si  Si6  1  0.49999999  0.00000000  0.40465100  1
  Si  Si7  1  0.49999999  0.40465099  -0.00000002  1
  Si  Si8  1  0.49999999  0.59534899  0.59534898  1
