# generated using pymatgen
data_Mn6As3C
_symmetry_space_group_name_H-M   'P 1'
_cell_length_a   3.11614394
_cell_length_b   5.34599972
_cell_length_c   7.55141592
_cell_angle_alpha   90.00000000
_cell_angle_beta   90.00000000
_cell_angle_gamma   106.94456482
_symmetry_Int_Tables_number   1
_chemical_formula_structural   Mn6As3C
_chemical_formula_sum   'Mn6 As3 C1'
_cell_volume   120.33705866
_cell_formula_units_Z   1
loop_
 _symmetry_equiv_pos_site_id
 _symmetry_equiv_pos_as_xyz
  1  'x, y, z'
loop_
 _atom_site_type_symbol
 _atom_site_label
 _atom_site_symmetry_multiplicity
 _atom_site_fract_x
 _atom_site_fract_y
 _atom_site_fract_z
 _atom_site_occupancy
  Mn  Mn0  1  0.04348000  0.08696000  0.75000001  1
  Mn  Mn1  1  0.95652001  0.91304003  0.25000000  1
  Mn  Mn2  1  0.37559900  0.75119803  0.54825601  1
  Mn  Mn3  1  0.62440101  0.24880201  0.45174400  1
  Mn  Mn4  1  0.37559900  0.75119803  0.95174401  1
  Mn  Mn5  1  0.62440101  0.24880201  0.04825600  1
  As  As6  1  0.74224801  0.48449602  0.75000001  1
  As  As7  1  0.25775200  0.51550402  0.25000000  1
  C  C8  1  0.00000000  0.00000000  0.50000001  1
  As  As9  1  0.00000000  0.00000000  0.00000000  1
