# generated using pymatgen
data_MnOF
_symmetry_space_group_name_H-M   'P 1'
_cell_length_a   4.98489380
_cell_length_b   5.56559849
_cell_length_c   8.50350189
_cell_angle_alpha   91.22712708
_cell_angle_beta   107.04413605
_cell_angle_gamma   90.00000000
_symmetry_Int_Tables_number   1
_chemical_formula_structural   MnOF
_chemical_formula_sum   'Mn6 O6 F6'
_cell_volume   225.50205825
_cell_formula_units_Z   6
loop_
 _symmetry_equiv_pos_site_id
 _symmetry_equiv_pos_as_xyz
  1  'x, y, z'
loop_
 _atom_site_type_symbol
 _atom_site_label
 _atom_site_symmetry_multiplicity
 _atom_site_fract_x
 _atom_site_fract_y
 _atom_site_fract_z
 _atom_site_occupancy
  Mn  Mn0  1  0.05129800  0.60926499  0.63736403  1
  Mn  Mn1  1  0.41393402  0.89073499  0.36263602  1
  Mn  Mn2  1  0.94870204  0.39073500  0.36263601  1
  Mn  Mn3  1  0.58606602  0.10926500  0.63736402  1
  Mn  Mn4  1  0.30448801  0.25000000  -0.00000000  1
  Mn  Mn5  1  0.69551203  0.74999999  1.00000004  1
  O  O6  1  0.34182601  0.57399999  0.86144403  1
  O  O7  1  0.48038202  0.92599999  0.13855601  1
  O  O8  1  0.65817403  0.42599999  0.13855600  1
  O  O9  1  0.51961802  0.07400000  0.86144403  1
  O  O10  1  0.83585703  0.38099400  0.72028402  1
  F  F11  1  0.11557300  0.11900600  0.27971601  1
  O  O12  1  0.30331301  0.83120499  0.56802902  1
  F  F13  1  0.73528403  0.66879499  0.43197101  1
  F  F14  1  0.69668703  0.16879500  0.43197101  1
  F  F15  1  0.26471601  0.33120500  0.56802902  1
  F  F16  1  0.88442703  0.88099399  0.72028402  1
  F  F17  1  0.16414301  0.61900599  0.27971601  1
