# generated using pymatgen
data_Na3Co2H7
_symmetry_space_group_name_H-M   'P 1'
_cell_length_a   5.19551897
_cell_length_b   5.19551897
_cell_length_c   5.19551849
_cell_angle_alpha   78.11206055
_cell_angle_beta   78.11206055
_cell_angle_gamma   78.11206055
_symmetry_Int_Tables_number   1
_chemical_formula_structural   Na3Co2H7
_chemical_formula_sum   'Na3 Co2 H7'
_cell_volume   132.31986361
_cell_formula_units_Z   1
loop_
 _symmetry_equiv_pos_site_id
 _symmetry_equiv_pos_as_xyz
  1  'x, y, z'
loop_
 _atom_site_type_symbol
 _atom_site_label
 _atom_site_symmetry_multiplicity
 _atom_site_fract_x
 _atom_site_fract_y
 _atom_site_fract_z
 _atom_site_occupancy
  Na  Na0  1  0.31024597  0.31024600  0.31024600  1
  Na  Na1  1  0.68975394  0.68975399  0.68975399  1
  Na  Na2  1  0.00000000  0.00000000  0.00000000  1
  Co  Co3  1  0.77105297  0.22894700  0.49999999  1
  Co  Co4  1  0.49999994  0.77105299  0.22894699  1
  H  H5  1  0.22894696  0.49999999  0.77105300  1
  H  H6  1  0.22894694  0.77105299  0.50000000  1
  H  H7  1  0.49999997  0.22894700  0.77105300  1
  H  H8  1  0.77105295  0.49999999  0.22894699  1
  H  H9  1  -0.00000003  0.49999999  -0.00000000  1
  H  H10  1  0.49999992  0.99999999  -0.00000002  1
  H  H11  1  0.00000000  0.00000000  0.50000001  1
