# generated using pymatgen
data_Li3In5P8
_symmetry_space_group_name_H-M   'P 1'
_cell_length_a   6.61503410
_cell_length_b   7.59029913
_cell_length_c   6.61503410
_cell_angle_alpha   64.16660309
_cell_angle_beta   90.00000000
_cell_angle_gamma   115.83339691
_symmetry_Int_Tables_number   1
_chemical_formula_structural   Li3In5P8
_chemical_formula_sum   'Li3 In5 P8'
_cell_volume   261.57772845
_cell_formula_units_Z   1
loop_
 _symmetry_equiv_pos_site_id
 _symmetry_equiv_pos_as_xyz
  1  'x, y, z'
loop_
 _atom_site_type_symbol
 _atom_site_label
 _atom_site_symmetry_multiplicity
 _atom_site_fract_x
 _atom_site_fract_y
 _atom_site_fract_z
 _atom_site_occupancy
  Li  Li0  1  0.01714699  0.70180699  0.48285300  1
  Li  Li1  1  0.51714698  0.70180699  0.31534000  1
  Li  Li2  1  0.18465999  0.70180699  0.98285299  1
  In  In3  1  0.48285299  0.29819300  0.68465999  1
  In  In4  1  0.68465998  0.70180699  0.81534000  1
  In  In5  1  0.98285298  0.29819300  0.51714700  1
  In  In6  1  0.31533999  0.29819300  0.18466000  1
  In  In7  1  0.81533998  0.29819300  0.01714700  1
  P  P8  1  0.49999999  0.00000000  0.49999999  1
  P  P9  1  0.00000000  0.00000000  0.00000000  1
  P  P10  1  0.12910000  0.00000000  0.62909999  1
  P  P11  1  0.62909998  0.99999999  0.87090000  1
  P  P12  1  0.37089998  0.99999999  0.12910001  1
  P  P13  1  0.87089997  0.99999999  0.37090001  1
  P  P14  1  0.74999998  0.50000000  0.25000000  1
  P  P15  1  0.24999999  0.50000000  0.75000000  1
