# generated using pymatgen
data_LaMg3Zn3Sn2
_symmetry_space_group_name_H-M   'P 1'
_cell_length_a   4.24909592
_cell_length_b   5.58703804
_cell_length_c   11.75909615
_cell_angle_alpha   103.74271393
_cell_angle_beta   100.40894318
_cell_angle_gamma   90.00000000
_symmetry_Int_Tables_number   1
_chemical_formula_structural   LaMg3Zn3Sn2
_chemical_formula_sum   'La1 Mg3 Zn3 Sn2'
_cell_volume   266.43580227
_cell_formula_units_Z   1
loop_
 _symmetry_equiv_pos_site_id
 _symmetry_equiv_pos_as_xyz
  1  'x, y, z'
loop_
 _atom_site_type_symbol
 _atom_site_label
 _atom_site_symmetry_multiplicity
 _atom_site_fract_x
 _atom_site_fract_y
 _atom_site_fract_z
 _atom_site_occupancy
  La  La0  1  0.00000000  0.00000000  0.00000000  1
  Mg  Mg1  1  0.17814598  0.67814599  0.35629199  1
  Mg  Mg2  1  0.82185400  0.32185400  0.64370799  1
  Mg  Mg3  1  0.77171899  0.77171899  0.54343798  1
  Zn  Zn4  1  0.39521099  0.64130599  0.79042100  1
  Sn  Sn5  1  0.60478900  0.35869400  0.20957899  1
  Zn  Zn6  1  0.60478998  0.85088499  0.20957998  1
  Zn  Zn7  1  0.39521000  0.14911500  0.79042000  1
  Sn  Sn8  1  0.22828100  0.22828100  0.45656200  1
