# generated using pymatgen
data_EuIn2Pt
_symmetry_space_group_name_H-M   'P 1'
_cell_length_a   4.33534384
_cell_length_b   5.71422005
_cell_length_c   8.23025417
_cell_angle_alpha   90.00000000
_cell_angle_beta   90.00000000
_cell_angle_gamma   112.29323578
_symmetry_Int_Tables_number   1
_chemical_formula_structural   EuIn2Pt
_chemical_formula_sum   'Eu2 In4 Pt2'
_cell_volume   188.64919916
_cell_formula_units_Z   2
loop_
 _symmetry_equiv_pos_site_id
 _symmetry_equiv_pos_as_xyz
  1  'x, y, z'
loop_
 _atom_site_type_symbol
 _atom_site_label
 _atom_site_symmetry_multiplicity
 _atom_site_fract_x
 _atom_site_fract_y
 _atom_site_fract_z
 _atom_site_occupancy
  Eu  Eu0  1  0.93669501  0.87339002  0.74999998  1
  Eu  Eu1  1  0.06330500  0.12661000  0.24999999  1
  In  In2  1  0.35106499  0.70213002  0.44871999  1
  In  In3  1  0.64893502  0.29787001  0.55127999  1
  In  In4  1  0.35106499  0.70213002  0.05128000  1
  In  In5  1  0.64893502  0.29787001  0.94871998  1
  Pt  Pt6  1  0.78169201  0.56338401  0.24999999  1
  Pt  Pt7  1  0.21830800  0.43661601  0.74999998  1
