# generated using pymatgen
data_Na2Au2O3
_symmetry_space_group_name_H-M   'P 1'
_cell_length_a   3.39595199
_cell_length_b   5.47227859
_cell_length_c   5.60986805
_cell_angle_alpha   104.92536926
_cell_angle_beta   90.00000000
_cell_angle_gamma   108.07651520
_symmetry_Int_Tables_number   1
_chemical_formula_structural   Na2Au2O3
_chemical_formula_sum   'Na2 Au2 O3'
_cell_volume   95.39923110
_cell_formula_units_Z   1
loop_
 _symmetry_equiv_pos_site_id
 _symmetry_equiv_pos_as_xyz
  1  'x, y, z'
loop_
 _atom_site_type_symbol
 _atom_site_label
 _atom_site_symmetry_multiplicity
 _atom_site_fract_x
 _atom_site_fract_y
 _atom_site_fract_z
 _atom_site_occupancy
  Na  Na0  1  0.60465398  0.20930799  0.31714301  1
  Na  Na1  1  0.39534593  0.79069195  0.68285703  1
  Au  Au2  1  0.84258595  0.68517196  0.10749101  1
  Au  Au3  1  0.15741397  0.31482798  0.89250904  1
  O  O4  1  0.28741895  0.57483797  0.22844901  1
  O  O5  1  0.71258097  0.42516198  0.77155103  1
  O  O6  1  0.00000000  0.00000000  0.00000000  1
