# generated using pymatgen
data_ErMgCu
_symmetry_space_group_name_H-M   'P 1'
_cell_length_a   3.88887691
_cell_length_b   7.54066420
_cell_length_c   7.54066420
_cell_angle_alpha   120.00000000
_cell_angle_beta   90.00000000
_cell_angle_gamma   90.00000000
_symmetry_Int_Tables_number   1
_chemical_formula_structural   ErMgCu
_chemical_formula_sum   'Er3 Mg3 Cu3'
_cell_volume   191.50231638
_cell_formula_units_Z   3
loop_
 _symmetry_equiv_pos_site_id
 _symmetry_equiv_pos_as_xyz
  1  'x, y, z'
loop_
 _atom_site_type_symbol
 _atom_site_label
 _atom_site_symmetry_multiplicity
 _atom_site_fract_x
 _atom_site_fract_y
 _atom_site_fract_z
 _atom_site_occupancy
  Er  Er0  1  0.50000001  0.99999999  0.41175504  1
  Er  Er1  1  0.50000001  0.41175500  0.00000001  1
  Er  Er2  1  0.50000001  0.58824499  0.58824503  1
  Mg  Mg3  1  0.00000000  0.00000000  0.74752002  1
  Mg  Mg4  1  -0.00000000  0.74751999  0.00000002  1
  Mg  Mg5  1  1.00000002  0.25248000  0.25248001  1
  Cu  Cu6  1  1.00000002  0.66666666  0.33333336  1
  Cu  Cu7  1  1.00000002  0.33333333  0.66666669  1
  Cu  Cu8  1  0.50000001  0.00000000  -0.00000000  1
