# generated using pymatgen
data_Ho3Cd2AgSe8
_symmetry_space_group_name_H-M   'P 1'
_cell_length_a   8.04596424
_cell_length_b   8.04596424
_cell_length_c   8.04596424
_cell_angle_alpha   60.00000000
_cell_angle_beta   60.00000000
_cell_angle_gamma   60.00000000
_symmetry_Int_Tables_number   1
_chemical_formula_structural   Ho3Cd2AgSe8
_chemical_formula_sum   'Ho3 Cd2 Ag1 Se8'
_cell_volume   368.31490683
_cell_formula_units_Z   1
loop_
 _symmetry_equiv_pos_site_id
 _symmetry_equiv_pos_as_xyz
  1  'x, y, z'
loop_
 _atom_site_type_symbol
 _atom_site_label
 _atom_site_symmetry_multiplicity
 _atom_site_fract_x
 _atom_site_fract_y
 _atom_site_fract_z
 _atom_site_occupancy
  Ho  Ho0  1  0.37500001  0.37500001  0.37500001  1
  Ho  Ho1  1  0.37500001  0.87500002  0.37500001  1
  Ho  Ho2  1  0.37500001  0.37500001  0.87500002  1
  Cd  Cd3  1  0.87500002  0.37500001  0.37500001  1
  Ag  Ag4  1  0.00000000  0.00000000  0.00000000  1
  Cd  Cd5  1  0.75000002  0.75000002  0.75000002  1
  Se  Se6  1  0.13555400  0.62148201  0.62148201  1
  Se  Se7  1  0.62148201  0.62148201  0.13555400  1
  Se  Se8  1  0.62148201  0.62148201  0.62148201  1
  Se  Se9  1  0.62148201  0.13555400  0.62148201  1
  Se  Se10  1  0.12851800  0.61444601  0.12851800  1
  Se  Se11  1  0.12851800  0.12851800  0.12851800  1
  Se  Se12  1  0.12851800  0.12851800  0.61444601  1
  Se  Se13  1  0.61444601  0.12851800  0.12851800  1
