# generated using pymatgen
data_LuScAl4
_symmetry_space_group_name_H-M   'P 1'
_cell_length_a   5.34686708
_cell_length_b   5.34686708
_cell_length_c   5.34686708
_cell_angle_alpha   60.00000000
_cell_angle_beta   60.00000000
_cell_angle_gamma   60.00000000
_symmetry_Int_Tables_number   1
_chemical_formula_structural   LuScAl4
_chemical_formula_sum   'Lu1 Sc1 Al4'
_cell_volume   108.08941517
_cell_formula_units_Z   1
loop_
 _symmetry_equiv_pos_site_id
 _symmetry_equiv_pos_as_xyz
  1  'x, y, z'
loop_
 _atom_site_type_symbol
 _atom_site_label
 _atom_site_symmetry_multiplicity
 _atom_site_fract_x
 _atom_site_fract_y
 _atom_site_fract_z
 _atom_site_occupancy
  Lu  Lu0  1  0.75000000  0.75000000  0.75000000  1
  Sc  Sc1  1  0.00000000  0.00000000  0.00000000  1
  Al  Al2  1  0.37496500  0.87510701  0.37496400  1
  Al  Al3  1  0.37496500  0.37496400  0.37496400  1
  Al  Al4  1  0.37496500  0.37496400  0.87510701  1
  Al  Al5  1  0.87510801  0.37496400  0.37496400  1
