# generated using pymatgen
data_Li2CuPO9
_symmetry_space_group_name_H-M   'P 1'
_cell_length_a   4.89383984
_cell_length_b   5.13835430
_cell_length_c   6.78931236
_cell_angle_alpha   73.03936005
_cell_angle_beta   86.50825500
_cell_angle_gamma   66.55425262
_symmetry_Int_Tables_number   1
_chemical_formula_structural   Li2CuPO9
_chemical_formula_sum   'Li2 Cu1 P1 O9'
_cell_volume   149.52148492
_cell_formula_units_Z   1
loop_
 _symmetry_equiv_pos_site_id
 _symmetry_equiv_pos_as_xyz
  1  'x, y, z'
loop_
 _atom_site_type_symbol
 _atom_site_label
 _atom_site_symmetry_multiplicity
 _atom_site_fract_x
 _atom_site_fract_y
 _atom_site_fract_z
 _atom_site_occupancy
  Li  Li0  1  0.21352801  0.28505600  0.15927799  1
  Li  Li1  1  0.78647204  0.71494401  0.84072196  1
  Cu  Cu2  1  0.50000003  0.50000001  0.49999998  1
  P  P3  1  0.13406201  0.13139800  0.72743799  1
  O  O4  1  0.86593805  0.86860201  0.27256196  1
  O  O5  1  0.10911401  0.30153900  0.88087899  1
  O  O6  1  0.25057201  0.28529500  0.52002199  1
  O  O7  1  0.18029702  0.85123401  0.33288297  1
  O  O8  1  0.35276503  0.80579701  0.79098297  1
  O  O9  1  0.64723503  0.19420300  0.20901698  1
  O  O10  1  0.81970304  0.14876600  0.66711698  1
  O  O11  1  0.74942804  0.71470501  0.47997797  1
  O  O12  1  0.89088605  0.69846101  0.11912097  1
