# generated using pymatgen
data_Nd2InNi2
_symmetry_space_group_name_H-M   'P 1'
_cell_length_a   3.80604601
_cell_length_b   7.84244823
_cell_length_c   7.84244823
_cell_angle_alpha   90.00000000
_cell_angle_beta   90.00000000
_cell_angle_gamma   90.00000000
_symmetry_Int_Tables_number   1
_chemical_formula_structural   Nd2InNi2
_chemical_formula_sum   'Nd4 In2 Ni4'
_cell_volume   234.08703209
_cell_formula_units_Z   2
loop_
 _symmetry_equiv_pos_site_id
 _symmetry_equiv_pos_as_xyz
  1  'x, y, z'
loop_
 _atom_site_type_symbol
 _atom_site_label
 _atom_site_symmetry_multiplicity
 _atom_site_fract_x
 _atom_site_fract_y
 _atom_site_fract_z
 _atom_site_occupancy
  Nd  Nd0  1  0.50000000  0.32848999  0.82848998  1
  Nd  Nd1  1  0.50000000  0.82848998  0.67150998  1
  Nd  Nd2  1  0.50000000  0.17150999  0.32848999  1
  Nd  Nd3  1  0.50000000  0.67150998  0.17150999  1
  In  In4  1  0.00000000  0.49999999  0.49999999  1
  In  In5  1  0.00000000  0.00000000  0.00000000  1
  Ni  Ni6  1  0.00000000  0.12079700  0.62079698  1
  Ni  Ni7  1  0.00000000  0.62079698  0.87920297  1
  Ni  Ni8  1  0.00000000  0.87920297  0.37920299  1
  Ni  Ni9  1  0.00000000  0.37920299  0.12079700  1
