# generated using pymatgen
data_In13Rh2Pb
_symmetry_space_group_name_H-M   'P 1'
_cell_length_a   8.09330368
_cell_length_b   9.20059013
_cell_length_c   8.09330368
_cell_angle_alpha   63.90726471
_cell_angle_beta   90.00000000
_cell_angle_gamma   116.09273529
_symmetry_Int_Tables_number   1
_chemical_formula_structural   In13Rh2Pb
_chemical_formula_sum   'In13 Rh2 Pb1'
_cell_volume   471.88441975
_cell_formula_units_Z   1
loop_
 _symmetry_equiv_pos_site_id
 _symmetry_equiv_pos_as_xyz
  1  'x, y, z'
loop_
 _atom_site_type_symbol
 _atom_site_label
 _atom_site_symmetry_multiplicity
 _atom_site_fract_x
 _atom_site_fract_y
 _atom_site_fract_z
 _atom_site_occupancy
  In  In0  1  0.75000004  0.49999999  0.25000000  1
  In  In1  1  0.25000002  0.49999999  0.75000002  1
  In  In2  1  0.67447605  0.99999997  0.82552401  1
  In  In3  1  0.17447601  0.00000100  0.67447503  1
  In  In4  1  0.32552404  0.99999997  0.17447598  1
  In  In5  1  0.82552406  0.99999897  0.32552499  1
  In  In6  1  0.19860303  0.73549298  0.96311002  1
  Pb  Pb7  1  0.46311003  0.26450699  0.69860302  1
  In  In8  1  0.80139704  0.26450699  0.03688999  1
  In  In9  1  0.30139702  0.26450699  0.19860300  1
  In  In10  1  0.96311005  0.26450699  0.53689001  1
  In  In11  1  0.69860305  0.73549298  0.80139701  1
  In  In12  1  0.50000002  0.00000000  0.50000002  1
  In  In13  1  0.00000000  0.00000000  0.00000000  1
  Rh  Rh14  1  0.53689004  0.73549298  0.30139699  1
  Rh  Rh15  1  0.03689002  0.73549298  0.46311000  1
