# generated using pymatgen
data_Li4VO4F
_symmetry_space_group_name_H-M   'P 1'
_cell_length_a   5.26241398
_cell_length_b   5.26241398
_cell_length_c   8.97108841
_cell_angle_alpha   89.59600830
_cell_angle_beta   89.59600830
_cell_angle_gamma   109.85544586
_symmetry_Int_Tables_number   1
_chemical_formula_structural   Li4VO4F
_chemical_formula_sum   'Li8 V2 O8 F2'
_cell_volume   233.64985291
_cell_formula_units_Z   2
loop_
 _symmetry_equiv_pos_site_id
 _symmetry_equiv_pos_as_xyz
  1  'x, y, z'
loop_
 _atom_site_type_symbol
 _atom_site_label
 _atom_site_symmetry_multiplicity
 _atom_site_fract_x
 _atom_site_fract_y
 _atom_site_fract_z
 _atom_site_occupancy
  Li  Li0  1  0.12385399  0.36241899  0.57830899  1
  Li  Li1  1  0.88677897  0.25457999  0.25147597  1
  Li  Li2  1  0.15554599  0.53196398  0.95819599  1
  Li  Li3  1  0.53196398  0.15554599  0.45819598  1
  Li  Li4  1  0.36241899  0.12385400  0.07830899  1
  Li  Li5  1  0.74162397  0.94322597  0.96452696  1
  Li  Li6  1  0.25457999  0.88677897  0.75147598  1
  Li  Li7  1  0.94322597  0.74162398  0.46452696  1
  V  V8  1  0.64146998  0.46131199  0.77232498  1
  V  V9  1  0.46131198  0.64146998  0.27232498  1
  O  O10  1  0.70061397  0.90124197  0.36817396  1
  O  O11  1  0.41584598  0.76610798  0.09771097  1
  O  O12  1  0.35800799  0.56011098  0.75384698  1
  O  O13  1  0.15720699  0.53685498  0.37160698  1
  O  O14  1  0.76610797  0.41584599  0.59771097  1
  O  O15  1  0.56011098  0.35800799  0.25384698  1
  O  O16  1  0.90124197  0.70061398  0.86817396  1
  O  O17  1  0.53685498  0.15720699  0.87160699  1
  F  F18  1  0.03034500  0.19774099  0.06554699  1
  F  F19  1  0.19774099  0.03034500  0.56554700  1
