# generated using pymatgen
data_YHfFe14
_symmetry_space_group_name_H-M   'P 1'
_cell_length_a   3.53695393
_cell_length_b   7.64301395
_cell_length_c   7.64301443
_cell_angle_alpha   120.00000000
_cell_angle_beta   90.00000000
_cell_angle_gamma   90.00000000
_symmetry_Int_Tables_number   1
_chemical_formula_structural   YHfFe14
_chemical_formula_sum   'Y1 Hf1 Fe14'
_cell_volume   178.93255624
_cell_formula_units_Z   1
loop_
 _symmetry_equiv_pos_site_id
 _symmetry_equiv_pos_as_xyz
  1  'x, y, z'
loop_
 _atom_site_type_symbol
 _atom_site_label
 _atom_site_symmetry_multiplicity
 _atom_site_fract_x
 _atom_site_fract_y
 _atom_site_fract_z
 _atom_site_occupancy
  Y  Y0  1  0.75000002  0.66666669  0.33333338  1
  Hf  Hf1  1  0.25000001  0.33333334  0.66666670  1
  Fe  Fe2  1  0.25000001  0.60362502  0.55228305  1
  Fe  Fe3  1  0.25000001  0.94865803  0.39637506  1
  Fe  Fe4  1  0.25000001  0.44771701  0.05134203  1
  Fe  Fe5  1  0.75000002  0.39637501  0.44771703  1
  Fe  Fe6  1  0.75000002  0.05134200  0.60362502  1
  Fe  Fe7  1  0.75000002  0.55228302  0.94865805  1
  Fe  Fe8  1  0.50000001  0.00000000  -0.00000000  1
  Fe  Fe9  1  0.00000000  0.00000000  0.00000000  1
  Fe  Fe10  1  0.25000001  0.92722003  0.67002707  1
  Fe  Fe11  1  0.25000001  0.74280702  0.07278004  1
  Fe  Fe12  1  0.25000001  0.32997301  0.25719302  1
  Fe  Fe13  1  0.75000002  0.07278000  0.32997301  1
  Fe  Fe14  1  0.75000002  0.25719301  0.92722004  1
  Fe  Fe15  1  0.75000002  0.67002702  0.74280705  1
