# generated using pymatgen
data_CdIn2BiS4
_symmetry_space_group_name_H-M   'P 1'
_cell_length_a   6.24614906
_cell_length_b   6.24614906
_cell_length_c   7.62564898
_cell_angle_alpha   114.17648315
_cell_angle_beta   114.17649078
_cell_angle_gamma   90.00000000
_symmetry_Int_Tables_number   1
_chemical_formula_structural   CdIn2BiS4
_chemical_formula_sum   'Cd1 In2 Bi1 S4'
_cell_volume   242.52805339
_cell_formula_units_Z   1
loop_
 _symmetry_equiv_pos_site_id
 _symmetry_equiv_pos_as_xyz
  1  'x, y, z'
loop_
 _atom_site_type_symbol
 _atom_site_label
 _atom_site_symmetry_multiplicity
 _atom_site_fract_x
 _atom_site_fract_y
 _atom_site_fract_z
 _atom_site_occupancy
  Cd  Cd0  1  0.24999999  0.74999999  0.49999997  1
  In  In1  1  0.74999998  0.25000000  0.49999997  1
  Bi  Bi2  1  0.49999998  0.49999999  -0.00000001  1
  In  In3  1  0.00000000  0.00000000  0.00000000  1
  S  S4  1  0.36190999  0.36190999  0.25622998  1
  S  S5  1  0.63808999  0.10568000  0.74376997  1
  S  S6  1  0.89431997  0.89431999  0.25622997  1
  S  S7  1  0.10567999  0.63808999  0.74376997  1
