# generated using pymatgen
data_Be3Pt
_symmetry_space_group_name_H-M   'P 1'
_cell_length_a   4.00893784
_cell_length_b   4.00893736
_cell_length_c   4.00893784
_cell_angle_alpha   59.99999619
_cell_angle_beta   60.00000000
_cell_angle_gamma   59.99998856
_symmetry_Int_Tables_number   1
_chemical_formula_structural   Be3Pt
_chemical_formula_sum   'Be3 Pt1'
_cell_volume   45.55886188
_cell_formula_units_Z   1
loop_
 _symmetry_equiv_pos_site_id
 _symmetry_equiv_pos_as_xyz
  1  'x, y, z'
loop_
 _atom_site_type_symbol
 _atom_site_label
 _atom_site_symmetry_multiplicity
 _atom_site_fract_x
 _atom_site_fract_y
 _atom_site_fract_z
 _atom_site_occupancy
  Be  Be0  1  0.00000000  0.00000000  0.00000000  1
  Be  Be1  1  0.50000003  0.50000001  0.49999994  1
  Be  Be2  1  0.75000005  0.75000002  0.74999991  1
  Pt  Pt3  1  0.25000002  0.25000001  0.24999997  1
