# generated using pymatgen
data_LiH
_symmetry_space_group_name_H-M   'P 1'
_cell_length_a   4.15349007
_cell_length_b   4.72067022
_cell_length_c   5.49288988
_cell_angle_alpha   92.61219025
_cell_angle_beta   90.44398499
_cell_angle_gamma   114.99325562
_symmetry_Int_Tables_number   1
_chemical_formula_structural   LiH
_chemical_formula_sum   'Li4 H4'
_cell_volume   97.47034538
_cell_formula_units_Z   4
loop_
 _symmetry_equiv_pos_site_id
 _symmetry_equiv_pos_as_xyz
  1  'x, y, z'
loop_
 _atom_site_type_symbol
 _atom_site_label
 _atom_site_symmetry_multiplicity
 _atom_site_fract_x
 _atom_site_fract_y
 _atom_site_fract_z
 _atom_site_occupancy
  Li  Li0  1  0.92696994  0.98079000  0.24862997  1
  Li  Li1  1  0.07303000  0.01921000  0.75137001  1
  Li  Li2  1  -0.00000002  0.50000000  -0.00000001  1
  Li  Li3  1  0.49999997  0.50000000  0.49999999  1
  H  H4  1  0.24155998  0.28037000  0.79706000  1
  H  H5  1  0.95306995  0.72318000  0.70470998  1
  H  H6  1  0.75843996  0.71963000  0.20293998  1
  H  H7  1  0.04692999  0.27682000  0.29529000  1
