# generated using pymatgen
data_NaLi(CN4)2
_symmetry_space_group_name_H-M   'P 1'
_cell_length_a   4.18000412
_cell_length_b   4.18000364
_cell_length_c   6.70992184
_cell_angle_alpha   90.00000000
_cell_angle_beta   90.00000000
_cell_angle_gamma   120.00000763
_symmetry_Int_Tables_number   1
_chemical_formula_structural   NaLi(CN4)2
_chemical_formula_sum   'Na1 Li1 C2 N8'
_cell_volume   101.53164662
_cell_formula_units_Z   1
loop_
 _symmetry_equiv_pos_site_id
 _symmetry_equiv_pos_as_xyz
  1  'x, y, z'
loop_
 _atom_site_type_symbol
 _atom_site_label
 _atom_site_symmetry_multiplicity
 _atom_site_fract_x
 _atom_site_fract_y
 _atom_site_fract_z
 _atom_site_occupancy
  Li  Li0  1  0.33333337  0.66666666  0.49411801  1
  Na  Na1  1  0.66666667  0.33333333  0.99411802  1
  C  C2  1  0.33333337  0.66666666  0.94220702  1
  C  C3  1  0.66666667  0.33333333  0.44220701  1
  N  N4  1  0.33333337  0.66666666  0.12368900  1
  N  N5  1  0.66666667  0.33333333  0.62368902  1
  N  N6  1  0.17467702  0.34935399  0.88167002  1
  N  N7  1  0.17467705  0.82532299  0.88167002  1
  N  N8  1  0.65064603  0.82532299  0.88167002  1
  N  N9  1  0.82532302  0.65064599  0.38167001  1
  N  N10  1  0.82532299  0.17467700  0.38167001  1
  N  N11  1  0.34935400  0.17467700  0.38167001  1
