# generated using pymatgen
data_Er2MnPt2
_symmetry_space_group_name_H-M   'P 1'
_cell_length_a   4.31557417
_cell_length_b   4.31557417
_cell_length_c   13.19012642
_cell_angle_alpha   90.00000000
_cell_angle_beta   90.00000000
_cell_angle_gamma   120.00000000
_symmetry_Int_Tables_number   1
_chemical_formula_structural   Er2MnPt2
_chemical_formula_sum   'Er4 Mn2 Pt4'
_cell_volume   212.74372522
_cell_formula_units_Z   2
loop_
 _symmetry_equiv_pos_site_id
 _symmetry_equiv_pos_as_xyz
  1  'x, y, z'
loop_
 _atom_site_type_symbol
 _atom_site_label
 _atom_site_symmetry_multiplicity
 _atom_site_fract_x
 _atom_site_fract_y
 _atom_site_fract_z
 _atom_site_occupancy
  Er  Er0  1  0.00000000  0.00000000  0.74999998  1
  Er  Er1  1  0.00000000  0.00000000  0.24999999  1
  Er  Er2  1  0.66666665  0.33333335  0.06332300  1
  Er  Er3  1  0.33333335  0.66666669  0.93667697  1
  Mn  Mn4  1  0.33333335  0.66666669  0.56332298  1
  Mn  Mn5  1  0.66666665  0.33333335  0.43667699  1
  Pt  Pt6  1  0.66666665  0.33333335  0.63810998  1
  Pt  Pt7  1  0.33333335  0.66666669  0.36188999  1
  Pt  Pt8  1  0.33333335  0.66666669  0.13811000  1
  Pt  Pt9  1  0.66666665  0.33333335  0.86188997  1
