# generated using pymatgen
data_SrIn3Pd
_symmetry_space_group_name_H-M   'P 1'
_cell_length_a   4.88611221
_cell_length_b   4.88611221
_cell_length_c   6.65036917
_cell_angle_alpha   111.55267334
_cell_angle_beta   111.55267334
_cell_angle_gamma   90.00000000
_symmetry_Int_Tables_number   1
_chemical_formula_structural   SrIn3Pd
_chemical_formula_sum   'Sr1 In3 Pd1'
_cell_volume   135.66360675
_cell_formula_units_Z   1
loop_
 _symmetry_equiv_pos_site_id
 _symmetry_equiv_pos_as_xyz
  1  'x, y, z'
loop_
 _atom_site_type_symbol
 _atom_site_label
 _atom_site_symmetry_multiplicity
 _atom_site_fract_x
 _atom_site_fract_y
 _atom_site_fract_z
 _atom_site_occupancy
  Sr  Sr0  1  0.00228400  0.00228400  0.00456800  1
  In  In1  1  0.59041695  0.59041696  0.18083396  1
  In  In2  1  0.25393596  0.75393595  0.50787196  1
  In  In3  1  0.75393595  0.25393598  0.50787196  1
  Pd  Pd4  1  0.35842697  0.35842698  0.71685396  1
