# generated using pymatgen
data_MnNiP
_symmetry_space_group_name_H-M   'P 1'
_cell_length_a   3.50382996
_cell_length_b   5.80346394
_cell_length_c   6.66619015
_cell_angle_alpha   90.00000000
_cell_angle_beta   90.00000000
_cell_angle_gamma   90.00000000
_symmetry_Int_Tables_number   1
_chemical_formula_structural   MnNiP
_chemical_formula_sum   'Mn4 Ni4 P4'
_cell_volume   135.55264887
_cell_formula_units_Z   4
loop_
 _symmetry_equiv_pos_site_id
 _symmetry_equiv_pos_as_xyz
  1  'x, y, z'
loop_
 _atom_site_type_symbol
 _atom_site_label
 _atom_site_symmetry_multiplicity
 _atom_site_fract_x
 _atom_site_fract_y
 _atom_site_fract_z
 _atom_site_occupancy
  Mn  Mn0  1  0.50000001  0.52792601  0.57917799  1
  Mn  Mn1  1  0.50000001  0.02792600  0.42082199  1
  Mn  Mn2  1  0.00000000  0.47102101  0.92048298  1
  Mn  Mn3  1  0.00000000  0.97102101  0.07951700  1
  Ni  Ni4  1  0.00000000  0.35466400  0.31201699  1
  Ni  Ni5  1  0.00000000  0.85466401  0.68798298  1
  Ni  Ni6  1  0.50000001  0.64759401  0.18377600  1
  Ni  Ni7  1  0.50000001  0.14759400  0.81622398  1
  P  P8  1  0.50000001  0.26734100  0.12726100  1
  P  P9  1  0.50000001  0.76734101  0.87273898  1
  P  P10  1  0.00000000  0.73145401  0.37653699  1
  P  P11  1  0.00000000  0.23145400  0.62346299  1
