# generated using pymatgen
data_Li4Mn2OF11
_symmetry_space_group_name_H-M   'P 1'
_cell_length_a   5.38525486
_cell_length_b   5.74088478
_cell_length_c   7.23326826
_cell_angle_alpha   78.61287689
_cell_angle_beta   74.90887451
_cell_angle_gamma   74.85619354
_symmetry_Int_Tables_number   1
_chemical_formula_structural   Li4Mn2OF11
_chemical_formula_sum   'Li4 Mn2 O1 F11'
_cell_volume   206.39523744
_cell_formula_units_Z   1
loop_
 _symmetry_equiv_pos_site_id
 _symmetry_equiv_pos_as_xyz
  1  'x, y, z'
loop_
 _atom_site_type_symbol
 _atom_site_label
 _atom_site_symmetry_multiplicity
 _atom_site_fract_x
 _atom_site_fract_y
 _atom_site_fract_z
 _atom_site_occupancy
  Li  Li0  1  0.31179603  0.30881100  0.16108998  1
  Li  Li1  1  0.00000000  0.00000000  0.00000000  1
  Li  Li2  1  0.34034504  0.34343400  0.66976498  1
  Li  Li3  1  0.00000000  0.00000000  0.49999999  1
  Mn  Mn4  1  0.65965507  0.65656599  0.33023497  1
  Mn  Mn5  1  0.68820408  0.69118899  0.83890996  1
  F  F6  1  0.09201401  0.09186900  0.20481999  1
  O  O7  1  0.90798610  0.90813099  0.79517995  1
  F  F8  1  0.46007005  0.46445199  0.84926297  1
  F  F9  1  0.53993006  0.53554799  0.15073697  1
  F  F10  1  0.01476105  0.59759299  0.17584099  1
  F  F11  1  0.36627409  0.95694499  0.85696496  1
  F  F12  1  0.63372603  0.04305500  0.14303498  1
  F  F13  1  0.22785503  0.22389900  0.48802298  1
  F  F14  1  0.68991805  0.28130800  0.51582097  1
  F  F15  1  0.98523907  0.40240699  0.82415895  1
  F  F16  1  0.31008207  0.71869199  0.48417897  1
  F  F17  1  0.77214509  0.77610099  0.51197696  1
