# generated using pymatgen
data_SrGa4
_symmetry_space_group_name_H-M   'P 1'
_cell_length_a   4.60861778
_cell_length_b   4.60861778
_cell_length_c   6.18065214
_cell_angle_alpha   111.89002228
_cell_angle_beta   111.89002228
_cell_angle_gamma   90.00000000
_symmetry_Int_Tables_number   1
_chemical_formula_structural   SrGa4
_chemical_formula_sum   'Sr1 Ga4'
_cell_volume   111.54360039
_cell_formula_units_Z   1
loop_
 _symmetry_equiv_pos_site_id
 _symmetry_equiv_pos_as_xyz
  1  'x, y, z'
loop_
 _atom_site_type_symbol
 _atom_site_label
 _atom_site_symmetry_multiplicity
 _atom_site_fract_x
 _atom_site_fract_y
 _atom_site_fract_z
 _atom_site_occupancy
  Sr  Sr0  1  0.00000000  0.00000000  0.00000000  1
  Ga  Ga1  1  0.62167205  0.62167204  0.24334403  1
  Ga  Ga2  1  0.37832803  0.37832802  0.75665604  1
  Ga  Ga3  1  0.75000005  0.25000001  0.50000004  1
  Ga  Ga4  1  0.25000003  0.75000004  0.50000004  1
