# generated using pymatgen
data_Mn5Si2C3
_symmetry_space_group_name_H-M   'P 1'
_cell_length_a   2.84522796
_cell_length_b   4.82006550
_cell_length_c   6.93823481
_cell_angle_alpha   90.00000000
_cell_angle_beta   90.00000000
_cell_angle_gamma   107.16617584
_symmetry_Int_Tables_number   1
_chemical_formula_structural   Mn5Si2C3
_chemical_formula_sum   'Mn5 Si2 C3'
_cell_volume   90.91346741
_cell_formula_units_Z   1
loop_
 _symmetry_equiv_pos_site_id
 _symmetry_equiv_pos_as_xyz
  1  'x, y, z'
loop_
 _atom_site_type_symbol
 _atom_site_label
 _atom_site_symmetry_multiplicity
 _atom_site_fract_x
 _atom_site_fract_y
 _atom_site_fract_z
 _atom_site_occupancy
  Mn  Mn0  1  0.14565297  0.29130601  0.81457202  1
  Mn  Mn1  1  0.86248794  0.72497601  0.68364402  1
  Mn  Mn2  1  0.14565297  0.29130601  0.18542801  1
  Mn  Mn3  1  0.86248794  0.72497601  0.31635601  1
  Mn  Mn4  1  0.39663093  0.79326202  -0.00000000  1
  Si  Si5  1  0.58357899  0.16715800  0.50000001  1
  Si  Si6  1  0.24479695  0.48959401  0.50000001  1
  C  C7  1  0.50273701  0.00547400  0.75761202  1
  C  C8  1  0.50273701  0.00547400  0.24238801  1
  C  C9  1  0.75323396  0.50646801  -0.00000000  1
