# generated using pymatgen
data_VWO6
_symmetry_space_group_name_H-M   'P 1'
_cell_length_a   4.91040230
_cell_length_b   4.91040230
_cell_length_c   5.78752995
_cell_angle_alpha   90.00000000
_cell_angle_beta   90.00000000
_cell_angle_gamma   117.70433044
_symmetry_Int_Tables_number   1
_chemical_formula_structural   VWO6
_chemical_formula_sum   'V1 W1 O6'
_cell_volume   123.55108286
_cell_formula_units_Z   1
loop_
 _symmetry_equiv_pos_site_id
 _symmetry_equiv_pos_as_xyz
  1  'x, y, z'
loop_
 _atom_site_type_symbol
 _atom_site_label
 _atom_site_symmetry_multiplicity
 _atom_site_fract_x
 _atom_site_fract_y
 _atom_site_fract_z
 _atom_site_occupancy
  V  V0  1  0.88379404  0.09378800  0.75000001  1
  W  W1  1  0.09378801  0.88379404  0.25000000  1
  O  O2  1  0.40066602  0.84827404  0.25000000  1
  O  O3  1  0.84827404  0.40066602  0.75000001  1
  O  O4  1  0.55016403  0.80767503  0.75000001  1
  O  O5  1  0.80767504  0.55016402  0.25000000  1
  O  O6  1  0.09183200  0.09183200  -0.00000000  1
  O  O7  1  0.09183200  0.09183200  0.50000000  1
