# generated using pymatgen
data_NaNbPCl5
_symmetry_space_group_name_H-M   'P 1'
_cell_length_a   6.76725864
_cell_length_b   7.12507057
_cell_length_c   9.82685471
_cell_angle_alpha   111.15035248
_cell_angle_beta   100.55542755
_cell_angle_gamma   90.13700867
_symmetry_Int_Tables_number   1
_chemical_formula_structural   NaNbPCl5
_chemical_formula_sum   'Na2 Nb2 P2 Cl10'
_cell_volume   433.21353591
_cell_formula_units_Z   2
loop_
 _symmetry_equiv_pos_site_id
 _symmetry_equiv_pos_as_xyz
  1  'x, y, z'
loop_
 _atom_site_type_symbol
 _atom_site_label
 _atom_site_symmetry_multiplicity
 _atom_site_fract_x
 _atom_site_fract_y
 _atom_site_fract_z
 _atom_site_occupancy
  Nb  Nb0  1  0.49999899  0.27631301  0.00006099  1
  Na  Na1  1  0.50000098  0.72368702  0.99993901  1
  Na  Na2  1  0.72209598  0.71377302  0.42795400  1
  Nb  Nb3  1  0.27790399  0.28622701  0.57204601  1
  P  P4  1  0.28054197  0.86832802  0.73639101  1
  P  P5  1  0.71945799  0.13167200  0.26360900  1
  Cl  Cl6  1  0.17405398  0.68195602  0.83098001  1
  Cl  Cl7  1  0.34730698  0.56094602  0.12307500  1
  Cl  Cl8  1  0.41319300  0.08280500  0.16682700  1
  Cl  Cl9  1  0.58680697  0.91719503  0.83317301  1
  Cl  Cl10  1  0.17403500  0.14833100  0.83109001  1
  Cl  Cl11  1  0.77714199  0.24189201  0.48503000  1
  Cl  Cl12  1  0.65269298  0.43905401  0.87692501  1
  Cl  Cl13  1  0.22285798  0.75810802  0.51497001  1
  Cl  Cl14  1  0.82596497  0.85166902  0.16890999  1
  Cl  Cl15  1  0.82594599  0.31804401  0.16901999  1
