# generated using pymatgen
data_Sr2CuSn3
_symmetry_space_group_name_H-M   'P 1'
_cell_length_a   4.68198013
_cell_length_b   4.68198013
_cell_length_c   8.92532063
_cell_angle_alpha   90.00000000
_cell_angle_beta   90.00000000
_cell_angle_gamma   120.00000000
_symmetry_Int_Tables_number   1
_chemical_formula_structural   Sr2CuSn3
_chemical_formula_sum   'Sr2 Cu1 Sn3'
_cell_volume   169.43908248
_cell_formula_units_Z   1
loop_
 _symmetry_equiv_pos_site_id
 _symmetry_equiv_pos_as_xyz
  1  'x, y, z'
loop_
 _atom_site_type_symbol
 _atom_site_label
 _atom_site_symmetry_multiplicity
 _atom_site_fract_x
 _atom_site_fract_y
 _atom_site_fract_z
 _atom_site_occupancy
  Sr  Sr0  1  0.00000000  0.00000000  0.00000000  1
  Sr  Sr1  1  0.00000000  0.00000000  0.50000002  1
  Cu  Cu2  1  0.33333336  0.66666671  0.75000003  1
  Sn  Sn3  1  0.66666666  0.33333336  0.25000001  1
  Sn  Sn4  1  0.33333336  0.66666671  0.25000001  1
  Sn  Sn5  1  0.66666666  0.33333336  0.75000003  1
