# generated using pymatgen
data_La5Bi3
_symmetry_space_group_name_H-M   'P 1'
_cell_length_a   6.94450188
_cell_length_b   9.56694603
_cell_length_c   9.56694603
_cell_angle_alpha   120.00000000
_cell_angle_beta   90.00000000
_cell_angle_gamma   90.00000000
_symmetry_Int_Tables_number   1
_chemical_formula_structural   La5Bi3
_chemical_formula_sum   'La10 Bi6'
_cell_volume   550.45063778
_cell_formula_units_Z   2
loop_
 _symmetry_equiv_pos_site_id
 _symmetry_equiv_pos_as_xyz
  1  'x, y, z'
loop_
 _atom_site_type_symbol
 _atom_site_label
 _atom_site_symmetry_multiplicity
 _atom_site_fract_x
 _atom_site_fract_y
 _atom_site_fract_z
 _atom_site_occupancy
  La  La0  1  -0.00000000  0.33333333  0.66666664  1
  La  La1  1  -0.00000000  0.66666666  0.33333331  1
  La  La2  1  0.50000001  0.66666666  0.33333331  1
  La  La3  1  0.50000001  0.33333333  0.66666664  1
  La  La4  1  0.25000000  0.24874600  0.99999997  1
  La  La5  1  0.25000000  0.75125399  0.75125397  1
  La  La6  1  0.25000000  0.99999999  0.24874598  1
  La  La7  1  0.75000001  0.75125399  -0.00000001  1
  La  La8  1  0.75000001  0.24874600  0.24874599  1
  La  La9  1  0.75000001  0.00000000  0.75125398  1
  Bi  Bi10  1  0.25000000  0.61027099  0.99999996  1
  Bi  Bi11  1  0.25000000  0.38972900  0.38972898  1
  Bi  Bi12  1  0.25000000  0.00000000  0.61027098  1
  Bi  Bi13  1  0.75000001  0.38972900  -0.00000001  1
  Bi  Bi14  1  0.75000001  0.61027099  0.61027097  1
  Bi  Bi15  1  0.75000001  0.00000000  0.38972899  1
