# generated using pymatgen
data_KTlWF4
_symmetry_space_group_name_H-M   'P 1'
_cell_length_a   4.38210011
_cell_length_b   4.38210011
_cell_length_c   7.73613548
_cell_angle_alpha   106.45264435
_cell_angle_beta   106.45264435
_cell_angle_gamma   90.00000000
_symmetry_Int_Tables_number   1
_chemical_formula_structural   KTlWF4
_chemical_formula_sum   'K1 Tl1 W1 F4'
_cell_volume   136.11846409
_cell_formula_units_Z   1
loop_
 _symmetry_equiv_pos_site_id
 _symmetry_equiv_pos_as_xyz
  1  'x, y, z'
loop_
 _atom_site_type_symbol
 _atom_site_label
 _atom_site_symmetry_multiplicity
 _atom_site_fract_x
 _atom_site_fract_y
 _atom_site_fract_z
 _atom_site_occupancy
  K  K0  1  0.00000000  0.00000000  0.00000000  1
  Tl  Tl1  1  0.34643598  0.34643599  0.69287199  1
  W  W2  1  0.65356396  0.65356398  0.30712797  1
  F  F3  1  0.13728399  0.13728400  0.27456800  1
  F  F4  1  0.86271595  0.86271597  0.72543197  1
  F  F5  1  0.49999998  0.00000000  -0.00000001  1
  F  F6  1  -0.00000001  0.49999998  -0.00000001  1
