# generated using pymatgen
data_Be4BH11
_symmetry_space_group_name_H-M   'P 1'
_cell_length_a   4.25227499
_cell_length_b   4.41012192
_cell_length_c   5.30470085
_cell_angle_alpha   90.00000000
_cell_angle_beta   90.00000000
_cell_angle_gamma   90.00000000
_symmetry_Int_Tables_number   1
_chemical_formula_structural   Be4BH11
_chemical_formula_sum   'Be4 B1 H11'
_cell_volume   99.47932632
_cell_formula_units_Z   1
loop_
 _symmetry_equiv_pos_site_id
 _symmetry_equiv_pos_as_xyz
  1  'x, y, z'
loop_
 _atom_site_type_symbol
 _atom_site_label
 _atom_site_symmetry_multiplicity
 _atom_site_fract_x
 _atom_site_fract_y
 _atom_site_fract_z
 _atom_site_occupancy
  Be  Be0  1  0.99245400  0.58577001  0.87511302  1
  Be  Be1  1  0.49245400  0.41423001  0.12488700  1
  Be  Be2  1  0.49245400  0.91423002  0.37511301  1
  Be  Be3  1  0.99245400  0.08577000  0.62488702  1
  B  B4  1  0.99342000  0.56790801  0.37506701  1
  H  H5  1  0.49342000  0.43209201  0.62493302  1
  H  H6  1  0.49342000  0.93209202  0.87506702  1
  H  H7  1  0.99342000  0.06790800  0.12493300  1
  H  H8  1  0.34828100  0.55876801  0.39684201  1
  H  H9  1  0.84828100  0.44123201  0.60315802  1
  H  H10  1  0.84828100  0.94123202  0.89684203  1
  H  H11  1  0.34828100  0.05876800  0.10315800  1
  H  H12  1  0.39114500  0.60784301  0.85230302  1
  H  H13  1  0.89114500  0.39215701  0.14769700  1
  H  H14  1  0.89114500  0.89215702  0.35230301  1
  H  H15  1  0.39114500  0.10784300  0.64769702  1
