# generated using pymatgen
data_H2O2
_symmetry_space_group_name_H-M   'P 1'
_cell_length_a   4.78538275
_cell_length_b   5.04669619
_cell_length_c   5.17301893
_cell_angle_alpha   60.80455780
_cell_angle_beta   89.71456909
_cell_angle_gamma   89.41484070
_symmetry_Int_Tables_number   1
_chemical_formula_structural   H2O2
_chemical_formula_sum   'H7 O7'
_cell_volume   109.05360883
_cell_formula_units_Z   3
loop_
 _symmetry_equiv_pos_site_id
 _symmetry_equiv_pos_as_xyz
  1  'x, y, z'
loop_
 _atom_site_type_symbol
 _atom_site_label
 _atom_site_symmetry_multiplicity
 _atom_site_fract_x
 _atom_site_fract_y
 _atom_site_fract_z
 _atom_site_occupancy
  H  H0  1  0.00318500  0.34994398  0.32835399  1
  H  H1  1  0.00318499  0.67829797  0.67164599  1
  H  H2  1  0.71502897  0.21029899  0.77109298  1
  H  H3  1  0.71502896  0.98139196  0.22890700  1
  H  H4  1  0.58861697  0.58640197  0.00000001  1
  H  H5  1  0.41026598  0.59377597  0.41382899  1
  H  H6  1  0.41026598  0.00760500  0.58617098  1
  O  O7  1  0.25779199  0.19431599  0.99999997  1
  O  O8  1  0.77292997  0.40304898  0.60664398  1
  O  O9  1  0.77292997  0.00969300  0.39335599  1
  O  O10  1  0.78337096  0.64597697  0.00000001  1
  O  O11  1  0.21173698  0.64456397  0.36922700  1
  O  O12  1  0.21173699  0.01379100  0.63077298  1
  O  O13  1  0.22319699  0.38562698  0.00000000  1
