# generated using pymatgen
data_Ca4TaTi3O12
_symmetry_space_group_name_H-M   'P 1'
_cell_length_a   5.47316885
_cell_length_b   5.60954952
_cell_length_c   7.79295015
_cell_angle_alpha   90.00000000
_cell_angle_beta   90.00000000
_cell_angle_gamma   89.91931152
_symmetry_Int_Tables_number   1
_chemical_formula_structural   Ca4TaTi3O12
_chemical_formula_sum   'Ca4 Ta1 Ti3 O12'
_cell_volume   239.25900959
_cell_formula_units_Z   1
loop_
 _symmetry_equiv_pos_site_id
 _symmetry_equiv_pos_as_xyz
  1  'x, y, z'
loop_
 _atom_site_type_symbol
 _atom_site_label
 _atom_site_symmetry_multiplicity
 _atom_site_fract_x
 _atom_site_fract_y
 _atom_site_fract_z
 _atom_site_occupancy
  Ca  Ca0  1  0.49029203  0.54409500  0.49999999  1
  Ca  Ca1  1  0.01180000  0.05042400  0.49999999  1
  Ca  Ca2  1  0.51135503  0.44737700  0.99999998  1
  Ca  Ca3  1  0.98966106  0.94948801  0.99999998  1
  Ti  Ti4  1  0.00032002  0.50007100  0.24744500  1
  Ti  Ti5  1  0.49961105  0.99985601  0.75219399  1
  Ta  Ta6  1  0.00032002  0.50007100  0.75255499  1
  Ti  Ti7  1  0.49961105  0.99985601  0.24780600  1
  O  O8  1  0.19545503  0.80095201  0.29428199  1
  O  O9  1  0.29234702  0.28845300  0.71239899  1
  O  O10  1  0.79859203  0.20361200  0.79955298  1
  O  O11  1  0.69966504  0.70364700  0.19964300  1
  O  O12  1  0.79859203  0.20361200  0.20044700  1
  O  O13  1  0.69966504  0.70364700  0.80035698  1
  O  O14  1  0.19545503  0.80095201  0.70571799  1
  O  O15  1  0.29234702  0.28845300  0.28760099  1
  O  O16  1  0.59183205  0.98950801  0.49999999  1
  O  O17  1  0.93228804  0.47181900  0.49999999  1
  O  O18  1  0.40875501  0.02554400  0.99999998  1
  O  O19  1  0.09203602  0.52856300  0.99999998  1
