# generated using pymatgen
data_Zr2CS
_symmetry_space_group_name_H-M   'P 1'
_cell_length_a   3.59555507
_cell_length_b   3.59555507
_cell_length_c   5.45443487
_cell_angle_alpha   90.00000000
_cell_angle_beta   90.00000000
_cell_angle_gamma   90.00000000
_symmetry_Int_Tables_number   1
_chemical_formula_structural   Zr2CS
_chemical_formula_sum   'Zr2 C1 S1'
_cell_volume   70.51502260
_cell_formula_units_Z   1
loop_
 _symmetry_equiv_pos_site_id
 _symmetry_equiv_pos_as_xyz
  1  'x, y, z'
loop_
 _atom_site_type_symbol
 _atom_site_label
 _atom_site_symmetry_multiplicity
 _atom_site_fract_x
 _atom_site_fract_y
 _atom_site_fract_z
 _atom_site_occupancy
  Zr  Zr0  1  0.49999999  0.49999999  -0.00000000  1
  Zr  Zr1  1  0.00000000  0.00000000  0.00000000  1
  C  C2  1  0.49999999  0.00000000  0.22208001  1
  S  S3  1  -0.00000000  0.49999999  0.77792002  1
