# generated using pymatgen
data_Er2GaCo2
_symmetry_space_group_name_H-M   'P 1'
_cell_length_a   4.08132792
_cell_length_b   5.28502035
_cell_length_c   5.28502035
_cell_angle_alpha   60.97152710
_cell_angle_beta   67.28656769
_cell_angle_gamma   67.28656769
_symmetry_Int_Tables_number   1
_chemical_formula_structural   Er2GaCo2
_chemical_formula_sum   'Er2 Ga1 Co2'
_cell_volume   89.11121923
_cell_formula_units_Z   1
loop_
 _symmetry_equiv_pos_site_id
 _symmetry_equiv_pos_as_xyz
  1  'x, y, z'
loop_
 _atom_site_type_symbol
 _atom_site_label
 _atom_site_symmetry_multiplicity
 _atom_site_fract_x
 _atom_site_fract_y
 _atom_site_fract_z
 _atom_site_occupancy
  Er  Er0  1  0.79693600  0.70306401  0.70306398  1
  Er  Er1  1  0.20306399  0.29693600  0.29693600  1
  Ga  Ga2  1  0.00000000  0.00000000  0.00000000  1
  Co  Co3  1  0.50000001  0.27119500  0.72880498  1
  Co  Co4  1  0.49999998  0.72880501  0.27119499  1
