# generated using pymatgen
data_ScZn2Pd
_symmetry_space_group_name_H-M   'P 1'
_cell_length_a   4.53986740
_cell_length_b   4.53986740
_cell_length_c   4.53986740
_cell_angle_alpha   60.00001144
_cell_angle_beta   60.00000000
_cell_angle_gamma   60.00001144
_symmetry_Int_Tables_number   1
_chemical_formula_structural   ScZn2Pd
_chemical_formula_sum   'Sc1 Zn2 Pd1'
_cell_volume   66.16290756
_cell_formula_units_Z   1
loop_
 _symmetry_equiv_pos_site_id
 _symmetry_equiv_pos_as_xyz
  1  'x, y, z'
loop_
 _atom_site_type_symbol
 _atom_site_label
 _atom_site_symmetry_multiplicity
 _atom_site_fract_x
 _atom_site_fract_y
 _atom_site_fract_z
 _atom_site_occupancy
  Sc  Sc0  1  0.00000000  0.00000000  0.00000000  1
  Zn  Zn1  1  0.75000001  0.74999998  0.75000001  1
  Zn  Zn2  1  0.25000000  0.24999999  0.25000000  1
  Pd  Pd3  1  0.50000001  0.49999999  0.50000001  1
