# generated using pymatgen
data_NdTmGa6
_symmetry_space_group_name_H-M   'P 1'
_cell_length_a   4.59919691
_cell_length_b   6.43157578
_cell_length_c   6.43157578
_cell_angle_alpha   120.00000000
_cell_angle_beta   90.00000000
_cell_angle_gamma   90.00000000
_symmetry_Int_Tables_number   1
_chemical_formula_structural   NdTmGa6
_chemical_formula_sum   'Nd1 Tm1 Ga6'
_cell_volume   164.75834360
_cell_formula_units_Z   1
loop_
 _symmetry_equiv_pos_site_id
 _symmetry_equiv_pos_as_xyz
  1  'x, y, z'
loop_
 _atom_site_type_symbol
 _atom_site_label
 _atom_site_symmetry_multiplicity
 _atom_site_fract_x
 _atom_site_fract_y
 _atom_site_fract_z
 _atom_site_occupancy
  Nd  Nd0  1  1.00000002  0.33333334  0.66666667  1
  Tm  Tm1  1  0.50000001  0.66666668  0.33333332  1
  Ga  Ga2  1  0.50000001  0.71457102  0.85728499  1
  Ga  Ga3  1  0.50000001  0.14271400  0.28542800  1
  Ga  Ga4  1  0.50000001  0.14271400  0.85728500  1
  Ga  Ga5  1  1.00000002  0.29099001  0.14549500  1
  Ga  Ga6  1  1.00000002  0.85450502  0.70900999  1
  Ga  Ga7  1  1.00000002  0.85450502  0.14549499  1
