# generated using pymatgen
data_TmFe11Mo
_symmetry_space_group_name_H-M   'P 1'
_cell_length_a   4.66345501
_cell_length_b   6.50753164
_cell_length_c   6.50753212
_cell_angle_alpha   81.97326660
_cell_angle_beta   69.00342560
_cell_angle_gamma   69.00343323
_symmetry_Int_Tables_number   1
_chemical_formula_structural   TmFe11Mo
_chemical_formula_sum   'Tm1 Fe11 Mo1'
_cell_volume   172.11854560
_cell_formula_units_Z   1
loop_
 _symmetry_equiv_pos_site_id
 _symmetry_equiv_pos_as_xyz
  1  'x, y, z'
loop_
 _atom_site_type_symbol
 _atom_site_label
 _atom_site_symmetry_multiplicity
 _atom_site_fract_x
 _atom_site_fract_y
 _atom_site_fract_z
 _atom_site_occupancy
  Tm  Tm0  1  0.00000000  0.00000000  0.00000000  1
  Fe  Fe1  1  0.99999997  0.00000000  0.50000003  1
  Fe  Fe2  1  0.49999999  0.00000000  0.50000001  1
  Fe  Fe3  1  0.50000002  0.49999998  0.99999999  1
  Fe  Fe4  1  1.00000001  0.49999998  0.00000005  1
  Fe  Fe5  1  0.50000004  0.78765997  0.21234002  1
  Fe  Fe6  1  0.50000000  0.21233999  0.78766000  1
  Fe  Fe7  1  0.72458004  0.77541997  0.77542001  1
  Fe  Fe8  1  0.27542001  0.22457999  0.22458001  1
  Fe  Fe9  1  1.00000000  0.35356099  0.64643903  1
  Fe  Fe10  1  1.00000002  0.64643898  0.35356104  1
  Fe  Fe11  1  0.64326801  0.35673199  0.35673202  1
  Mo  Mo12  1  0.35673204  0.64326798  0.64326800  1
