# generated using pymatgen
data_LiSi
_symmetry_space_group_name_H-M   'P 1'
_cell_length_a   4.53183985
_cell_length_b   5.13203812
_cell_length_c   7.00076008
_cell_angle_alpha   68.49796295
_cell_angle_beta   90.00000000
_cell_angle_gamma   90.00000000
_symmetry_Int_Tables_number   1
_chemical_formula_structural   LiSi
_chemical_formula_sum   'Li4 Si4'
_cell_volume   151.48911934
_cell_formula_units_Z   4
loop_
 _symmetry_equiv_pos_site_id
 _symmetry_equiv_pos_as_xyz
  1  'x, y, z'
loop_
 _atom_site_type_symbol
 _atom_site_label
 _atom_site_symmetry_multiplicity
 _atom_site_fract_x
 _atom_site_fract_y
 _atom_site_fract_z
 _atom_site_occupancy
  Li  Li0  1  0.25000001  0.88460097  0.23079803  1
  Li  Li1  1  0.25000001  0.81547797  0.85560104  1
  Li  Li2  1  0.25000001  0.32892099  0.85560103  1
  Li  Li3  1  0.75000003  0.11539900  0.76920202  1
  Si  Si4  1  0.75000003  0.18452199  0.14439901  1
  Si  Si5  1  0.75000003  0.67107898  0.14439902  1
  Si  Si6  1  0.75000003  0.70532398  0.58935203  1
  Si  Si7  1  0.25000001  0.29467599  0.41064802  1
