# generated using pymatgen
data_HoCoGe3
_symmetry_space_group_name_H-M   'P 1'
_cell_length_a   4.09015179
_cell_length_b   4.10292387
_cell_length_c   10.97532177
_cell_angle_alpha   79.22714996
_cell_angle_beta   90.00000000
_cell_angle_gamma   90.00000000
_symmetry_Int_Tables_number   1
_chemical_formula_structural   HoCoGe3
_chemical_formula_sum   'Ho2 Co2 Ge6'
_cell_volume   180.93719748
_cell_formula_units_Z   2
loop_
 _symmetry_equiv_pos_site_id
 _symmetry_equiv_pos_as_xyz
  1  'x, y, z'
loop_
 _atom_site_type_symbol
 _atom_site_label
 _atom_site_symmetry_multiplicity
 _atom_site_fract_x
 _atom_site_fract_y
 _atom_site_fract_z
 _atom_site_occupancy
  Ho  Ho0  1  0.50000003  0.16879100  0.66241801  1
  Ho  Ho1  1  0.50000003  0.83120902  0.33758202  1
  Co  Co2  1  0.00000000  0.38934601  0.22130801  1
  Co  Co3  1  0.00000000  0.61065401  0.77869202  1
  Ge  Ge4  1  0.00000000  0.28313701  0.43372601  1
  Ge  Ge5  1  0.00000000  0.71686302  0.56627402  1
  Ge  Ge6  1  0.50000003  0.44250801  0.11498401  1
  Ge  Ge7  1  0.50000003  0.55749201  0.88501602  1
  Ge  Ge8  1  0.00000000  0.05760100  0.88479801  1
  Ge  Ge9  1  0.00000000  0.94239902  0.11520202  1
