# generated using pymatgen
data_K2AlTlF8
_symmetry_space_group_name_H-M   'P 1'
_cell_length_a   5.85716581
_cell_length_b   5.85716581
_cell_length_c   7.66930532
_cell_angle_alpha   112.44879913
_cell_angle_beta   112.44879913
_cell_angle_gamma   90.00000000
_symmetry_Int_Tables_number   1
_chemical_formula_structural   K2AlTlF8
_chemical_formula_sum   'K2 Al1 Tl1 F8'
_cell_volume   221.44249691
_cell_formula_units_Z   1
loop_
 _symmetry_equiv_pos_site_id
 _symmetry_equiv_pos_as_xyz
  1  'x, y, z'
loop_
 _atom_site_type_symbol
 _atom_site_label
 _atom_site_symmetry_multiplicity
 _atom_site_fract_x
 _atom_site_fract_y
 _atom_site_fract_z
 _atom_site_occupancy
  K  K0  1  0.25000003  0.75000004  0.50000004  1
  K  K1  1  0.50000003  0.50000002  0.00000003  1
  Tl  Tl2  1  0.00000000  0.00000000  0.00000000  1
  Al  Al3  1  0.75000004  0.25000001  0.50000003  1
  F  F4  1  0.94925905  0.29745301  0.15570103  1
  F  F5  1  0.04745301  0.45644202  0.65570103  1
  F  F6  1  0.60824803  0.19925901  0.65570103  1
  F  F7  1  0.20644203  0.85824804  0.15570103  1
  F  F8  1  0.54355803  0.39175202  0.34429903  1
  F  F9  1  0.14175201  0.05074100  0.84429902  1
  F  F10  1  0.70254705  0.79355804  0.84429906  1
  F  F11  1  0.80074106  0.95254705  0.34429905  1
