# generated using pymatgen
data_Zn3CuSeS2
_symmetry_space_group_name_H-M   'P 1'
_cell_length_a   5.49223375
_cell_length_b   5.52439070
_cell_length_c   6.58019257
_cell_angle_alpha   65.86360931
_cell_angle_beta   66.02092743
_cell_angle_gamma   91.49171448
_symmetry_Int_Tables_number   1
_chemical_formula_structural   Zn3CuSeS2
_chemical_formula_sum   'Zn3 Cu1 Se1 S2'
_cell_volume   161.98830735
_cell_formula_units_Z   1
loop_
 _symmetry_equiv_pos_site_id
 _symmetry_equiv_pos_as_xyz
  1  'x, y, z'
loop_
 _atom_site_type_symbol
 _atom_site_label
 _atom_site_symmetry_multiplicity
 _atom_site_fract_x
 _atom_site_fract_y
 _atom_site_fract_z
 _atom_site_occupancy
  Zn  Zn0  1  0.50490798  0.50490897  0.99018305  1
  Zn  Zn1  1  0.24458397  0.74458395  0.51083206  1
  Zn  Zn2  1  0.00417600  0.00417600  0.99164800  1
  Cu  Cu3  1  0.11207498  0.60024596  0.26322404  1
  Se  Se4  1  0.62470099  0.13652999  0.26322404  1
  S  S5  1  0.87823796  0.86606495  0.74044410  1
  S  S6  1  0.38131798  0.39349098  0.74044404  1
