# generated using pymatgen
data_Hf2Co2Sn
_symmetry_space_group_name_H-M   'P 1'
_cell_length_a   3.38980103
_cell_length_b   7.06214523
_cell_length_c   7.06214523
_cell_angle_alpha   90.00000000
_cell_angle_beta   90.00000000
_cell_angle_gamma   90.00000000
_symmetry_Int_Tables_number   1
_chemical_formula_structural   Hf2Co2Sn
_chemical_formula_sum   'Hf4 Co4 Sn2'
_cell_volume   169.06258141
_cell_formula_units_Z   2
loop_
 _symmetry_equiv_pos_site_id
 _symmetry_equiv_pos_as_xyz
  1  'x, y, z'
loop_
 _atom_site_type_symbol
 _atom_site_label
 _atom_site_symmetry_multiplicity
 _atom_site_fract_x
 _atom_site_fract_y
 _atom_site_fract_z
 _atom_site_occupancy
  Hf  Hf0  1  0.50000000  0.66708898  0.16708899  1
  Hf  Hf1  1  0.50000000  0.33291099  0.83291097  1
  Hf  Hf2  1  0.50000000  0.83291097  0.66708898  1
  Hf  Hf3  1  0.50000000  0.16708899  0.33291099  1
  Co  Co4  1  0.99999999  0.62540398  0.87459597  1
  Co  Co5  1  0.99999999  0.12540400  0.62540398  1
  Co  Co6  1  0.99999999  0.87459597  0.37459599  1
  Co  Co7  1  0.99999999  0.37459599  0.12540400  1
  Sn  Sn8  1  0.99999999  0.49999998  0.49999998  1
  Sn  Sn9  1  0.00000000  0.00000000  0.00000000  1
