# generated using pymatgen
data_Sr2NdBiO6
_symmetry_space_group_name_H-M   'P 1'
_cell_length_a   5.97331429
_cell_length_b   6.16451406
_cell_length_c   8.55512905
_cell_angle_alpha   90.00000000
_cell_angle_beta   89.93675995
_cell_angle_gamma   90.00000000
_symmetry_Int_Tables_number   1
_chemical_formula_structural   Sr2NdBiO6
_chemical_formula_sum   'Sr4 Nd2 Bi2 O12'
_cell_volume   315.02173137
_cell_formula_units_Z   2
loop_
 _symmetry_equiv_pos_site_id
 _symmetry_equiv_pos_as_xyz
  1  'x, y, z'
loop_
 _atom_site_type_symbol
 _atom_site_label
 _atom_site_symmetry_multiplicity
 _atom_site_fract_x
 _atom_site_fract_y
 _atom_site_fract_z
 _atom_site_occupancy
  Sr  Sr0  1  0.01356100  0.45030100  0.25306000  1
  Sr  Sr1  1  0.98643897  0.54969899  0.74694004  1
  Sr  Sr2  1  0.48643898  0.95030099  0.24694002  1
  Sr  Sr3  1  0.51356098  0.04969900  0.75306002  1
  Nd  Nd4  1  0.00000000  0.00000000  0.50000000  1
  Nd  Nd5  1  0.49999998  0.49999999  0.00000002  1
  Bi  Bi6  1  0.00000000  0.00000000  0.00000000  1
  Bi  Bi7  1  0.49999998  0.49999999  0.50000002  1
  O  O8  1  0.89927297  0.04371400  0.23942904  1
  O  O9  1  0.10072700  0.95628599  0.76057101  1
  O  O10  1  0.60072698  0.54371399  0.26057103  1
  O  O11  1  0.39927299  0.45628600  0.73942902  1
  O  O12  1  0.19263599  0.71582899  0.05832501  1
  O  O13  1  0.80736397  0.28417100  0.94167504  1
  O  O14  1  0.30736399  0.21582900  0.44167501  1
  O  O15  1  0.69263598  0.78417099  0.55832503  1
  O  O16  1  0.28979799  0.19430700  0.04810701  1
  O  O17  1  0.71020198  0.80569299  0.95189303  1
  O  O18  1  0.21020199  0.69430699  0.45189301  1
  O  O19  1  0.78979798  0.30569300  0.54810704  1
