# generated using pymatgen
data_Li2CuSi3O8
_symmetry_space_group_name_H-M   'P 1'
_cell_length_a   5.17601728
_cell_length_b   5.17601728
_cell_length_c   6.58061600
_cell_angle_alpha   90.00000000
_cell_angle_beta   90.00000000
_cell_angle_gamma   90.65209961
_symmetry_Int_Tables_number   1
_chemical_formula_structural   Li2CuSi3O8
_chemical_formula_sum   'Li2 Cu1 Si3 O8'
_cell_volume   176.29088429
_cell_formula_units_Z   1
loop_
 _symmetry_equiv_pos_site_id
 _symmetry_equiv_pos_as_xyz
  1  'x, y, z'
loop_
 _atom_site_type_symbol
 _atom_site_label
 _atom_site_symmetry_multiplicity
 _atom_site_fract_x
 _atom_site_fract_y
 _atom_site_fract_z
 _atom_site_occupancy
  Li  Li0  1  0.19081500  0.19081499  -0.00000000  1
  Li  Li1  1  0.80918502  0.80918497  0.50000000  1
  Cu  Cu2  1  0.18677800  0.18677799  0.50000000  1
  Si  Si3  1  0.81322202  0.81322197  1.00000000  1
  Si  Si4  1  0.68665699  0.31334299  0.75000000  1
  Si  Si5  1  0.31334303  0.68665697  0.25000000  1
  O  O6  1  0.80493298  0.17247999  0.95309400  1
  O  O7  1  0.82751998  0.19506699  0.54690600  1
  O  O8  1  0.37291300  0.25702799  0.73514700  1
  O  O9  1  0.25702801  0.37291298  0.26485300  1
  O  O10  1  0.74297201  0.62708697  0.76485300  1
  O  O11  1  0.62708702  0.74297197  0.23514700  1
  O  O12  1  0.17248005  0.80493297  0.04690600  1
  O  O13  1  0.19506705  0.82751996  0.45309400  1
