# generated using pymatgen
data_Li2Fe3P2O3
_symmetry_space_group_name_H-M   'P 1'
_cell_length_a   5.00938797
_cell_length_b   5.69972277
_cell_length_c   5.53454781
_cell_angle_alpha   90.00000000
_cell_angle_beta   90.00000000
_cell_angle_gamma   116.06824493
_symmetry_Int_Tables_number   1
_chemical_formula_structural   Li2Fe3P2O3
_chemical_formula_sum   'Li2 Fe3 P2 O3'
_cell_volume   141.94759908
_cell_formula_units_Z   1
loop_
 _symmetry_equiv_pos_site_id
 _symmetry_equiv_pos_as_xyz
  1  'x, y, z'
loop_
 _atom_site_type_symbol
 _atom_site_label
 _atom_site_symmetry_multiplicity
 _atom_site_fract_x
 _atom_site_fract_y
 _atom_site_fract_z
 _atom_site_occupancy
  Li  Li0  1  0.82584200  0.65168398  0.25000001  1
  Li  Li1  1  0.17415800  0.34831599  0.75000003  1
  Fe  Fe2  1  0.99734201  0.63401398  0.86732803  1
  P  P3  1  0.69354900  0.96321797  0.19827801  1
  Fe  Fe4  1  0.00265800  0.36598599  0.36732801  1
  Fe  Fe5  1  0.73033100  0.03678200  0.80172203  1
  O  O6  1  0.36332800  0.36598599  0.13267200  1
  P  P7  1  0.63667200  0.63401398  0.63267202  1
  O  O8  1  0.30645100  0.03678200  0.69827802  1
  O  O9  1  0.26966900  0.96321797  0.30172201  1
