# generated using pymatgen
data_Sr3Fe3(RuO6)2
_symmetry_space_group_name_H-M   'P 1'
_cell_length_a   5.55252695
_cell_length_b   5.55252695
_cell_length_c   9.57145500
_cell_angle_alpha   73.13864899
_cell_angle_beta   73.13864899
_cell_angle_gamma   59.99999237
_symmetry_Int_Tables_number   1
_chemical_formula_structural   Sr3Fe3(RuO6)2
_chemical_formula_sum   'Sr3 Fe3 Ru2 O12'
_cell_volume   240.79810337
_cell_formula_units_Z   1
loop_
 _symmetry_equiv_pos_site_id
 _symmetry_equiv_pos_as_xyz
  1  'x, y, z'
loop_
 _atom_site_type_symbol
 _atom_site_label
 _atom_site_symmetry_multiplicity
 _atom_site_fract_x
 _atom_site_fract_y
 _atom_site_fract_z
 _atom_site_occupancy
  Sr  Sr0  1  0.74873699  0.74873696  0.75378904  1
  Sr  Sr1  1  0.50000000  0.49999998  0.50000003  1
  Sr  Sr2  1  0.25126300  0.25126299  0.24621101  1
  Fe  Fe3  1  0.12458500  0.12458499  0.62624503  1
  Fe  Fe4  1  0.87541499  0.87541496  0.37375503  1
  Fe  Fe5  1  0.62529599  0.62529597  0.12411201  1
  Ru  Ru6  1  0.37470400  0.37470398  0.87588804  1
  Ru  Ru7  1  0.00000000  0.00000000  0.00000000  1
  O  O8  1  0.75287598  0.24642899  0.75426604  1
  O  O9  1  0.00000001  0.49999998  0.00000000  1
  O  O10  1  0.50000001  0.99999995  0.50000003  1
  O  O11  1  0.24712401  0.75357096  0.24573402  1
  O  O12  1  0.50000000  0.49999998  0.00000001  1
  O  O13  1  0.75357099  0.75357096  0.24573402  1
  O  O14  1  0.24642900  0.24642899  0.75426604  1
  O  O15  1  0.00000000  0.00000000  0.50000002  1
  O  O16  1  0.50000001  0.99999995  0.00000001  1
  O  O17  1  0.75357098  0.24712399  0.24573402  1
  O  O18  1  0.24642901  0.75287596  0.75426604  1
  O  O19  1  0.00000001  0.49999998  0.50000002  1
