# generated using pymatgen
data_Li2CO3
_symmetry_space_group_name_H-M   'P 1'
_cell_length_a   4.90692329
_cell_length_b   4.90692329
_cell_length_c   6.34779167
_cell_angle_alpha   69.38285065
_cell_angle_beta   69.38285065
_cell_angle_gamma   61.86175156
_symmetry_Int_Tables_number   1
_chemical_formula_structural   Li2CO3
_chemical_formula_sum   'Li4 C2 O6'
_cell_volume   122.89828490
_cell_formula_units_Z   2
loop_
 _symmetry_equiv_pos_site_id
 _symmetry_equiv_pos_as_xyz
  1  'x, y, z'
loop_
 _atom_site_type_symbol
 _atom_site_label
 _atom_site_symmetry_multiplicity
 _atom_site_fract_x
 _atom_site_fract_y
 _atom_site_fract_z
 _atom_site_occupancy
  Li  Li0  1  0.35205500  0.25024199  0.83895601  1
  Li  Li1  1  0.74975800  0.64794498  0.66104399  1
  Li  Li2  1  0.64794501  0.74975797  0.16104397  1
  Li  Li3  1  0.25024201  0.35205499  0.33895600  1
  C  C4  1  0.93496298  0.06503700  0.24999999  1
  C  C5  1  0.06503703  0.93496297  0.75000000  1
  O  O6  1  0.68014599  0.31985399  0.24999998  1
  O  O7  1  0.31985401  0.68014598  0.75000000  1
  O  O8  1  0.91791800  0.78833197  0.31474697  1
  O  O9  1  0.21166800  0.08208200  0.18525300  1
  O  O10  1  0.08208200  0.21166699  0.68525301  1
  O  O11  1  0.78833301  0.91791797  0.81474698  1
