# generated using pymatgen
data_Si2P
_symmetry_space_group_name_H-M   'P 1'
_cell_length_a   6.04105663
_cell_length_b   7.29860210
_cell_length_c   7.29860210
_cell_angle_alpha   79.04098511
_cell_angle_beta   68.63150024
_cell_angle_gamma   68.63150024
_symmetry_Int_Tables_number   1
_chemical_formula_structural   Si2P
_chemical_formula_sum   'Si12 P6'
_cell_volume   278.47049427
_cell_formula_units_Z   6
loop_
 _symmetry_equiv_pos_site_id
 _symmetry_equiv_pos_as_xyz
  1  'x, y, z'
loop_
 _atom_site_type_symbol
 _atom_site_label
 _atom_site_symmetry_multiplicity
 _atom_site_fract_x
 _atom_site_fract_y
 _atom_site_fract_z
 _atom_site_occupancy
  Si  Si0  1  0.66718601  0.27694100  0.40336002  1
  Si  Si1  1  0.16718603  0.40336000  0.27694099  1
  Si  Si2  1  0.83281404  0.59664000  0.72305901  1
  Si  Si3  1  0.33281406  0.72305900  0.59663998  1
  Si  Si4  1  0.11547001  0.12025400  0.58793301  1
  Si  Si5  1  0.61547004  0.58793300  0.12025399  1
  Si  Si6  1  0.96571505  0.74859000  0.01411300  1
  Si  Si7  1  0.46571499  0.01411300  0.74859003  1
  Si  Si8  1  0.53428508  0.98588700  0.25140997  1
  Si  Si9  1  0.03428502  0.25141000  0.98588700  1
  Si  Si10  1  0.38453003  0.41206700  0.87974601  1
  Si  Si11  1  0.88453006  0.87974600  0.41206699  1
  P  P12  1  0.88310506  0.91161000  0.73026700  1
  P  P13  1  0.38310506  0.73026700  0.91160999  1
  P  P14  1  0.75000004  0.66002900  0.33997100  1
  P  P15  1  0.25000003  0.33997100  0.66002900  1
  P  P16  1  0.61689501  0.26973300  0.08839001  1
  P  P17  1  0.11689501  0.08839000  0.26973300  1
