# generated using pymatgen
data_CaMg
_symmetry_space_group_name_H-M   'P 1'
_cell_length_a   4.00947523
_cell_length_b   5.98124886
_cell_length_c   6.11675787
_cell_angle_alpha   90.00000000
_cell_angle_beta   90.00000000
_cell_angle_gamma   90.00000000
_symmetry_Int_Tables_number   1
_chemical_formula_structural   CaMg
_chemical_formula_sum   'Ca2 Mg2'
_cell_volume   146.69006343
_cell_formula_units_Z   2
loop_
 _symmetry_equiv_pos_site_id
 _symmetry_equiv_pos_as_xyz
  1  'x, y, z'
loop_
 _atom_site_type_symbol
 _atom_site_label
 _atom_site_symmetry_multiplicity
 _atom_site_fract_x
 _atom_site_fract_y
 _atom_site_fract_z
 _atom_site_occupancy
  Ca  Ca0  1  0.49999997  0.25000001  0.28742901  1
  Ca  Ca1  1  0.49999997  0.75000002  0.71257102  1
  Mg  Mg2  1  0.00000000  0.75000002  0.18946400  1
  Mg  Mg3  1  0.00000000  0.25000001  0.81053602  1
