# generated using pymatgen
data_YGaPt
_symmetry_space_group_name_H-M   'P 1'
_cell_length_a   4.47676897
_cell_length_b   7.16784477
_cell_length_c   7.69921589
_cell_angle_alpha   90.00000000
_cell_angle_beta   90.00000000
_cell_angle_gamma   90.00000000
_symmetry_Int_Tables_number   1
_chemical_formula_structural   YGaPt
_chemical_formula_sum   'Y4 Ga4 Pt4'
_cell_volume   247.05848381
_cell_formula_units_Z   4
loop_
 _symmetry_equiv_pos_site_id
 _symmetry_equiv_pos_as_xyz
  1  'x, y, z'
loop_
 _atom_site_type_symbol
 _atom_site_label
 _atom_site_symmetry_multiplicity
 _atom_site_fract_x
 _atom_site_fract_y
 _atom_site_fract_z
 _atom_site_occupancy
  Y  Y0  1  0.75000000  0.51265302  0.79714901  1
  Y  Y1  1  0.25000000  0.98734703  0.29714900  1
  Y  Y2  1  0.25000000  0.48734702  0.20285100  1
  Y  Y3  1  0.75000000  0.01265300  0.70285101  1
  Ga  Ga4  1  0.75000000  0.80097703  0.08523700  1
  Ga  Ga5  1  0.25000000  0.19902301  0.91476301  1
  Ga  Ga6  1  0.75000000  0.30097701  0.41476301  1
  Ga  Ga7  1  0.25000000  0.69902302  0.58523701  1
  Pt  Pt8  1  0.25000000  0.80908203  0.91298801  1
  Pt  Pt9  1  0.25000000  0.30908201  0.58701201  1
  Pt  Pt10  1  0.75000000  0.69091802  0.41298801  1
  Pt  Pt11  1  0.75000000  0.19091801  0.08701200  1
