# generated using pymatgen
data_Y2Nb2Se3
_symmetry_space_group_name_H-M   'P 1'
_cell_length_a   4.48777628
_cell_length_b   4.48753548
_cell_length_c   21.71640205
_cell_angle_alpha   90.00000000
_cell_angle_beta   90.00000000
_cell_angle_gamma   119.86568451
_symmetry_Int_Tables_number   1
_chemical_formula_structural   Y2Nb2Se3
_chemical_formula_sum   'Y4 Nb4 Se6'
_cell_volume   379.26590798
_cell_formula_units_Z   2
loop_
 _symmetry_equiv_pos_site_id
 _symmetry_equiv_pos_as_xyz
  1  'x, y, z'
loop_
 _atom_site_type_symbol
 _atom_site_label
 _atom_site_symmetry_multiplicity
 _atom_site_fract_x
 _atom_site_fract_y
 _atom_site_fract_z
 _atom_site_occupancy
  Y  Y0  1  0.99797090  0.99913895  0.50014900  1
  Y  Y1  1  0.99797090  0.99913895  0.99985100  1
  Y  Y2  1  0.33273695  0.66763197  0.87464000  1
  Y  Y3  1  0.66394196  0.33200798  0.12519500  1
  Nb  Nb4  1  0.66394196  0.33200798  0.37480500  1
  Nb  Nb5  1  0.33273695  0.66763197  0.62536000  1
  Nb  Nb6  1  0.27291295  0.63919597  0.25000000  1
  Nb  Nb7  1  0.63831396  0.36500898  0.75000000  1
  Se  Se8  1  0.33068295  0.66542697  0.42278000  1
  Se  Se9  1  0.66547396  0.33369898  0.57746800  1
  Se  Se10  1  0.66547396  0.33369898  0.92253200  1
  Se  Se11  1  0.33068295  0.66542697  0.07722000  1
  Se  Se12  1  0.60381996  0.30321998  0.25000000  1
  Se  Se13  1  0.30203794  0.70066597  0.75000000  1
