# generated using pymatgen
data_SrY2Co2O7
_symmetry_space_group_name_H-M   'P 1'
_cell_length_a   3.78608608
_cell_length_b   3.78608608
_cell_length_c   10.04668427
_cell_angle_alpha   100.86086273
_cell_angle_beta   100.86086273
_cell_angle_gamma   90.00000000
_symmetry_Int_Tables_number   1
_chemical_formula_structural   SrY2Co2O7
_chemical_formula_sum   'Sr1 Y2 Co2 O7'
_cell_volume   138.80649252
_cell_formula_units_Z   1
loop_
 _symmetry_equiv_pos_site_id
 _symmetry_equiv_pos_as_xyz
  1  'x, y, z'
loop_
 _atom_site_type_symbol
 _atom_site_label
 _atom_site_symmetry_multiplicity
 _atom_site_fract_x
 _atom_site_fract_y
 _atom_site_fract_z
 _atom_site_occupancy
  Sr  Sr0  1  0.49999999  0.49999999  1.00000000  1
  Y  Y1  1  0.68373798  0.68373798  0.36747600  1
  Y  Y2  1  0.31626199  0.31626199  0.63252400  1
  Co  Co3  1  0.89988698  0.89988698  0.79977400  1
  Co  Co4  1  0.10011300  0.10011300  0.20022600  1
  O  O5  1  0.00000000  0.00000000  0.00000000  1
  O  O6  1  0.80191098  0.80191098  0.60382200  1
  O  O7  1  0.19808900  0.19808900  0.39617800  1
  O  O8  1  0.90217798  0.40217799  0.80435600  1
  O  O9  1  0.40217799  0.90217798  0.80435600  1
  O  O10  1  0.09782200  0.59782199  0.19564400  1
  O  O11  1  0.59782199  0.09782200  0.19564400  1
