# generated using pymatgen
data_Y4Ge5Rh3
_symmetry_space_group_name_H-M   'P 1'
_cell_length_a   4.47766685
_cell_length_b   7.13285589
_cell_length_c   7.69137001
_cell_angle_alpha   90.00000000
_cell_angle_beta   90.00000000
_cell_angle_gamma   90.00000000
_symmetry_Int_Tables_number   1
_chemical_formula_structural   Y4Ge5Rh3
_chemical_formula_sum   'Y4 Ge5 Rh3'
_cell_volume   245.65122417
_cell_formula_units_Z   1
loop_
 _symmetry_equiv_pos_site_id
 _symmetry_equiv_pos_as_xyz
  1  'x, y, z'
loop_
 _atom_site_type_symbol
 _atom_site_label
 _atom_site_symmetry_multiplicity
 _atom_site_fract_x
 _atom_site_fract_y
 _atom_site_fract_z
 _atom_site_occupancy
  Y  Y0  1  0.75000002  0.01288100  0.70273400  1
  Y  Y1  1  0.25000001  0.98711901  0.29726600  1
  Y  Y2  1  0.75000002  0.51288101  0.79726600  1
  Y  Y3  1  0.25000001  0.48711901  0.20273400  1
  Ge  Ge4  1  0.75000002  0.79932801  0.08491700  1
  Ge  Ge5  1  0.25000001  0.20067200  0.91508300  1
  Ge  Ge6  1  0.75000002  0.29932800  0.41508300  1
  Ge  Ge7  1  0.25000001  0.70067201  0.58491700  1
  Ge  Ge8  1  0.75000002  0.69061201  0.41336000  1
  Rh  Rh9  1  0.25000001  0.30938800  0.58664000  1
  Rh  Rh10  1  0.75000002  0.19061200  0.08664000  1
  Rh  Rh11  1  0.25000001  0.80938801  0.91336000  1
