# generated using pymatgen
data_U3Al
_symmetry_space_group_name_H-M   'P 1'
_cell_length_a   5.63292789
_cell_length_b   8.95126438
_cell_length_c   8.95126438
_cell_angle_alpha   84.31835175
_cell_angle_beta   71.66065979
_cell_angle_gamma   71.66065979
_symmetry_Int_Tables_number   1
_chemical_formula_structural   U3Al
_chemical_formula_sum   'U12 Al4'
_cell_volume   406.65607171
_cell_formula_units_Z   4
loop_
 _symmetry_equiv_pos_site_id
 _symmetry_equiv_pos_as_xyz
  1  'x, y, z'
loop_
 _atom_site_type_symbol
 _atom_site_label
 _atom_site_symmetry_multiplicity
 _atom_site_fract_x
 _atom_site_fract_y
 _atom_site_fract_z
 _atom_site_occupancy
  U  U0  1  0.75000002  0.49999997  0.49999997  1
  U  U1  1  0.25000001  0.49999997  0.49999997  1
  U  U2  1  0.77587801  0.14206099  0.30618299  1
  U  U3  1  0.91793902  0.30618298  0.85793896  1
  U  U4  1  0.08206101  0.69381696  0.14206099  1
  U  U5  1  0.22412202  0.85793896  0.69381696  1
  U  U6  1  0.58206101  0.14206099  0.69381697  1
  U  U7  1  0.41793902  0.85793896  0.30618298  1
  U  U8  1  0.27587801  0.30618298  0.14206099  1
  U  U9  1  0.72412202  0.69381696  0.85793895  1
  U  U10  1  0.25000002  0.99999995  -0.00000001  1
  U  U11  1  0.75000003  0.99999995  -0.00000001  1
  Al  Al12  1  0.33695901  0.49999997  0.82608196  1
  Al  Al13  1  0.83695803  0.82608296  0.49999997  1
  Al  Al14  1  0.16304201  0.17391699  0.49999997  1
  Al  Al15  1  0.66304102  0.49999997  0.17391799  1
