# generated using pymatgen
data_NaAsO4
_symmetry_space_group_name_H-M   'P 1'
_cell_length_a   5.40504408
_cell_length_b   5.40504408
_cell_length_c   7.04613113
_cell_angle_alpha   90.00000000
_cell_angle_beta   90.00000000
_cell_angle_gamma   114.01403046
_symmetry_Int_Tables_number   1
_chemical_formula_structural   NaAsO4
_chemical_formula_sum   'Na2 As2 O8'
_cell_volume   188.03210106
_cell_formula_units_Z   2
loop_
 _symmetry_equiv_pos_site_id
 _symmetry_equiv_pos_as_xyz
  1  'x, y, z'
loop_
 _atom_site_type_symbol
 _atom_site_label
 _atom_site_symmetry_multiplicity
 _atom_site_fract_x
 _atom_site_fract_y
 _atom_site_fract_z
 _atom_site_occupancy
  Na  Na0  1  0.00000000  0.00000000  0.00000000  1
  Na  Na1  1  0.00000000  0.00000000  0.49999999  1
  As  As2  1  0.63887501  0.36112501  0.25000000  1
  As  As3  1  0.36112499  0.63887502  0.74999999  1
  O  O4  1  0.23881000  0.30944401  0.74999999  1
  O  O5  1  0.30944400  0.23881001  0.25000000  1
  O  O6  1  0.74022002  0.25978001  0.43704699  1
  O  O7  1  0.25977999  0.74022002  0.93704698  1
  O  O8  1  0.25977999  0.74022002  0.56295299  1
  O  O9  1  0.74022002  0.25978001  0.06295300  1
  O  O10  1  0.69055600  0.76119002  0.74999999  1
  O  O11  1  0.76119001  0.69055602  0.25000000  1
