# generated using pymatgen
data_K2VCu5S4
_symmetry_space_group_name_H-M   'P 1'
_cell_length_a   5.34507704
_cell_length_b   7.92486286
_cell_length_c   7.92486286
_cell_angle_alpha   104.19660950
_cell_angle_beta   90.00000000
_cell_angle_gamma   90.00000000
_symmetry_Int_Tables_number   1
_chemical_formula_structural   K2VCu5S4
_chemical_formula_sum   'K2 V1 Cu5 S4'
_cell_volume   325.43728952
_cell_formula_units_Z   1
loop_
 _symmetry_equiv_pos_site_id
 _symmetry_equiv_pos_as_xyz
  1  'x, y, z'
loop_
 _atom_site_type_symbol
 _atom_site_label
 _atom_site_symmetry_multiplicity
 _atom_site_fract_x
 _atom_site_fract_y
 _atom_site_fract_z
 _atom_site_occupancy
  K  K0  1  0.74999999  0.31240900  0.68759100  1
  K  K1  1  0.25000000  0.68759100  0.31240901  1
  V  V2  1  0.99999999  0.16630600  0.16630600  1
  Cu  Cu3  1  -0.00000000  0.83369399  0.83369401  1
  Cu  Cu4  1  0.50000000  0.83369399  0.83369401  1
  Cu  Cu5  1  0.50000000  0.16630600  0.16630600  1
  Cu  Cu6  1  0.74999999  0.89256999  0.10743002  1
  Cu  Cu7  1  0.25000000  0.10743000  0.89256999  1
  S  S8  1  0.74999999  0.39871100  0.16070601  1
  S  S9  1  0.25000000  0.60128900  0.83929400  1
  S  S10  1  0.74999999  0.83929399  0.60128901  1
  S  S11  1  0.25000000  0.16070600  0.39871100  1
