# generated using pymatgen
data_Li3TbRh14
_symmetry_space_group_name_H-M   'P 1'
_cell_length_a   5.06191206
_cell_length_b   5.06191158
_cell_length_c   11.10818100
_cell_angle_alpha   89.96842957
_cell_angle_beta   89.96843719
_cell_angle_gamma   119.84117889
_symmetry_Int_Tables_number   1
_chemical_formula_structural   Li3TbRh14
_chemical_formula_sum   'Li3 Tb1 Rh14'
_cell_volume   246.88532997
_cell_formula_units_Z   1
loop_
 _symmetry_equiv_pos_site_id
 _symmetry_equiv_pos_as_xyz
  1  'x, y, z'
loop_
 _atom_site_type_symbol
 _atom_site_label
 _atom_site_symmetry_multiplicity
 _atom_site_fract_x
 _atom_site_fract_y
 _atom_site_fract_z
 _atom_site_occupancy
  Li  Li0  1  0.99997607  0.99997600  0.99986200  1
  Li  Li1  1  0.00011600  0.00011600  0.67141298  1
  Li  Li2  1  0.99990807  0.99990800  0.32850501  1
  Tb  Tb3  1  0.49992803  0.49992800  0.50009300  1
  Rh  Rh4  1  0.50008100  0.00002700  0.50014799  1
  Rh  Rh5  1  0.00002703  0.50008100  0.50014800  1
  Rh  Rh6  1  0.66741502  0.33291400  0.68345099  1
  Rh  Rh7  1  0.33291404  0.66741500  0.68345100  1
  Rh  Rh8  1  0.33274404  0.66696000  0.31628800  1
  Rh  Rh9  1  0.66696002  0.33274400  0.31628800  1
  Rh  Rh10  1  0.49972803  0.49972800  0.86809599  1
  Rh  Rh11  1  0.49964907  0.99953700  0.86792400  1
  Rh  Rh12  1  0.99953703  0.49964900  0.86792399  1
  Rh  Rh13  1  0.50025903  0.50025900  0.13215401  1
  Rh  Rh14  1  0.50036400  0.00047100  0.13236900  1
  Rh  Rh15  1  0.00047103  0.50036400  0.13236900  1
  Rh  Rh16  1  0.66596902  0.33405400  0.99975998  1
  Rh  Rh17  1  0.33405404  0.66596900  0.99975999  1
