# generated using pymatgen
data_Ca3BiO4
_symmetry_space_group_name_H-M   'P 1'
_cell_length_a   4.17905807
_cell_length_b   6.48227024
_cell_length_c   11.91130543
_cell_angle_alpha   90.00000000
_cell_angle_beta   90.00000000
_cell_angle_gamma   108.80481720
_symmetry_Int_Tables_number   1
_chemical_formula_structural   Ca3BiO4
_chemical_formula_sum   'Ca6 Bi2 O8'
_cell_volume   305.45101146
_cell_formula_units_Z   2
loop_
 _symmetry_equiv_pos_site_id
 _symmetry_equiv_pos_as_xyz
  1  'x, y, z'
loop_
 _atom_site_type_symbol
 _atom_site_label
 _atom_site_symmetry_multiplicity
 _atom_site_fract_x
 _atom_site_fract_y
 _atom_site_fract_z
 _atom_site_occupancy
  Ca  Ca0  1  0.17881903  0.35763802  0.59937398  1
  Ca  Ca1  1  0.82118104  0.64236203  0.40062599  1
  Ca  Ca2  1  0.82118104  0.64236203  0.09937400  1
  Ca  Ca3  1  0.17881903  0.35763802  0.90062597  1
  Ca  Ca4  1  0.12093902  0.24187801  0.24999999  1
  Ca  Ca5  1  0.87906105  0.75812204  0.74999997  1
  Bi  Bi6  1  0.50000008  1.00000005  -0.00000000  1
  Bi  Bi7  1  0.50000008  1.00000005  0.49999998  1
  O  O8  1  0.69583102  0.39166202  0.24999999  1
  O  O9  1  0.30416905  0.60833803  0.74999997  1
  O  O10  1  0.93279306  0.86558605  0.24999999  1
  O  O11  1  0.06720701  0.13441401  0.74999997  1
  O  O12  1  0.23367204  0.46734402  0.08761400  1
  O  O13  1  0.76632803  0.53265603  0.91238597  1
  O  O14  1  0.76632803  0.53265603  0.58761398  1
  O  O15  1  0.23367204  0.46734402  0.41238599  1
