# generated using pymatgen
data_La2Sn
_symmetry_space_group_name_H-M   'P 1'
_cell_length_a   4.55129194
_cell_length_b   4.55129194
_cell_length_c   9.53410053
_cell_angle_alpha   103.80893707
_cell_angle_beta   103.80893707
_cell_angle_gamma   90.00000000
_symmetry_Int_Tables_number   1
_chemical_formula_structural   La2Sn
_chemical_formula_sum   'La4 Sn2'
_cell_volume   185.90044840
_cell_formula_units_Z   2
loop_
 _symmetry_equiv_pos_site_id
 _symmetry_equiv_pos_as_xyz
  1  'x, y, z'
loop_
 _atom_site_type_symbol
 _atom_site_label
 _atom_site_symmetry_multiplicity
 _atom_site_fract_x
 _atom_site_fract_y
 _atom_site_fract_z
 _atom_site_occupancy
  La  La0  1  0.00000000  0.50000001  0.99999997  1
  La  La1  1  0.50000001  0.00000000  0.00000000  1
  La  La2  1  0.67427601  0.67427601  0.34855199  1
  La  La3  1  0.32572401  0.32572400  0.65144798  1
  Sn  Sn4  1  0.86148402  0.86148401  0.72296798  1
  Sn  Sn5  1  0.13851600  0.13851600  0.27703199  1
