# generated using pymatgen
data_Sr2In2Se5
_symmetry_space_group_name_H-M   'P 1'
_cell_length_a   4.35201406
_cell_length_b   9.82445812
_cell_length_c   13.50479889
_cell_angle_alpha   90.00000000
_cell_angle_beta   90.00000000
_cell_angle_gamma   102.79649353
_symmetry_Int_Tables_number   1
_chemical_formula_structural   Sr2In2Se5
_chemical_formula_sum   'Sr4 In4 Se10'
_cell_volume   563.07233800
_cell_formula_units_Z   2
loop_
 _symmetry_equiv_pos_site_id
 _symmetry_equiv_pos_as_xyz
  1  'x, y, z'
loop_
 _atom_site_type_symbol
 _atom_site_label
 _atom_site_symmetry_multiplicity
 _atom_site_fract_x
 _atom_site_fract_y
 _atom_site_fract_z
 _atom_site_occupancy
  Sr  Sr0  1  0.13120603  0.26241200  0.81450001  1
  Sr  Sr1  1  0.86879409  0.73758799  0.31450000  1
  Sr  Sr2  1  0.11640803  0.23281600  0.18141900  1
  Sr  Sr3  1  0.88359209  0.76718399  0.68141901  1
  In  In4  1  0.21122405  0.42244799  0.51766800  1
  In  In5  1  0.78877607  0.57755199  0.01766800  1
  In  In6  1  0.44840511  0.89680998  0.93678001  1
  In  In7  1  0.55159501  0.10319000  0.43678000  1
  Se  Se8  1  0.35827809  0.71655599  0.50053800  1
  Se  Se9  1  0.64172203  0.28344399  0.00053800  1
  Se  Se10  1  0.29099307  0.58198599  0.16033500  1
  Se  Se11  1  0.70900705  0.41801399  0.66033501  1
  Se  Se12  1  0.31443008  0.62885999  0.86695401  1
  Se  Se13  1  0.68557004  0.37113999  0.36695400  1
  Se  Se14  1  0.50508299  0.01016600  0.76546701  1
  Se  Se15  1  0.49491713  0.98983398  0.26546700  1
  Se  Se16  1  0.04837901  0.09675800  0.54957700  1
  Se  Se17  1  0.95162111  0.90324198  0.04957700  1
