# generated using pymatgen
data_AlCu3S4
_symmetry_space_group_name_H-M   'P 1'
_cell_length_a   5.22286606
_cell_length_b   5.22286606
_cell_length_c   6.35175133
_cell_angle_alpha   114.27621460
_cell_angle_beta   114.27621460
_cell_angle_gamma   90.00000000
_symmetry_Int_Tables_number   1
_chemical_formula_structural   AlCu3S4
_chemical_formula_sum   'Al1 Cu3 S4'
_cell_volume   140.96741936
_cell_formula_units_Z   1
loop_
 _symmetry_equiv_pos_site_id
 _symmetry_equiv_pos_as_xyz
  1  'x, y, z'
loop_
 _atom_site_type_symbol
 _atom_site_label
 _atom_site_symmetry_multiplicity
 _atom_site_fract_x
 _atom_site_fract_y
 _atom_site_fract_z
 _atom_site_occupancy
  Al  Al0  1  0.00000000  0.00000000  0.00000000  1
  Cu  Cu1  1  0.50000004  0.50000002  0.00000007  1
  Cu  Cu2  1  0.75000003  0.25000001  0.50000005  1
  Cu  Cu3  1  0.25000006  0.75000002  0.50000006  1
  S  S4  1  0.12108901  0.12108900  0.75493700  1
  S  S5  1  0.63384806  0.63384802  0.75493707  1
  S  S6  1  0.87891104  0.36615101  0.24506207  1
  S  S7  1  0.36615207  0.87891203  0.24506409  1
