# generated using pymatgen
data_YHfS3
_symmetry_space_group_name_H-M   'P 1'
_cell_length_a   6.37230396
_cell_length_b   7.34728193
_cell_length_c   9.48257828
_cell_angle_alpha   90.00000000
_cell_angle_beta   90.00000000
_cell_angle_gamma   90.00000000
_symmetry_Int_Tables_number   1
_chemical_formula_structural   YHfS3
_chemical_formula_sum   'Y4 Hf4 S12'
_cell_volume   443.96591127
_cell_formula_units_Z   4
loop_
 _symmetry_equiv_pos_site_id
 _symmetry_equiv_pos_as_xyz
  1  'x, y, z'
loop_
 _atom_site_type_symbol
 _atom_site_label
 _atom_site_symmetry_multiplicity
 _atom_site_fract_x
 _atom_site_fract_y
 _atom_site_fract_z
 _atom_site_occupancy
  Y  Y0  1  0.56545400  0.12103300  0.74999998  1
  Y  Y1  1  0.93454601  0.62103301  0.74999998  1
  Y  Y2  1  0.43454600  0.87896701  0.24999999  1
  Y  Y3  1  0.06545400  0.37896700  0.24999999  1
  Hf  Hf4  1  0.50000000  0.50000000  0.00000000  1
  Hf  Hf5  1  0.00000000  0.00000000  0.49999999  1
  Hf  Hf6  1  0.50000000  0.50000000  0.49999999  1
  Hf  Hf7  1  0.00000000  0.00000000  0.00000000  1
  S  S8  1  0.34253500  0.18055100  0.43903999  1
  S  S9  1  0.15746500  0.68055101  0.06096000  1
  S  S10  1  0.65746500  0.81944901  0.93903997  1
  S  S11  1  0.84253500  0.31944900  0.56095998  1
  S  S12  1  0.65746500  0.81944901  0.56095998  1
  S  S13  1  0.84253500  0.31944900  0.93903997  1
  S  S14  1  0.34253500  0.18055100  0.06096000  1
  S  S15  1  0.15746500  0.68055101  0.43903999  1
  S  S16  1  0.35032600  0.45937100  0.74999998  1
  S  S17  1  0.14967400  0.95937101  0.74999998  1
  S  S18  1  0.64967400  0.54062900  0.24999999  1
  S  S19  1  0.85032600  0.04062900  0.24999999  1
