# generated using pymatgen
data_MnO2
_symmetry_space_group_name_H-M   'P 1'
_cell_length_a   5.48008823
_cell_length_b   5.56466150
_cell_length_c   6.03658915
_cell_angle_alpha   90.15586090
_cell_angle_beta   116.68423462
_cell_angle_gamma   91.79104614
_symmetry_Int_Tables_number   1
_chemical_formula_structural   MnO2
_chemical_formula_sum   'Mn4 O8'
_cell_volume   164.36954898
_cell_formula_units_Z   4
loop_
 _symmetry_equiv_pos_site_id
 _symmetry_equiv_pos_as_xyz
  1  'x, y, z'
loop_
 _atom_site_type_symbol
 _atom_site_label
 _atom_site_symmetry_multiplicity
 _atom_site_fract_x
 _atom_site_fract_y
 _atom_site_fract_z
 _atom_site_occupancy
  Mn  Mn0  1  0.96687298  0.24676900  0.44638505  1
  Mn  Mn1  1  0.03312699  0.75323101  0.55361498  1
  Mn  Mn2  1  0.49999998  0.50000001  -0.00000000  1
  Mn  Mn3  1  0.00000000  0.00000000  0.00000000  1
  O  O4  1  0.76447098  0.70572501  0.93924303  1
  O  O5  1  0.13043198  0.96537701  0.35461797  1
  O  O6  1  0.26677599  0.46308801  0.64728301  1
  O  O7  1  0.27648598  0.79316401  0.96327100  1
  O  O8  1  0.72351398  0.20683600  0.03672903  1
  O  O9  1  0.73322398  0.53691201  0.35271702  1
  O  O10  1  0.86956798  0.03462300  0.64538206  1
  O  O11  1  0.23552899  0.29427500  0.06075700  1
