# generated using pymatgen
data_ZrNiGe
_symmetry_space_group_name_H-M   'P 1'
_cell_length_a   4.12841892
_cell_length_b   5.10865545
_cell_length_c   5.44287777
_cell_angle_alpha   73.54166412
_cell_angle_beta   67.71279144
_cell_angle_gamma   66.16767883
_symmetry_Int_Tables_number   1
_chemical_formula_structural   ZrNiGe
_chemical_formula_sum   'Zr2 Ni2 Ge2'
_cell_volume   96.00688719
_cell_formula_units_Z   2
loop_
 _symmetry_equiv_pos_site_id
 _symmetry_equiv_pos_as_xyz
  1  'x, y, z'
loop_
 _atom_site_type_symbol
 _atom_site_label
 _atom_site_symmetry_multiplicity
 _atom_site_fract_x
 _atom_site_fract_y
 _atom_site_fract_z
 _atom_site_occupancy
  Zr  Zr0  1  0.55289798  0.70098801  0.19321697  1
  Zr  Zr1  1  0.44710200  0.29901200  0.80678300  1
  Ge  Ge2  1  0.17351399  0.26026900  0.39270300  1
  Ge  Ge3  1  0.82648598  0.73973101  0.60729697  1
  Ni  Ni4  1  0.84072703  0.12449900  0.19404697  1
  Ni  Ni5  1  0.15927295  0.87550101  0.80595300  1
