# generated using pymatgen
data_Sr2BiSb
_symmetry_space_group_name_H-M   'P 1'
_cell_length_a   6.66984606
_cell_length_b   6.67585945
_cell_length_c   13.85719490
_cell_angle_alpha   101.29515076
_cell_angle_beta   101.28010559
_cell_angle_gamma   100.78099060
_symmetry_Int_Tables_number   1
_chemical_formula_structural   Sr2BiSb
_chemical_formula_sum   'Sr8 Bi4 Sb4'
_cell_volume   576.85586203
_cell_formula_units_Z   4
loop_
 _symmetry_equiv_pos_site_id
 _symmetry_equiv_pos_as_xyz
  1  'x, y, z'
loop_
 _atom_site_type_symbol
 _atom_site_label
 _atom_site_symmetry_multiplicity
 _atom_site_fract_x
 _atom_site_fract_y
 _atom_site_fract_z
 _atom_site_occupancy
  Sr  Sr0  1  0.27866001  0.58016800  0.10904499  1
  Sr  Sr1  1  0.79069601  0.08947400  0.59403301  1
  Sr  Sr2  1  0.22206601  0.92547701  0.39034998  1
  Sr  Sr3  1  0.69666301  0.49544100  0.40596700  1
  Sr  Sr4  1  0.66961501  0.47112300  0.89095500  1
  Sr  Sr5  1  0.23880701  0.94265301  0.90466299  1
  Sr  Sr6  1  0.83414402  0.03799000  0.09533701  1
  Sr  Sr7  1  0.33171601  0.53512700  0.60964999  1
  Bi  Bi8  1  0.12791700  0.37314800  0.32168700  1
  Bi  Bi9  1  0.71243101  0.96244201  0.81716999  1
  Bi  Bi10  1  0.89519802  0.64480000  0.67858800  1
  Sb  Sb11  1  0.79264302  0.55308500  0.17490500  1
  Bi  Bi12  1  0.30623001  0.05146100  0.67831301  1
  Sb  Sb13  1  0.11773800  0.37818000  0.82509500  1
  Sb  Sb14  1  0.39526101  0.14527200  0.18283000  1
  Sb  Sb15  1  0.71661001  0.96621201  0.32141199  1
