# generated using pymatgen
data_Li2TeO4F3
_symmetry_space_group_name_H-M   'P 1'
_cell_length_a   5.02628088
_cell_length_b   5.16729212
_cell_length_c   8.81741714
_cell_angle_alpha   89.99431610
_cell_angle_beta   89.99925995
_cell_angle_gamma   93.15165710
_symmetry_Int_Tables_number   1
_chemical_formula_structural   Li2TeO4F3
_chemical_formula_sum   'Li4 Te2 O8 F6'
_cell_volume   228.66189011
_cell_formula_units_Z   2
loop_
 _symmetry_equiv_pos_site_id
 _symmetry_equiv_pos_as_xyz
  1  'x, y, z'
loop_
 _atom_site_type_symbol
 _atom_site_label
 _atom_site_symmetry_multiplicity
 _atom_site_fract_x
 _atom_site_fract_y
 _atom_site_fract_z
 _atom_site_occupancy
  Li  Li0  1  0.99999091  0.99990699  0.30813398  1
  Li  Li1  1  0.49995694  0.99990699  0.13376998  1
  Li  Li2  1  0.99996993  0.49998500  0.70352399  1
  Li  Li3  1  0.49994196  0.49994700  0.81961798  1
  Te  Te4  1  0.00008700  0.00020100  0.89784999  1
  O  O5  1  0.50001096  0.49992800  0.40108599  1
  O  O6  1  0.50001294  0.99991899  0.60550298  1
  Te  Te7  1  0.99997093  0.50012700  0.07432400  1
  O  O8  1  0.25914098  0.15269700  0.75017399  1
  O  O9  1  0.28455798  0.14748700  0.44225499  1
  F  F10  1  0.21171498  0.19236100  0.05321900  1
  O  O11  1  0.70294995  0.33294300  0.58231799  1
  F  F12  1  0.80574795  0.31213800  0.90694798  1
  O  O13  1  0.78150095  0.31602500  0.22257999  1
  O  O14  1  0.21851196  0.68393099  0.22261499  1
  F  F15  1  0.19421296  0.68808699  0.90694898  1
  F  F16  1  0.29707796  0.66687699  0.58235098  1
  F  F17  1  0.78832693  0.80783199  0.05324399  1
  O  O18  1  0.71542593  0.85231599  0.44225498  1
  F  F19  1  0.74088993  0.84738499  0.75020298  1
