# generated using pymatgen
data_SrLu2Cu2O7
_symmetry_space_group_name_H-M   'P 1'
_cell_length_a   3.72327995
_cell_length_b   3.72327995
_cell_length_c   10.11399746
_cell_angle_alpha   100.60666656
_cell_angle_beta   100.60666656
_cell_angle_gamma   90.00000000
_symmetry_Int_Tables_number   1
_chemical_formula_structural   SrLu2Cu2O7
_chemical_formula_sum   'Sr1 Lu2 Cu2 O7'
_cell_volume   135.37485461
_cell_formula_units_Z   1
loop_
 _symmetry_equiv_pos_site_id
 _symmetry_equiv_pos_as_xyz
  1  'x, y, z'
loop_
 _atom_site_type_symbol
 _atom_site_label
 _atom_site_symmetry_multiplicity
 _atom_site_fract_x
 _atom_site_fract_y
 _atom_site_fract_z
 _atom_site_occupancy
  Sr  Sr0  1  0.50000001  0.50000001  0.99999999  1
  Lu  Lu1  1  0.31780301  0.31780301  0.63560599  1
  Lu  Lu2  1  0.68219702  0.68219701  0.36439400  1
  Cu  Cu3  1  0.09754100  0.09754100  0.19508200  1
  Cu  Cu4  1  0.90245902  0.90245901  0.80491799  1
  O  O5  1  0.60680301  0.10680300  0.21360600  1
  O  O6  1  0.39319701  0.89319701  0.78639399  1
  O  O7  1  0.10680301  0.60680301  0.21360600  1
  O  O8  1  0.89319702  0.39319701  0.78639399  1
  O  O9  1  0.00000000  0.00000000  0.00000000  1
  O  O10  1  0.20557300  0.20557300  0.41114599  1
  O  O11  1  0.79442702  0.79442701  0.58885400  1
