# generated using pymatgen
data_TiO2
_symmetry_space_group_name_H-M   'P 1'
_cell_length_a   4.70958614
_cell_length_b   5.02942801
_cell_length_c   5.02942753
_cell_angle_alpha   120.00000000
_cell_angle_beta   90.00000000
_cell_angle_gamma   90.00000000
_symmetry_Int_Tables_number   1
_chemical_formula_structural   TiO2
_chemical_formula_sum   'Ti3 O6'
_cell_volume   103.16931025
_cell_formula_units_Z   3
loop_
 _symmetry_equiv_pos_site_id
 _symmetry_equiv_pos_as_xyz
  1  'x, y, z'
loop_
 _atom_site_type_symbol
 _atom_site_label
 _atom_site_symmetry_multiplicity
 _atom_site_fract_x
 _atom_site_fract_y
 _atom_site_fract_z
 _atom_site_occupancy
  Ti  Ti0  1  0.49999998  0.66666665  0.33333331  1
  Ti  Ti1  1  0.49999998  0.33333332  0.66666667  1
  Ti  Ti2  1  0.00000000  0.00000000  0.00000000  1
  O  O3  1  0.74434998  0.67666998  0.67666998  1
  O  O4  1  0.74434998  0.00000000  0.32333001  1
  O  O5  1  0.25564999  0.00000000  0.67667002  1
  O  O6  1  0.74434998  0.32332999  1.00000001  1
  O  O7  1  0.25564999  0.32332999  0.32332999  1
  O  O8  1  0.25564999  0.67666998  -0.00000003  1
