# generated using pymatgen
data_YZrF7
_symmetry_space_group_name_H-M   'P 1'
_cell_length_a   5.64786482
_cell_length_b   6.02601004
_cell_length_c   8.20917225
_cell_angle_alpha   102.37702179
_cell_angle_beta   90.00000000
_cell_angle_gamma   90.00000000
_symmetry_Int_Tables_number   1
_chemical_formula_structural   YZrF7
_chemical_formula_sum   'Y2 Zr2 F14'
_cell_volume   272.89817470
_cell_formula_units_Z   2
loop_
 _symmetry_equiv_pos_site_id
 _symmetry_equiv_pos_as_xyz
  1  'x, y, z'
loop_
 _atom_site_type_symbol
 _atom_site_label
 _atom_site_symmetry_multiplicity
 _atom_site_fract_x
 _atom_site_fract_y
 _atom_site_fract_z
 _atom_site_occupancy
  Y  Y0  1  0.69718602  0.65307999  0.68178197  1
  Y  Y1  1  0.19718601  0.34692000  0.31821798  1
  Zr  Zr2  1  0.70767902  0.81197899  0.22358897  1
  Zr  Zr3  1  0.20767901  0.18802100  0.77641099  1
  F  F4  1  0.89013303  0.45479900  0.47862198  1
  F  F5  1  0.39013301  0.54520099  0.52137797  1
  F  F6  1  0.43006201  0.91697199  0.76525596  1
  F  F7  1  0.93006203  0.08302800  0.23474399  1
  F  F8  1  0.93955003  0.95410699  0.76048396  1
  F  F9  1  0.43955001  0.04589300  0.23951600  1
  F  F10  1  0.99113503  0.46148100  0.78688198  1
  F  F11  1  0.49113502  0.53851899  0.21311798  1
  F  F12  1  0.70237802  0.75386499  0.97113396  1
  F  F13  1  0.20237801  0.24613500  0.02886599  1
  F  F14  1  0.70955402  0.86065599  0.47801596  1
  F  F15  1  0.20955401  0.13934400  0.52198399  1
  F  F16  1  0.50868302  0.38284400  0.77995398  1
  F  F17  1  0.00868300  0.61715599  0.22004597  1
