# generated using pymatgen
data_LaGa4
_symmetry_space_group_name_H-M   'P 1'
_cell_length_a   4.27162218
_cell_length_b   4.27162218
_cell_length_c   6.43974066
_cell_angle_alpha   109.36962128
_cell_angle_beta   109.36962128
_cell_angle_gamma   90.00000000
_symmetry_Int_Tables_number   1
_chemical_formula_structural   LaGa4
_chemical_formula_sum   'La1 Ga4'
_cell_volume   103.77718798
_cell_formula_units_Z   1
loop_
 _symmetry_equiv_pos_site_id
 _symmetry_equiv_pos_as_xyz
  1  'x, y, z'
loop_
 _atom_site_type_symbol
 _atom_site_label
 _atom_site_symmetry_multiplicity
 _atom_site_fract_x
 _atom_site_fract_y
 _atom_site_fract_z
 _atom_site_occupancy
  La  La0  1  0.00000000  0.00000000  0.00000000  1
  Ga  Ga1  1  0.38872796  0.38872798  0.77745597  1
  Ga  Ga2  1  0.24999996  0.74999995  0.49999996  1
  Ga  Ga3  1  0.74999995  0.24999998  0.49999997  1
  Ga  Ga4  1  0.61127194  0.61127196  0.22254395  1
