# generated using pymatgen
data_Y2FeSi2
_symmetry_space_group_name_H-M   'P 1'
_cell_length_a   4.15906000
_cell_length_b   5.67906809
_cell_length_c   8.99136066
_cell_angle_alpha   82.82594299
_cell_angle_beta   76.62750244
_cell_angle_gamma   68.52011871
_symmetry_Int_Tables_number   1
_chemical_formula_structural   Y2FeSi2
_chemical_formula_sum   'Y4 Fe2 Si4'
_cell_volume   192.07443002
_cell_formula_units_Z   2
loop_
 _symmetry_equiv_pos_site_id
 _symmetry_equiv_pos_as_xyz
  1  'x, y, z'
loop_
 _atom_site_type_symbol
 _atom_site_label
 _atom_site_symmetry_multiplicity
 _atom_site_fract_x
 _atom_site_fract_y
 _atom_site_fract_z
 _atom_site_occupancy
  Y  Y0  1  0.00024403  0.67145097  0.32806101  1
  Y  Y1  1  0.99975602  0.32854898  0.67193899  1
  Y  Y2  1  0.81148002  0.26808999  0.10894999  1
  Y  Y3  1  0.18852003  0.73190996  0.89105001  1
  Fe  Fe4  1  0.72793204  0.92021096  0.62392500  1
  Fe  Fe5  1  0.27206801  0.07978900  0.37607500  1
  Si  Si6  1  0.65567602  0.25296499  0.43568299  1
  Si  Si7  1  0.34432403  0.74703496  0.56431701  1
  Si  Si8  1  0.50060104  0.87266696  0.12613101  1
  Si  Si9  1  0.49939901  0.12733299  0.87386900  1
