# generated using pymatgen
data_VO
_symmetry_space_group_name_H-M   'P 1'
_cell_length_a   2.86473203
_cell_length_b   3.09746814
_cell_length_c   5.20385742
_cell_angle_alpha   82.47561646
_cell_angle_beta   74.02304077
_cell_angle_gamma   62.45589828
_symmetry_Int_Tables_number   1
_chemical_formula_structural   VO
_chemical_formula_sum   'V2 O2'
_cell_volume   39.36032261
_cell_formula_units_Z   2
loop_
 _symmetry_equiv_pos_site_id
 _symmetry_equiv_pos_as_xyz
  1  'x, y, z'
loop_
 _atom_site_type_symbol
 _atom_site_label
 _atom_site_symmetry_multiplicity
 _atom_site_fract_x
 _atom_site_fract_y
 _atom_site_fract_z
 _atom_site_occupancy
  V  V0  1  0.00000000  0.00000000  0.00000000  1
  V  V1  1  -0.00000000  0.49999998  0.50000002  1
  O  O2  1  0.57092399  0.12685300  0.73129902  1
  O  O3  1  0.42907599  0.87314697  0.26870105  1
