# generated using pymatgen
data_Li2Fe6O7
_symmetry_space_group_name_H-M   'P 1'
_cell_length_a   2.72696996
_cell_length_b   6.86658669
_cell_length_c   7.57004261
_cell_angle_alpha   101.83111572
_cell_angle_beta   90.00000000
_cell_angle_gamma   101.45323944
_symmetry_Int_Tables_number   1
_chemical_formula_structural   Li2Fe6O7
_chemical_formula_sum   'Li2 Fe6 O7'
_cell_volume   135.85239262
_cell_formula_units_Z   1
loop_
 _symmetry_equiv_pos_site_id
 _symmetry_equiv_pos_as_xyz
  1  'x, y, z'
loop_
 _atom_site_type_symbol
 _atom_site_label
 _atom_site_symmetry_multiplicity
 _atom_site_fract_x
 _atom_site_fract_y
 _atom_site_fract_z
 _atom_site_occupancy
  Li  Li0  1  0.12736203  0.25472400  0.26298099  1
  Li  Li1  1  0.87263808  0.74527600  0.73701897  1
  Fe  Fe2  1  0.83162508  0.66325000  0.04991999  1
  Fe  Fe3  1  0.16837503  0.33675000  0.95007997  1
  Fe  Fe4  1  0.80139507  0.60279000  0.39063998  1
  Fe  Fe5  1  0.19860504  0.39721000  0.60935998  1
  Fe  Fe6  1  0.45707809  0.91415600  0.34101298  1
  Fe  Fe7  1  0.54292202  0.08584400  0.65898698  1
  O  O8  1  0.50000001  0.00000000  0.00000000  1
  O  O9  1  0.61474003  0.22948000  0.46297698  1
  O  O10  1  0.38526008  0.77052000  0.53702297  1
  O  O11  1  0.70935905  0.41871800  0.15187999  1
  O  O12  1  0.29064106  0.58128200  0.84811997  1
  O  O13  1  0.97496311  0.94992600  0.17260698  1
  O  O14  1  0.02503701  0.05007400  0.82739298  1
