# generated using pymatgen
data_Cr2CuS4
_symmetry_space_group_name_H-M   'P 1'
_cell_length_a   7.07660437
_cell_length_b   7.07660437
_cell_length_c   7.07660437
_cell_angle_alpha   60.00000000
_cell_angle_beta   60.00000000
_cell_angle_gamma   60.00000000
_symmetry_Int_Tables_number   1
_chemical_formula_structural   Cr2CuS4
_chemical_formula_sum   'Cr4 Cu2 S8'
_cell_volume   250.58770020
_cell_formula_units_Z   2
loop_
 _symmetry_equiv_pos_site_id
 _symmetry_equiv_pos_as_xyz
  1  'x, y, z'
loop_
 _atom_site_type_symbol
 _atom_site_label
 _atom_site_symmetry_multiplicity
 _atom_site_fract_x
 _atom_site_fract_y
 _atom_site_fract_z
 _atom_site_occupancy
  Cr  Cr0  1  0.13186300  0.13186400  0.13186400  1
  Cr  Cr1  1  0.13186300  0.13186400  0.60440901  1
  Cr  Cr2  1  0.13186300  0.60440901  0.13186400  1
  Cr  Cr3  1  0.60440801  0.13186400  0.13186400  1
  Cu  Cu4  1  0.75000001  0.75000001  0.75000001  1
  Cu  Cu5  1  0.50000001  0.50000001  0.50000001  1
  S  S6  1  0.89564901  0.36811700  0.36811700  1
  S  S7  1  0.36811600  0.89565001  0.36811700  1
  S  S8  1  0.36811600  0.36811700  0.89565001  1
  S  S9  1  0.36811600  0.36811700  0.36811700  1
  S  S10  1  0.88349101  0.88349101  0.88349101  1
  S  S11  1  0.88349101  0.88349101  0.34952700  1
  S  S12  1  0.88349101  0.34952700  0.88349101  1
  S  S13  1  0.34952700  0.88349101  0.88349101  1
