# generated using pymatgen
data_In2Se3
_symmetry_space_group_name_H-M   'P 1'
_cell_length_a   5.66954803
_cell_length_b   5.66954803
_cell_length_c   5.77651358
_cell_angle_alpha   88.63860321
_cell_angle_beta   88.63860321
_cell_angle_gamma   88.79573059
_symmetry_Int_Tables_number   1
_chemical_formula_structural   In2Se3
_chemical_formula_sum   'In2 Se3'
_cell_volume   185.53528064
_cell_formula_units_Z   1
loop_
 _symmetry_equiv_pos_site_id
 _symmetry_equiv_pos_as_xyz
  1  'x, y, z'
loop_
 _atom_site_type_symbol
 _atom_site_label
 _atom_site_symmetry_multiplicity
 _atom_site_fract_x
 _atom_site_fract_y
 _atom_site_fract_z
 _atom_site_occupancy
  In  In0  1  0.91110101  0.91110101  0.08043589  1
  In  In1  1  0.51151601  0.51151600  0.46916093  1
  Se  Se2  1  0.53409901  0.99225001  0.44074690  1
  Se  Se3  1  0.54470201  0.54470200  0.01184293  1
  Se  Se4  1  0.99225001  0.53409900  0.44074690  1
