# generated using pymatgen
data_ScBeP3
_symmetry_space_group_name_H-M   'P 1'
_cell_length_a   3.79455400
_cell_length_b   3.79455471
_cell_length_c   6.78174400
_cell_angle_alpha   90.00000000
_cell_angle_beta   90.00000000
_cell_angle_gamma   119.99999237
_symmetry_Int_Tables_number   1
_chemical_formula_structural   ScBeP3
_chemical_formula_sum   'Sc1 Be1 P3'
_cell_volume   84.56557635
_cell_formula_units_Z   1
loop_
 _symmetry_equiv_pos_site_id
 _symmetry_equiv_pos_as_xyz
  1  'x, y, z'
loop_
 _atom_site_type_symbol
 _atom_site_label
 _atom_site_symmetry_multiplicity
 _atom_site_fract_x
 _atom_site_fract_y
 _atom_site_fract_z
 _atom_site_occupancy
  Sc  Sc0  1  0.00000000  0.00000000  0.00000000  1
  Be  Be1  1  0.66666666  0.33333333  0.38335000  1
  P  P2  1  0.33333332  0.66666666  0.61665000  1
  P  P3  1  0.33333332  0.66666666  0.28199500  1
  P  P4  1  0.66666666  0.33333333  0.71800500  1
