# generated using pymatgen
data_USi2
_symmetry_space_group_name_H-M   'P 1'
_cell_length_a   3.59860611
_cell_length_b   5.30344009
_cell_length_c   7.18995523
_cell_angle_alpha   111.64218140
_cell_angle_beta   104.49244690
_cell_angle_gamma   90.00000000
_symmetry_Int_Tables_number   1
_chemical_formula_structural   USi2
_chemical_formula_sum   'U2 Si4'
_cell_volume   122.83730809
_cell_formula_units_Z   2
loop_
 _symmetry_equiv_pos_site_id
 _symmetry_equiv_pos_as_xyz
  1  'x, y, z'
loop_
 _atom_site_type_symbol
 _atom_site_label
 _atom_site_symmetry_multiplicity
 _atom_site_fract_x
 _atom_site_fract_y
 _atom_site_fract_z
 _atom_site_occupancy
  U  U0  1  0.61822199  0.11822200  0.23644401  1
  U  U1  1  0.38177801  0.88177798  0.76355598  1
  Si  Si2  1  0.29051900  0.29051899  0.58103799  1
  Si  Si3  1  0.70948100  0.70948098  0.41896200  1
  Si  Si4  1  0.00000000  0.25113999  -0.00000000  1
  Si  Si5  1  0.00000001  0.74885998  -0.00000001  1
