# generated using pymatgen
data_SrV2O6
_symmetry_space_group_name_H-M   'P 1'
_cell_length_a   5.68547249
_cell_length_b   5.68547249
_cell_length_c   7.98294592
_cell_angle_alpha   90.00000000
_cell_angle_beta   90.00000000
_cell_angle_gamma   91.66630554
_symmetry_Int_Tables_number   1
_chemical_formula_structural   SrV2O6
_chemical_formula_sum   'Sr2 V4 O12'
_cell_volume   257.93639420
_cell_formula_units_Z   2
loop_
 _symmetry_equiv_pos_site_id
 _symmetry_equiv_pos_as_xyz
  1  'x, y, z'
loop_
 _atom_site_type_symbol
 _atom_site_label
 _atom_site_symmetry_multiplicity
 _atom_site_fract_x
 _atom_site_fract_y
 _atom_site_fract_z
 _atom_site_occupancy
  Sr  Sr0  1  0.00444422  0.99555576  0.50000001  1
  Sr  Sr1  1  0.51347123  0.48652877  1.00000003  1
  V  V2  1  0.01631469  0.48886408  0.74771627  1
  V  V3  1  0.01631469  0.48886408  0.25228376  1
  V  V4  1  0.51113590  0.98368532  0.25228376  1
  V  V5  1  0.51113590  0.98368532  0.74771627  1
  O  O6  1  0.26866833  0.27857313  0.76375222  1
  O  O7  1  0.72142687  0.73133168  0.76375222  1
  O  O8  1  0.72142687  0.73133168  0.23624781  1
  O  O9  1  0.26866833  0.27857313  0.23624781  1
  O  O10  1  0.74780526  0.25219476  0.78600768  1
  O  O11  1  0.23076278  0.76923721  0.73706129  1
  O  O12  1  0.23076278  0.76923721  0.26293874  1
  O  O13  1  0.74780526  0.25219476  0.21399235  1
  O  O14  1  0.02569122  0.52801905  1.00000003  1
  O  O15  1  0.98013911  0.47995471  0.50000001  1
  O  O16  1  0.47198094  0.97430878  -0.00000000  1
  O  O17  1  0.52004532  0.01986090  0.50000001  1
