# generated using pymatgen
data_ZrAlGa2
_symmetry_space_group_name_H-M   'P 1'
_cell_length_a   4.00289202
_cell_length_b   4.00289202
_cell_length_c   9.02814484
_cell_angle_alpha   102.80828857
_cell_angle_beta   102.80828857
_cell_angle_gamma   90.00000000
_symmetry_Int_Tables_number   1
_chemical_formula_structural   ZrAlGa2
_chemical_formula_sum   'Zr2 Al2 Ga4'
_cell_volume   137.36595255
_cell_formula_units_Z   2
loop_
 _symmetry_equiv_pos_site_id
 _symmetry_equiv_pos_as_xyz
  1  'x, y, z'
loop_
 _atom_site_type_symbol
 _atom_site_label
 _atom_site_symmetry_multiplicity
 _atom_site_fract_x
 _atom_site_fract_y
 _atom_site_fract_z
 _atom_site_occupancy
  Zr  Zr0  1  0.12610399  0.12610400  0.25220800  1
  Zr  Zr1  1  0.87389596  0.87389598  0.74779198  1
  Al  Al2  1  0.39473498  0.39473499  0.78947000  1
  Al  Al3  1  0.60526498  0.60526499  0.21052998  1
  Ga  Ga4  1  0.49999999  0.00000000  -0.00000001  1
  Ga  Ga5  1  -0.00000001  0.49999999  -0.00000001  1
  Ga  Ga6  1  0.74999998  0.25000000  0.49999999  1
  Ga  Ga7  1  0.24999998  0.74999999  0.49999999  1
