# generated using pymatgen
data_KB3O5
_symmetry_space_group_name_H-M   'P 1'
_cell_length_a   4.97653818
_cell_length_b   4.97653770
_cell_length_c   6.12732983
_cell_angle_alpha   90.00000000
_cell_angle_beta   90.00000000
_cell_angle_gamma   120.00000000
_symmetry_Int_Tables_number   1
_chemical_formula_structural   KB3O5
_chemical_formula_sum   'K1 B3 O5'
_cell_volume   131.41850713
_cell_formula_units_Z   1
loop_
 _symmetry_equiv_pos_site_id
 _symmetry_equiv_pos_as_xyz
  1  'x, y, z'
loop_
 _atom_site_type_symbol
 _atom_site_label
 _atom_site_symmetry_multiplicity
 _atom_site_fract_x
 _atom_site_fract_y
 _atom_site_fract_z
 _atom_site_occupancy
  K  K0  1  0.00000000  0.00000000  0.50000001  1
  B  B1  1  0.83345596  0.16654500  1.00000003  1
  B  B2  1  0.16654398  0.33308799  -0.00000000  1
  B  B3  1  0.66691094  0.83345498  -0.00000000  1
  O  O4  1  0.33308898  0.16654500  -0.00000000  1
  O  O5  1  0.83345594  0.66691199  1.00000003  1
  O  O6  1  0.16654396  0.83345498  -0.00000000  1
  O  O7  1  0.66666663  0.33333333  1.00000003  1
  O  O8  1  0.33333330  0.66666665  -0.00000000  1
