# generated using pymatgen
data_TmFe10Si3
_symmetry_space_group_name_H-M   'P 1'
_cell_length_a   3.82977509
_cell_length_b   7.14784718
_cell_length_c   7.14784718
_cell_angle_alpha   90.00000000
_cell_angle_beta   90.00000000
_cell_angle_gamma   90.00000000
_symmetry_Int_Tables_number   1
_chemical_formula_structural   TmFe10Si3
_chemical_formula_sum   'Tm1 Fe10 Si3'
_cell_volume   195.66979393
_cell_formula_units_Z   1
loop_
 _symmetry_equiv_pos_site_id
 _symmetry_equiv_pos_as_xyz
  1  'x, y, z'
loop_
 _atom_site_type_symbol
 _atom_site_label
 _atom_site_symmetry_multiplicity
 _atom_site_fract_x
 _atom_site_fract_y
 _atom_site_fract_z
 _atom_site_occupancy
  Tm  Tm0  1  0.00000000  0.49999999  0.49999999  1
  Fe  Fe1  1  0.49999999  0.00000000  0.00000000  1
  Fe  Fe2  1  0.49999999  0.14031800  0.58708899  1
  Fe  Fe3  1  0.49999999  0.85968198  0.41291099  1
  Fe  Fe4  1  0.00000000  0.35968199  0.08708900  1
  Fe  Fe5  1  0.00000000  0.64031798  0.91291098  1
  Fe  Fe6  1  0.49999999  0.58708899  0.14031800  1
  Fe  Fe7  1  0.49999999  0.41291099  0.85968198  1
  Fe  Fe8  1  0.00000000  0.08708900  0.35968199  1
  Fe  Fe9  1  0.00000000  0.91291098  0.64031798  1
  Fe  Fe10  1  0.49999999  0.71598598  0.71598598  1
  Si  Si11  1  0.49999999  0.28401399  0.28401399  1
  Si  Si12  1  0.00000000  0.78401398  0.21598599  1
  Si  Si13  1  0.00000000  0.21598599  0.78401398  1
