# generated using pymatgen
data_Sm3Au4
_symmetry_space_group_name_H-M   'P 1'
_cell_length_a   6.27228832
_cell_length_b   8.30299473
_cell_length_c   8.30299473
_cell_angle_alpha   113.88415527
_cell_angle_beta   104.58454132
_cell_angle_gamma   104.58454132
_symmetry_Int_Tables_number   1
_chemical_formula_structural   Sm3Au4
_chemical_formula_sum   'Sm6 Au8'
_cell_volume   350.73325258
_cell_formula_units_Z   2
loop_
 _symmetry_equiv_pos_site_id
 _symmetry_equiv_pos_as_xyz
  1  'x, y, z'
loop_
 _atom_site_type_symbol
 _atom_site_label
 _atom_site_symmetry_multiplicity
 _atom_site_fract_x
 _atom_site_fract_y
 _atom_site_fract_z
 _atom_site_occupancy
  Sm  Sm0  1  0.71660100  0.12069499  0.74276393  1
  Sm  Sm1  1  0.97383698  0.25723597  0.37793091  1
  Sm  Sm2  1  0.40409395  0.37793096  0.12069494  1
  Sm  Sm3  1  0.59590591  0.62206893  0.87930487  1
  Sm  Sm4  1  0.02616288  0.74276391  0.62206889  1
  Sm  Sm5  1  0.28339886  0.87930490  0.25723588  1
  Au  Au6  1  0.00000000  0.00000000  0.00000000  1
  Au  Au7  1  0.50000001  0.00000000  -0.00000002  1
  Au  Au8  1  0.22890798  0.16144098  0.66711995  1
  Au  Au9  1  0.56178796  0.33287996  0.49432092  1
  Au  Au10  1  0.93253294  0.49432094  0.16144090  1
  Au  Au11  1  0.06746692  0.50567894  0.83855891  1
  Au  Au12  1  0.43821190  0.66711992  0.50567889  1
  Au  Au13  1  0.77109188  0.83855890  0.33287986  1
