# generated using pymatgen
data_Ba2Y2MnCo3O10
_symmetry_space_group_name_H-M   'P 1'
_cell_length_a   3.92058945
_cell_length_b   3.92057896
_cell_length_c   15.64510345
_cell_angle_alpha   89.98264313
_cell_angle_beta   89.95281982
_cell_angle_gamma   89.99906158
_symmetry_Int_Tables_number   1
_chemical_formula_structural   Ba2Y2MnCo3O10
_chemical_formula_sum   'Ba2 Y2 Mn1 Co3 O10'
_cell_volume   240.48048727
_cell_formula_units_Z   1
loop_
 _symmetry_equiv_pos_site_id
 _symmetry_equiv_pos_as_xyz
  1  'x, y, z'
loop_
 _atom_site_type_symbol
 _atom_site_label
 _atom_site_symmetry_multiplicity
 _atom_site_fract_x
 _atom_site_fract_y
 _atom_site_fract_z
 _atom_site_occupancy
  Ba  Ba0  1  0.99950797  0.00022100  0.50800399  1
  Ba  Ba1  1  0.99989298  0.99960402  0.00798299  1
  Y  Y2  1  0.00012201  0.99995502  0.74731500  1
  Y  Y3  1  0.99997797  0.00014500  0.24732799  1
  Mn  Mn4  1  0.50007999  0.50005601  0.36806000  1
  Co  Co5  1  0.50058299  0.49966901  0.86801000  1
  Co  Co6  1  0.49990199  0.49951201  0.13380400  1
  Co  Co7  1  0.49939599  0.50026901  0.63377900  1
  O  O8  1  0.49990299  0.50008701  0.99780700  1
  O  O9  1  0.49995899  0.49996601  0.49782400  1
  O  O10  1  0.50009900  0.99967302  0.65773199  1
  O  O11  1  0.50000099  0.00066800  0.15773000  1
  O  O12  1  0.00058301  0.49997301  0.65770800  1
  O  O13  1  0.99992998  0.50016401  0.15775299  1
  O  O14  1  0.49988700  0.99999402  0.83977799  1
  O  O15  1  0.49987899  0.00004700  0.33980100  1
  O  O16  1  0.00021601  0.50001001  0.83977800  1
  O  O17  1  0.00008001  0.49998801  0.33980300  1
