# generated using pymatgen
data_NbMoO4
_symmetry_space_group_name_H-M   'P 1'
_cell_length_a   5.01114321
_cell_length_b   5.06896305
_cell_length_c   5.22874928
_cell_angle_alpha   90.00000000
_cell_angle_beta   80.29407501
_cell_angle_gamma   90.00000000
_symmetry_Int_Tables_number   1
_chemical_formula_structural   NbMoO4
_chemical_formula_sum   'Nb2 Mo2 O8'
_cell_volume   130.91589013
_cell_formula_units_Z   2
loop_
 _symmetry_equiv_pos_site_id
 _symmetry_equiv_pos_as_xyz
  1  'x, y, z'
loop_
 _atom_site_type_symbol
 _atom_site_label
 _atom_site_symmetry_multiplicity
 _atom_site_fract_x
 _atom_site_fract_y
 _atom_site_fract_z
 _atom_site_occupancy
  Nb  Nb0  1  0.29364498  0.45432500  0.28384701  1
  Nb  Nb1  1  0.70635496  0.95432499  0.21615304  1
  Mo  Mo2  1  0.70635496  0.54567499  0.71615303  1
  Mo  Mo3  1  0.29364498  0.04567500  0.78384700  1
  O  O4  1  0.44366098  0.74405699  0.02081503  1
  O  O5  1  0.55633897  0.24405700  0.47918502  1
  O  O6  1  0.55633897  0.25594300  0.97918501  1
  O  O7  1  0.44366098  0.75594299  0.52081502  1
  O  O8  1  0.06223300  0.32537700  0.65265299  1
  O  O9  1  0.93776695  0.82537699  0.84734704  1
  O  O10  1  0.93776695  0.67462299  0.34734705  1
  O  O11  1  0.06223300  0.17462300  0.15265300  1
