# generated using pymatgen
data_MgZn
_symmetry_space_group_name_H-M   'P 1'
_cell_length_a   3.86059594
_cell_length_b   7.16471195
_cell_length_c   7.16471148
_cell_angle_alpha   120.00000000
_cell_angle_beta   90.00000000
_cell_angle_gamma   90.00000000
_symmetry_Int_Tables_number   1
_chemical_formula_structural   MgZn
_chemical_formula_sum   'Mg4 Zn4'
_cell_volume   171.62573979
_cell_formula_units_Z   4
loop_
 _symmetry_equiv_pos_site_id
 _symmetry_equiv_pos_as_xyz
  1  'x, y, z'
loop_
 _atom_site_type_symbol
 _atom_site_label
 _atom_site_symmetry_multiplicity
 _atom_site_fract_x
 _atom_site_fract_y
 _atom_site_fract_z
 _atom_site_occupancy
  Mg  Mg0  1  0.50000001  0.35558199  0.35558198  1
  Mg  Mg1  1  0.50000001  0.00000000  0.64441800  1
  Mg  Mg2  1  0.50000001  0.64441799  -0.00000003  1
  Mg  Mg3  1  -0.00000000  0.76893499  0.76893496  1
  Zn  Zn4  1  0.00000000  0.00000000  0.23106500  1
  Zn  Zn5  1  -0.00000000  0.23106500  -0.00000001  1
  Zn  Zn6  1  -0.00000000  0.66666666  0.33333330  1
  Zn  Zn7  1  -0.00000000  0.33333333  0.66666665  1
