# generated using pymatgen
data_Ag2S
_symmetry_space_group_name_H-M   'P 1'
_cell_length_a   4.55434847
_cell_length_b   7.02112389
_cell_length_c   8.30026817
_cell_angle_alpha   90.00000000
_cell_angle_beta   91.76876831
_cell_angle_gamma   90.00000000
_symmetry_Int_Tables_number   1
_chemical_formula_structural   Ag2S
_chemical_formula_sum   'Ag8 S4'
_cell_volume   265.28826612
_cell_formula_units_Z   4
loop_
 _symmetry_equiv_pos_site_id
 _symmetry_equiv_pos_as_xyz
  1  'x, y, z'
loop_
 _atom_site_type_symbol
 _atom_site_label
 _atom_site_symmetry_multiplicity
 _atom_site_fract_x
 _atom_site_fract_y
 _atom_site_fract_z
 _atom_site_occupancy
  Ag  Ag0  1  0.25573801  0.46026601  0.23120500  1
  Ag  Ag1  1  0.75573804  0.03973400  0.73120501  1
  Ag  Ag2  1  0.74426204  0.53973401  0.76879501  1
  Ag  Ag3  1  0.24426201  0.96026602  0.26879500  1
  Ag  Ag4  1  0.76834004  0.17627300  0.07126302  1
  Ag  Ag5  1  0.26834001  0.32372701  0.57126300  1
  Ag  Ag6  1  0.23166001  0.82372701  0.92873699  1
  Ag  Ag7  1  0.73166004  0.67627301  0.42873701  1
  S  S8  1  0.57644303  0.21591800  0.34507201  1
  S  S9  1  0.07644300  0.28408200  0.84507198  1
  S  S10  1  0.42355702  0.78408201  0.65492800  1
  S  S11  1  0.92355705  0.71591801  0.15492803  1
