# generated using pymatgen
data_Zr6Fe2Sn
_symmetry_space_group_name_H-M   'P 1'
_cell_length_a   3.68561697
_cell_length_b   7.81439590
_cell_length_c   7.81439543
_cell_angle_alpha   120.00000000
_cell_angle_beta   90.00000000
_cell_angle_gamma   90.00000000
_symmetry_Int_Tables_number   1
_chemical_formula_structural   Zr6Fe2Sn
_chemical_formula_sum   'Zr6 Fe2 Sn1'
_cell_volume   194.90887948
_cell_formula_units_Z   1
loop_
 _symmetry_equiv_pos_site_id
 _symmetry_equiv_pos_as_xyz
  1  'x, y, z'
loop_
 _atom_site_type_symbol
 _atom_site_label
 _atom_site_symmetry_multiplicity
 _atom_site_fract_x
 _atom_site_fract_y
 _atom_site_fract_z
 _atom_site_occupancy
  Zr  Zr0  1  0.50000000  0.75845000  0.75844999  1
  Zr  Zr1  1  0.50000000  0.00000000  0.24155001  1
  Zr  Zr2  1  0.50000000  0.24155000  -0.00000001  1
  Zr  Zr3  1  1.00000001  0.40322600  0.40322600  1
  Zr  Zr4  1  0.00000000  0.00000000  0.59677401  1
  Zr  Zr5  1  -0.00000000  0.59677400  -0.00000002  1
  Fe  Fe6  1  0.00000000  0.00000000  0.00000000  1
  Fe  Fe7  1  0.50000000  0.66666666  0.33333332  1
  Sn  Sn8  1  0.50000000  0.33333333  0.66666667  1
