# generated using pymatgen
data_Al4C3
_symmetry_space_group_name_H-M   'P 1'
_cell_length_a   3.44233203
_cell_length_b   3.44233203
_cell_length_c   17.38949776
_cell_angle_alpha   90.00000000
_cell_angle_beta   90.00000000
_cell_angle_gamma   120.00000000
_symmetry_Int_Tables_number   1
_chemical_formula_structural   Al4C3
_chemical_formula_sum   'Al8 C6'
_cell_volume   178.45272586
_cell_formula_units_Z   2
loop_
 _symmetry_equiv_pos_site_id
 _symmetry_equiv_pos_as_xyz
  1  'x, y, z'
loop_
 _atom_site_type_symbol
 _atom_site_label
 _atom_site_symmetry_multiplicity
 _atom_site_fract_x
 _atom_site_fract_y
 _atom_site_fract_z
 _atom_site_occupancy
  Al  Al0  1  0.00000000  0.00000000  0.00000000  1
  Al  Al1  1  0.00000000  0.00000000  0.50000001  1
  Al  Al2  1  0.66666666  0.33333333  0.86598901  1
  Al  Al3  1  0.33333333  0.66666667  0.75000001  1
  Al  Al4  1  0.66666666  0.33333333  0.63401101  1
  Al  Al5  1  0.33333333  0.66666667  0.36598901  1
  Al  Al6  1  0.66666666  0.33333333  0.25000000  1
  Al  Al7  1  0.33333333  0.66666667  0.13401100  1
  C  C8  1  0.33333333  0.66666667  0.90630401  1
  C  C9  1  0.66666666  0.33333333  0.75000001  1
  C  C10  1  0.33333333  0.66666667  0.59369601  1
  C  C11  1  0.66666666  0.33333333  0.40630401  1
  C  C12  1  0.33333333  0.66666667  0.25000000  1
  C  C13  1  0.66666666  0.33333333  0.09369600  1
