# generated using pymatgen
data_LiZn5Sn7
_symmetry_space_group_name_H-M   'P 1'
_cell_length_a   5.44245815
_cell_length_b   5.44245911
_cell_length_c   8.99853134
_cell_angle_alpha   90.00000000
_cell_angle_beta   90.00000000
_cell_angle_gamma   119.99999237
_symmetry_Int_Tables_number   1
_chemical_formula_structural   LiZn5Sn7
_chemical_formula_sum   'Li1 Zn5 Sn7'
_cell_volume   230.83017013
_cell_formula_units_Z   1
loop_
 _symmetry_equiv_pos_site_id
 _symmetry_equiv_pos_as_xyz
  1  'x, y, z'
loop_
 _atom_site_type_symbol
 _atom_site_label
 _atom_site_symmetry_multiplicity
 _atom_site_fract_x
 _atom_site_fract_y
 _atom_site_fract_z
 _atom_site_occupancy
  Li  Li0  1  0.00000000  0.00000000  0.00000000  1
  Zn  Zn1  1  0.49999995  0.99999996  0.24785799  1
  Zn  Zn2  1  0.49999997  0.49999998  0.24785799  1
  Zn  Zn3  1  -0.00000002  0.49999998  0.24785799  1
  Sn  Sn4  1  0.49999995  0.99999996  0.75214197  1
  Zn  Zn5  1  0.49999997  0.49999998  0.75214197  1
  Zn  Zn6  1  -0.00000002  0.49999998  0.75214197  1
  Sn  Sn7  1  0.33333330  0.66666664  -0.00000000  1
  Sn  Sn8  1  0.66666664  0.33333332  -0.00000000  1
  Sn  Sn9  1  0.33333330  0.66666664  0.49999998  1
  Sn  Sn10  1  0.66666664  0.33333332  0.49999998  1
  Sn  Sn11  1  0.00000000  0.00000000  0.33151899  1
  Sn  Sn12  1  0.00000000  0.00000000  0.66848097  1
