# generated using pymatgen
data_Sr2MnZn2(AsO)2
_symmetry_space_group_name_H-M   'P 1'
_cell_length_a   4.19946289
_cell_length_b   4.19946289
_cell_length_c   9.88986015
_cell_angle_alpha   102.26358795
_cell_angle_beta   102.25502777
_cell_angle_gamma   89.99328613
_symmetry_Int_Tables_number   1
_chemical_formula_structural   Sr2MnZn2(AsO)2
_chemical_formula_sum   'Sr2 Mn1 Zn2 As2 O2'
_cell_volume   166.36403697
_cell_formula_units_Z   1
loop_
 _symmetry_equiv_pos_site_id
 _symmetry_equiv_pos_as_xyz
  1  'x, y, z'
loop_
 _atom_site_type_symbol
 _atom_site_label
 _atom_site_symmetry_multiplicity
 _atom_site_fract_x
 _atom_site_fract_y
 _atom_site_fract_z
 _atom_site_occupancy
  Sr  Sr0  1  0.58652101  0.58652301  0.17304301  1
  Sr  Sr1  1  0.41347801  0.41347901  0.82695604  1
  Mn  Mn2  1  0.00000298  0.99999503  0.00000399  1
  Zn  Zn3  1  0.24999099  0.74999302  0.49999902  1
  Zn  Zn4  1  0.75000702  0.25000801  0.49999903  1
  As  As5  1  0.16880900  0.16862700  0.33743502  1
  As  As6  1  0.83119101  0.83137402  0.66256403  1
  O  O7  1  -0.00000001  0.50000201  -0.00000000  1
  O  O8  1  0.50000002  0.00000000  1.00000005  1
