# generated using pymatgen
data_CdInTeSe4
_symmetry_space_group_name_H-M   'P 1'
_cell_length_a   6.31402779
_cell_length_b   6.31402779
_cell_length_c   7.70569372
_cell_angle_alpha   114.18592072
_cell_angle_beta   114.18592072
_cell_angle_gamma   90.00000000
_symmetry_Int_Tables_number   1
_chemical_formula_structural   CdInTeSe4
_chemical_formula_sum   'Cd1 In1 Te1 Se4'
_cell_volume   250.38296015
_cell_formula_units_Z   1
loop_
 _symmetry_equiv_pos_site_id
 _symmetry_equiv_pos_as_xyz
  1  'x, y, z'
loop_
 _atom_site_type_symbol
 _atom_site_label
 _atom_site_symmetry_multiplicity
 _atom_site_fract_x
 _atom_site_fract_y
 _atom_site_fract_z
 _atom_site_occupancy
  Cd  Cd0  1  0.50000003  0.50000002  0.00000002  1
  In  In1  1  0.75000004  0.25000001  0.50000002  1
  Te  Te2  1  0.25000003  0.75000003  0.50000002  1
  Se  Se3  1  0.65477503  0.12406301  0.77883801  1
  Se  Se4  1  0.87593805  0.87593804  0.22116304  1
  Se  Se5  1  0.12406202  0.65477403  0.77883602  1
  Se  Se6  1  0.34522502  0.34522502  0.22116301  1
