# generated using pymatgen
data_Ce4ZrSb2Se9
_symmetry_space_group_name_H-M   'P 1'
_cell_length_a   4.01730490
_cell_length_b   4.03918600
_cell_length_c   21.22891808
_cell_angle_alpha   90.00000000
_cell_angle_beta   90.00000000
_cell_angle_gamma   90.00000000
_symmetry_Int_Tables_number   1
_chemical_formula_structural   Ce4ZrSb2Se9
_chemical_formula_sum   'Ce4 Zr1 Sb2 Se9'
_cell_volume   344.47404734
_cell_formula_units_Z   1
loop_
 _symmetry_equiv_pos_site_id
 _symmetry_equiv_pos_as_xyz
  1  'x, y, z'
loop_
 _atom_site_type_symbol
 _atom_site_label
 _atom_site_symmetry_multiplicity
 _atom_site_fract_x
 _atom_site_fract_y
 _atom_site_fract_z
 _atom_site_occupancy
  Ce  Ce0  1  0.25000001  0.26192000  0.61511603  1
  Ce  Ce1  1  0.25000001  0.23808000  0.11511601  1
  Ce  Ce2  1  0.75000002  0.73808000  0.38488402  1
  Ce  Ce3  1  0.75000002  0.76192000  0.88488404  1
  Zr  Zr4  1  0.25000001  0.76151400  0.75001803  1
  Sb  Sb5  1  0.25000001  0.73848600  0.25001801  1
  Sb  Sb6  1  0.75000002  0.23848600  0.24998201  1
  Se  Se7  1  0.75000002  0.26151400  0.74998203  1
  Se  Se8  1  0.25000001  0.26178800  0.84140504  1
  Se  Se9  1  0.25000001  0.23821200  0.34140501  1
  Se  Se10  1  0.75000002  0.73821200  0.15859501  1
  Se  Se11  1  0.75000002  0.76178800  0.65859503  1
  Se  Se12  1  0.25000001  0.78019700  0.50084102  1
  Se  Se13  1  0.25000001  0.71980300  0.00084100  1
  Se  Se14  1  0.75000002  0.21980300  0.49915902  1
  Se  Se15  1  0.75000002  0.28019700  0.99915904  1
