# generated using pymatgen
data_LiAl(BO3)2
_symmetry_space_group_name_H-M   'P 1'
_cell_length_a   5.92428541
_cell_length_b   5.92428541
_cell_length_c   5.92428541
_cell_angle_alpha   103.94222260
_cell_angle_beta   103.94222260
_cell_angle_gamma   103.94221497
_symmetry_Int_Tables_number   1
_chemical_formula_structural   LiAl(BO3)2
_chemical_formula_sum   'Li2 Al2 B4 O12'
_cell_volume   185.72581864
_cell_formula_units_Z   2
loop_
 _symmetry_equiv_pos_site_id
 _symmetry_equiv_pos_as_xyz
  1  'x, y, z'
loop_
 _atom_site_type_symbol
 _atom_site_label
 _atom_site_symmetry_multiplicity
 _atom_site_fract_x
 _atom_site_fract_y
 _atom_site_fract_z
 _atom_site_occupancy
  Al  Al0  1  0.00000000  0.00000000  0.00000000  1
  Li  Li1  1  0.44307501  0.00000000  0.55692498  1
  Li  Li2  1  -0.00000005  0.55692500  0.44307496  1
  Al  Al3  1  0.55692497  0.44307500  -0.00000007  1
  B  B4  1  0.05856796  0.50000000  0.94143197  1
  B  B5  1  0.49999993  0.94143199  0.05856789  1
  B  B6  1  0.94143201  0.05856800  0.49999995  1
  B  B7  1  0.49999997  0.50000000  0.49999993  1
  O  O8  1  0.35183595  0.64816400  0.49999993  1
  O  O9  1  0.50000000  0.09074100  0.90925898  1
  O  O10  1  0.90925897  0.50000000  0.09074090  1
  O  O11  1  0.09074092  0.90925899  0.49999992  1
  O  O12  1  0.97109500  0.22610600  0.37680693  1
  O  O13  1  0.37680692  0.97109499  0.22610589  1
  O  O14  1  0.22610597  0.37680700  0.97109497  1
  O  O15  1  0.77389401  0.02890500  0.62319296  1
  O  O16  1  0.62319294  0.77389399  0.02890489  1
  O  O17  1  0.02890495  0.62319300  0.77389396  1
  O  O18  1  0.49999998  0.35183600  0.64816395  1
  O  O19  1  0.64816397  0.50000000  0.35183592  1
