# generated using pymatgen
data_CeAlCu4
_symmetry_space_group_name_H-M   'P 1'
_cell_length_a   3.99592495
_cell_length_b   5.27311611
_cell_length_c   5.27311563
_cell_angle_alpha   120.00000000
_cell_angle_beta   90.00000000
_cell_angle_gamma   90.00000000
_symmetry_Int_Tables_number   1
_chemical_formula_structural   CeAlCu4
_chemical_formula_sum   'Ce1 Al1 Cu4'
_cell_volume   96.22381780
_cell_formula_units_Z   1
loop_
 _symmetry_equiv_pos_site_id
 _symmetry_equiv_pos_as_xyz
  1  'x, y, z'
loop_
 _atom_site_type_symbol
 _atom_site_label
 _atom_site_symmetry_multiplicity
 _atom_site_fract_x
 _atom_site_fract_y
 _atom_site_fract_z
 _atom_site_occupancy
  Ce  Ce0  1  -0.00000000  0.33333332  0.66666665  1
  Al  Al1  1  0.00000000  0.00000000  0.00000000  1
  Cu  Cu2  1  -0.00000000  0.66666664  0.33333330  1
  Cu  Cu3  1  0.50000001  0.33582499  0.16791298  1
  Cu  Cu4  1  0.50000001  0.83208796  0.66417596  1
  Cu  Cu5  1  0.50000001  0.83208796  0.16791296  1
