# generated using pymatgen
data_Li2ZrTiO6
_symmetry_space_group_name_H-M   'P 1'
_cell_length_a   5.16907930
_cell_length_b   5.16907930
_cell_length_c   5.51362991
_cell_angle_alpha   62.04651260
_cell_angle_beta   62.04651260
_cell_angle_gamma   60.00000763
_symmetry_Int_Tables_number   1
_chemical_formula_structural   Li2ZrTiO6
_chemical_formula_sum   'Li2 Zr1 Ti1 O6'
_cell_volume   107.27837503
_cell_formula_units_Z   1
loop_
 _symmetry_equiv_pos_site_id
 _symmetry_equiv_pos_as_xyz
  1  'x, y, z'
loop_
 _atom_site_type_symbol
 _atom_site_label
 _atom_site_symmetry_multiplicity
 _atom_site_fract_x
 _atom_site_fract_y
 _atom_site_fract_z
 _atom_site_occupancy
  Li  Li0  1  0.14577001  0.14577000  0.56269001  1
  Li  Li1  1  0.64341604  0.64341602  0.06975200  1
  Zr  Zr2  1  0.35236502  0.35236501  0.94290502  1
  Ti  Ti3  1  0.85232706  0.85232702  0.44301901  1
  O  O4  1  0.06889002  0.76097102  0.74027601  1
  O  O5  1  0.76097104  0.42986301  0.74027602  1
  O  O6  1  0.42986302  0.06889000  0.74027602  1
  O  O7  1  0.96432404  0.23105801  0.25360201  1
  O  O8  1  0.23105802  0.55101602  0.25360201  1
  O  O9  1  0.55101605  0.96432403  0.25360201  1
