# generated using pymatgen
data_Cu3AgS6
_symmetry_space_group_name_H-M   'P 1'
_cell_length_a   7.21827793
_cell_length_b   7.26434898
_cell_length_c   7.21827793
_cell_angle_alpha   119.79042816
_cell_angle_beta   90.00000000
_cell_angle_gamma   119.79042816
_symmetry_Int_Tables_number   1
_chemical_formula_structural   Cu3AgS6
_chemical_formula_sum   'Cu3 Ag1 S6'
_cell_volume   269.32536944
_cell_formula_units_Z   1
loop_
 _symmetry_equiv_pos_site_id
 _symmetry_equiv_pos_as_xyz
  1  'x, y, z'
loop_
 _atom_site_type_symbol
 _atom_site_label
 _atom_site_symmetry_multiplicity
 _atom_site_fract_x
 _atom_site_fract_y
 _atom_site_fract_z
 _atom_site_occupancy
  Ag  Ag0  1  0.83927202  0.67854399  0.56137002  1
  Cu  Cu1  1  0.81137001  0.17854400  0.58927201  1
  Cu  Cu2  1  0.83927202  0.67854399  0.11717401  1
  Cu  Cu3  1  0.36717401  0.17854400  0.58927201  1
  S  S4  1  0.24744101  0.49488200  0.74744101  1
  S  S5  1  0.99744102  0.99488199  0.99744102  1
  S  S6  1  0.62699302  0.73241499  0.36620701  1
  S  S7  1  0.61620801  0.23241600  0.37699401  1
  S  S8  1  0.61620801  0.23241500  0.85542201  1
  S  S9  1  0.10542201  0.73241599  0.36620801  1
