# generated using pymatgen
data_LiSn4Ru
_symmetry_space_group_name_H-M   'P 1'
_cell_length_a   6.68209410
_cell_length_b   7.45002937
_cell_length_c   6.68209410
_cell_angle_alpha   63.35501862
_cell_angle_beta   90.00000000
_cell_angle_gamma   116.64498138
_symmetry_Int_Tables_number   1
_chemical_formula_structural   LiSn4Ru
_chemical_formula_sum   'Li2 Sn8 Ru2'
_cell_volume   257.18676562
_cell_formula_units_Z   2
loop_
 _symmetry_equiv_pos_site_id
 _symmetry_equiv_pos_as_xyz
  1  'x, y, z'
loop_
 _atom_site_type_symbol
 _atom_site_label
 _atom_site_symmetry_multiplicity
 _atom_site_fract_x
 _atom_site_fract_y
 _atom_site_fract_z
 _atom_site_occupancy
  Li  Li0  1  0.49999999  0.00000000  0.49999999  1
  Li  Li1  1  0.00000000  0.00000000  0.00000000  1
  Sn  Sn2  1  0.70629102  0.72971404  0.79370896  1
  Sn  Sn3  1  0.52342302  0.72971504  0.29370797  1
  Sn  Sn4  1  0.20629102  0.72971304  0.97657796  1
  Sn  Sn5  1  0.79370900  0.27028701  0.02342199  1
  Sn  Sn6  1  0.47657700  0.27028501  0.70629198  1
  Sn  Sn7  1  0.29370901  0.27028601  0.20629099  1
  Sn  Sn8  1  0.97657700  0.27028601  0.52342298  1
  Sn  Sn9  1  0.02342303  0.72971404  0.47657697  1
  Ru  Ru10  1  0.75000001  0.50000002  0.24999998  1
  Ru  Ru11  1  0.25000001  0.50000002  0.74999997  1
