# generated using pymatgen
data_ErMgPd
_symmetry_space_group_name_H-M   'P 1'
_cell_length_a   3.74518609
_cell_length_b   7.58943796
_cell_length_c   7.58943796
_cell_angle_alpha   120.00000000
_cell_angle_beta   90.00000000
_cell_angle_gamma   90.00000000
_symmetry_Int_Tables_number   1
_chemical_formula_structural   ErMgPd
_chemical_formula_sum   'Er3 Mg3 Pd3'
_cell_volume   186.81995536
_cell_formula_units_Z   3
loop_
 _symmetry_equiv_pos_site_id
 _symmetry_equiv_pos_as_xyz
  1  'x, y, z'
loop_
 _atom_site_type_symbol
 _atom_site_label
 _atom_site_symmetry_multiplicity
 _atom_site_fract_x
 _atom_site_fract_y
 _atom_site_fract_z
 _atom_site_occupancy
  Er  Er0  1  -0.00000000  1.00000000  0.40368199  1
  Er  Er1  1  -0.00000000  0.40368200  -0.00000000  1
  Er  Er2  1  -0.00000000  0.59631800  0.59631799  1
  Mg  Mg3  1  0.49999999  0.73472700  -0.00000001  1
  Mg  Mg4  1  0.49999999  1.00000000  0.73472699  1
  Mg  Mg5  1  0.49999999  0.26527300  0.26527300  1
  Pd  Pd6  1  0.49999999  0.33333333  0.66666666  1
  Pd  Pd7  1  0.49999999  0.66666667  0.33333333  1
  Pd  Pd8  1  0.00000000  0.00000000  0.00000000  1
