# generated using pymatgen
data_Zr6FeSn2
_symmetry_space_group_name_H-M   'P 1'
_cell_length_a   3.62126088
_cell_length_b   7.83937216
_cell_length_c   7.83937263
_cell_angle_alpha   120.00000000
_cell_angle_beta   90.00000000
_cell_angle_gamma   90.00000000
_symmetry_Int_Tables_number   1
_chemical_formula_structural   Zr6FeSn2
_chemical_formula_sum   'Zr6 Fe1 Sn2'
_cell_volume   192.73164831
_cell_formula_units_Z   1
loop_
 _symmetry_equiv_pos_site_id
 _symmetry_equiv_pos_as_xyz
  1  'x, y, z'
loop_
 _atom_site_type_symbol
 _atom_site_label
 _atom_site_symmetry_multiplicity
 _atom_site_fract_x
 _atom_site_fract_y
 _atom_site_fract_z
 _atom_site_occupancy
  Zr  Zr0  1  0.50000002  0.76016100  0.76016104  1
  Zr  Zr1  1  0.50000002  1.00000000  0.23983905  1
  Zr  Zr2  1  0.50000002  0.23983900  0.00000001  1
  Zr  Zr3  1  1.00000003  0.40117900  0.40117902  1
  Zr  Zr4  1  1.00000003  0.00000000  0.59882100  1
  Zr  Zr5  1  1.00000003  0.59882100  1.00000003  1
  Fe  Fe6  1  0.00000000  0.00000000  0.00000000  1
  Sn  Sn7  1  0.50000002  0.66666667  0.33333337  1
  Sn  Sn8  1  0.50000002  0.33333333  0.66666668  1
