# generated using pymatgen
data_ErZnPd
_symmetry_space_group_name_H-M   'P 1'
_cell_length_a   4.15326214
_cell_length_b   7.16565418
_cell_length_c   7.16565371
_cell_angle_alpha   120.00000000
_cell_angle_beta   90.00000000
_cell_angle_gamma   90.00000000
_symmetry_Int_Tables_number   1
_chemical_formula_structural   ErZnPd
_chemical_formula_sum   'Er3 Zn3 Pd3'
_cell_volume   184.68500521
_cell_formula_units_Z   3
loop_
 _symmetry_equiv_pos_site_id
 _symmetry_equiv_pos_as_xyz
  1  'x, y, z'
loop_
 _atom_site_type_symbol
 _atom_site_label
 _atom_site_symmetry_multiplicity
 _atom_site_fract_x
 _atom_site_fract_y
 _atom_site_fract_z
 _atom_site_occupancy
  Er  Er0  1  0.49999998  0.00000000  0.58246700  1
  Er  Er1  1  0.49999998  0.58246698  -0.00000002  1
  Er  Er2  1  0.49999998  0.41753298  0.41753298  1
  Zn  Zn3  1  -0.00000000  0.23479699  -0.00000001  1
  Zn  Zn4  1  0.99999997  0.76520297  0.76520297  1
  Zn  Zn5  1  -0.00000000  0.00000000  0.23479700  1
  Pd  Pd6  1  -0.00000000  0.66666664  0.33333331  1
  Pd  Pd7  1  0.99999997  0.33333332  0.66666665  1
  Pd  Pd8  1  0.49999998  0.00000000  -0.00000000  1
