# generated using pymatgen
data_Tm2Fe2Si2C
_symmetry_space_group_name_H-M   'P 1'
_cell_length_a   3.89066195
_cell_length_b   5.58469868
_cell_length_c   5.58469582
_cell_angle_alpha   72.97881317
_cell_angle_beta   69.61464691
_cell_angle_gamma   69.61465454
_symmetry_Int_Tables_number   1
_chemical_formula_structural   Tm2Fe2Si2C
_chemical_formula_sum   'Tm2 Fe2 Si2 C1'
_cell_volume   104.57376197
_cell_formula_units_Z   1
loop_
 _symmetry_equiv_pos_site_id
 _symmetry_equiv_pos_as_xyz
  1  'x, y, z'
loop_
 _atom_site_type_symbol
 _atom_site_label
 _atom_site_symmetry_multiplicity
 _atom_site_fract_x
 _atom_site_fract_y
 _atom_site_fract_z
 _atom_site_occupancy
  Tm  Tm0  1  0.55903500  0.17432399  0.70760602  1
  Tm  Tm1  1  0.44096502  0.82567598  0.29239398  1
  Fe  Fe2  1  0.20244802  0.69293598  0.90216799  1
  Fe  Fe3  1  0.79755200  0.30706399  0.09783202  1
  Si  Si4  1  0.15890001  0.39307699  0.28912299  1
  Si  Si5  1  0.84110001  0.60692298  0.71087702  1
  C  C6  1  0.00000000  0.00000000  0.00000000  1
