# generated using pymatgen
data_Ce2GeRh3
_symmetry_space_group_name_H-M   'P 1'
_cell_length_a   5.16468430
_cell_length_b   5.16468430
_cell_length_c   5.16468430
_cell_angle_alpha   67.24330902
_cell_angle_beta   67.24330902
_cell_angle_gamma   67.24330139
_symmetry_Int_Tables_number   1
_chemical_formula_structural   Ce2GeRh3
_chemical_formula_sum   'Ce2 Ge1 Rh3'
_cell_volume   112.50003602
_cell_formula_units_Z   1
loop_
 _symmetry_equiv_pos_site_id
 _symmetry_equiv_pos_as_xyz
  1  'x, y, z'
loop_
 _atom_site_type_symbol
 _atom_site_label
 _atom_site_symmetry_multiplicity
 _atom_site_fract_x
 _atom_site_fract_y
 _atom_site_fract_z
 _atom_site_occupancy
  Ce  Ce0  1  0.37056802  0.37056801  0.37056799  1
  Ce  Ce1  1  0.62943203  0.62943201  0.62943198  1
  Ge  Ge2  1  0.00000000  0.00000000  0.00000000  1
  Rh  Rh3  1  0.00000000  0.00000000  0.50000001  1
  Rh  Rh4  1  0.00000001  0.50000001  -0.00000001  1
  Rh  Rh5  1  0.50000001  0.00000000  -0.00000001  1
