# generated using pymatgen
data_RbSb(NCl3)2
_symmetry_space_group_name_H-M   'P 1'
_cell_length_a   8.06827259
_cell_length_b   8.46875286
_cell_length_c   9.46052933
_cell_angle_alpha   99.36273956
_cell_angle_beta   108.24239349
_cell_angle_gamma   108.65116882
_symmetry_Int_Tables_number   1
_chemical_formula_structural   RbSb(NCl3)2
_chemical_formula_sum   'Rb2 Sb2 N4 Cl12'
_cell_volume   556.33250488
_cell_formula_units_Z   2
loop_
 _symmetry_equiv_pos_site_id
 _symmetry_equiv_pos_as_xyz
  1  'x, y, z'
loop_
 _atom_site_type_symbol
 _atom_site_label
 _atom_site_symmetry_multiplicity
 _atom_site_fract_x
 _atom_site_fract_y
 _atom_site_fract_z
 _atom_site_occupancy
  Rb  Rb0  1  0.62532504  0.84909903  0.63099605  1
  Rb  Rb1  1  0.37467502  0.15090101  0.36900401  1
  Sb  Sb2  1  0.48465003  0.44311901  0.76587102  1
  Sb  Sb3  1  0.51535003  0.55688102  0.23412904  1
  N  N4  1  0.56259103  0.67019802  0.69318903  1
  N  N5  1  0.43740903  0.32980201  0.30681102  1
  N  N6  1  0.43819303  0.29373901  0.60002401  1
  Cl  Cl7  1  0.56180703  0.70626102  0.39997605  1
  N  N8  1  0.18940001  0.46065302  0.11797803  1
  Cl  Cl9  1  0.81060005  0.53934702  0.88202203  1
  Cl  Cl10  1  0.57723803  0.72864502  0.07328506  1
  Cl  Cl11  1  0.42276203  0.27135501  0.92671500  1
  Cl  Cl12  1  0.79929305  0.52305202  0.29683305  1
  Cl  Cl13  1  0.20070701  0.47694802  0.70316701  1
  Cl  Cl14  1  0.06874200  0.10862000  0.34186600  1
  Cl  Cl15  1  0.93125806  0.89138003  0.65813406  1
  Cl  Cl16  1  0.28247501  0.93183803  0.14959705  1
  Cl  Cl17  1  0.71752505  0.06816200  0.85040301  1
  Cl  Cl18  1  0.68176604  0.15130801  0.48288702  1
  Cl  Cl19  1  0.31823402  0.84869203  0.51711304  1
