# generated using pymatgen
data_Ho4Ge9Rh7
_symmetry_space_group_name_H-M   'P 1'
_cell_length_a   5.71950531
_cell_length_b   8.08110809
_cell_length_c   8.08110809
_cell_angle_alpha   93.78517914
_cell_angle_beta   109.48913574
_cell_angle_gamma   109.48913574
_symmetry_Int_Tables_number   1
_chemical_formula_structural   Ho4Ge9Rh7
_chemical_formula_sum   'Ho4 Ge9 Rh7'
_cell_volume   325.25914574
_cell_formula_units_Z   1
loop_
 _symmetry_equiv_pos_site_id
 _symmetry_equiv_pos_as_xyz
  1  'x, y, z'
loop_
 _atom_site_type_symbol
 _atom_site_label
 _atom_site_symmetry_multiplicity
 _atom_site_fract_x
 _atom_site_fract_y
 _atom_site_fract_z
 _atom_site_occupancy
  Ho  Ho0  1  0.26708802  0.12775500  0.40817199  1
  Ho  Ho1  1  0.23291206  0.59182799  0.87224497  1
  Ho  Ho2  1  0.76708806  0.40817199  0.12775502  1
  Ho  Ho3  1  0.73291210  0.87224499  0.59182799  1
  Ge  Ge4  1  0.25000010  0.99704099  0.00295899  1
  Ge  Ge5  1  0.75000002  0.00295900  0.99704100  1
  Ge  Ge6  1  0.37974706  0.54344699  0.26224300  1
  Ge  Ge7  1  0.87974705  0.26224300  0.54344702  1
  Ge  Ge8  1  0.62025306  0.45655299  0.73775699  1
  Ge  Ge9  1  0.12025308  0.73775699  0.45655297  1
  Rh  Rh10  1  0.25000005  0.49050599  0.50949398  1
  Rh  Rh11  1  0.75000007  0.50949399  0.49050601  1
  Ge  Ge12  1  0.25000003  0.22649400  0.77350598  1
  Ge  Ge13  1  0.75000010  0.77350599  0.22649401  1
  Ge  Ge14  1  0.17308503  0.26187700  0.07887400  1
  Rh  Rh15  1  0.32691510  0.92112599  0.73812297  1
  Rh  Rh16  1  0.75000004  0.21321500  0.78678500  1
  Rh  Rh17  1  0.25000008  0.78678499  0.21321499  1
  Rh  Rh18  1  0.67308503  0.07887400  0.26187702  1
  Rh  Rh19  1  0.82691509  0.73812299  0.92112599  1
