# generated using pymatgen
data_Dy8W5C7
_symmetry_space_group_name_H-M   'P 1'
_cell_length_a   5.06475496
_cell_length_b   6.53420591
_cell_length_c   9.79278183
_cell_angle_alpha   90.00000000
_cell_angle_beta   90.00000000
_cell_angle_gamma   90.00000000
_symmetry_Int_Tables_number   1
_chemical_formula_structural   Dy8W5C7
_chemical_formula_sum   'Dy8 W5 C7'
_cell_volume   324.08380871
_cell_formula_units_Z   1
loop_
 _symmetry_equiv_pos_site_id
 _symmetry_equiv_pos_as_xyz
  1  'x, y, z'
loop_
 _atom_site_type_symbol
 _atom_site_label
 _atom_site_symmetry_multiplicity
 _atom_site_fract_x
 _atom_site_fract_y
 _atom_site_fract_z
 _atom_site_occupancy
  Dy  Dy0  1  0.75000001  0.53364101  0.78277601  1
  Dy  Dy1  1  0.25000000  0.96635901  0.28277600  1
  Dy  Dy2  1  0.75000001  0.67858901  0.44323201  1
  Dy  Dy3  1  0.25000000  0.82141101  0.94323202  1
  Dy  Dy4  1  0.75000001  0.17858900  0.05676800  1
  Dy  Dy5  1  0.25000000  0.32141100  0.55676801  1
  Dy  Dy6  1  0.25000000  0.46635901  0.21722400  1
  Dy  Dy7  1  0.75000001  0.03364100  0.71722401  1
  W  W8  1  0.25000000  0.28165600  0.86779002  1
  W  W9  1  0.25000000  0.78165601  0.63221001  1
  W  W10  1  0.75000001  0.21834400  0.36779001  1
  W  W11  1  0.75000001  0.71834401  0.13221000  1
  W  W12  1  0.25000000  0.67508701  0.44788401  1
  C  C13  1  0.25000000  0.54864601  0.75898401  1
  C  C14  1  0.75000001  0.45135401  0.24101600  1
  C  C15  1  0.75000001  0.82491301  0.94788402  1
  C  C16  1  0.25000000  0.04864600  0.74101601  1
  C  C17  1  0.25000000  0.17508700  0.05211600  1
  C  C18  1  0.75000001  0.32491300  0.55211601  1
  C  C19  1  0.75000001  0.95135401  0.25898400  1
