# generated using pymatgen
data_La2SiAs2
_symmetry_space_group_name_H-M   'P 1'
_cell_length_a   4.26322031
_cell_length_b   4.26322031
_cell_length_c   11.01558971
_cell_angle_alpha   78.84238434
_cell_angle_beta   78.84238434
_cell_angle_gamma   59.99999237
_symmetry_Int_Tables_number   1
_chemical_formula_structural   La2SiAs2
_chemical_formula_sum   'La2 Si1 As2'
_cell_volume   169.00217224
_cell_formula_units_Z   1
loop_
 _symmetry_equiv_pos_site_id
 _symmetry_equiv_pos_as_xyz
  1  'x, y, z'
loop_
 _atom_site_type_symbol
 _atom_site_label
 _atom_site_symmetry_multiplicity
 _atom_site_fract_x
 _atom_site_fract_y
 _atom_site_fract_z
 _atom_site_occupancy
  La  La0  1  0.61803900  0.61803902  0.14588299  1
  La  La1  1  0.38196200  0.38196101  0.85411598  1
  Si  Si2  1  0.00000000  0.00000000  0.00000000  1
  As  As3  1  0.22208400  0.22208401  0.33374799  1
  As  As4  1  0.77791600  0.77791603  0.66625198  1
