# generated using pymatgen
data_Li5V3O8
_symmetry_space_group_name_H-M   'P 1'
_cell_length_a   5.13730001
_cell_length_b   5.88591051
_cell_length_c   5.88590479
_cell_angle_alpha   60.39122009
_cell_angle_beta   73.19441223
_cell_angle_gamma   73.19461823
_symmetry_Int_Tables_number   1
_chemical_formula_structural   Li5V3O8
_chemical_formula_sum   'Li5 V3 O8'
_cell_volume   145.82177003
_cell_formula_units_Z   1
loop_
 _symmetry_equiv_pos_site_id
 _symmetry_equiv_pos_as_xyz
  1  'x, y, z'
loop_
 _atom_site_type_symbol
 _atom_site_label
 _atom_site_symmetry_multiplicity
 _atom_site_fract_x
 _atom_site_fract_y
 _atom_site_fract_z
 _atom_site_occupancy
  Li  Li0  1  0.00128998  0.50106198  0.50101601  1
  Li  Li1  1  0.99871693  0.99902096  0.99896103  1
  Li  Li2  1  0.00002297  0.99363296  0.50644402  1
  Li  Li3  1  0.00001898  0.50648998  0.99358600  1
  Li  Li4  1  0.50001697  0.24996099  0.25001301  1
  V  V5  1  0.49995397  0.24999699  0.75003801  1
  V  V6  1  0.50001096  0.74999097  0.24997802  1
  V  V7  1  0.49998696  0.74997797  0.74998102  1
  O  O8  1  0.27187097  0.61905397  0.61901001  1
  O  O9  1  0.72813894  0.88091796  0.88087102  1
  O  O10  1  0.27281799  0.12208000  0.12215801  1
  O  O11  1  0.72701096  0.37794298  0.37801902  1
  O  O12  1  0.72567396  0.36377899  0.89637801  1
  O  O13  1  0.72568694  0.89634796  0.36377603  1
  O  O14  1  0.27438299  0.13605599  0.60372500  1
  O  O15  1  0.27439997  0.60368798  0.13604902  1
