# generated using pymatgen
data_Mn2O3F
_symmetry_space_group_name_H-M   'P 1'
_cell_length_a   4.60509872
_cell_length_b   5.96592999
_cell_length_c   7.55532598
_cell_angle_alpha   91.27745819
_cell_angle_beta   90.88273621
_cell_angle_gamma   92.59953308
_symmetry_Int_Tables_number   1
_chemical_formula_structural   Mn2O3F
_chemical_formula_sum   'Mn6 O9 F3'
_cell_volume   207.27958056
_cell_formula_units_Z   3
loop_
 _symmetry_equiv_pos_site_id
 _symmetry_equiv_pos_as_xyz
  1  'x, y, z'
loop_
 _atom_site_type_symbol
 _atom_site_label
 _atom_site_symmetry_multiplicity
 _atom_site_fract_x
 _atom_site_fract_y
 _atom_site_fract_z
 _atom_site_occupancy
  Mn  Mn0  1  0.97371495  0.97295300  0.00009394  1
  Mn  Mn1  1  0.52284997  0.50966500  0.01077697  1
  Mn  Mn2  1  0.02628499  0.36038000  0.66657198  1
  Mn  Mn3  1  0.49999998  0.16666700  0.33333331  1
  Mn  Mn4  1  0.47714997  0.82366800  0.65588895  1
  Mn  Mn5  1  -0.00000001  0.66666667  0.33333331  1
  O  O6  1  0.18740798  0.63772100  0.55363297  1
  O  O7  1  0.81259196  0.69561200  0.11303395  1
  O  O8  1  0.78417197  0.01789800  0.76740196  1
  O  O9  1  0.21582799  0.31543500  0.89926497  1
  O  O10  1  0.29484899  0.15421000  0.55312598  1
  O  O11  1  0.71487996  0.51701000  0.78630595  1
  O  O12  1  0.28511998  0.81632300  0.88036095  1
  O  O13  1  0.79717196  0.35007600  0.44342296  1
  O  O14  1  0.70515097  0.17912300  0.11354097  1
  F  F15  1  0.30553698  0.48986100  0.22595497  1
  F  F16  1  0.69446296  0.84347200  0.44071195  1
  F  F17  1  0.20282798  0.98325700  0.22324396  1
