# generated using pymatgen
data_Nb4Al3Ni5
_symmetry_space_group_name_H-M   'P 1'
_cell_length_a   4.89890003
_cell_length_b   4.90001583
_cell_length_c   8.09226322
_cell_angle_alpha   90.00000000
_cell_angle_beta   90.00000000
_cell_angle_gamma   119.99246979
_symmetry_Int_Tables_number   1
_chemical_formula_structural   Nb4Al3Ni5
_chemical_formula_sum   'Nb4 Al3 Ni5'
_cell_volume   168.24014810
_cell_formula_units_Z   1
loop_
 _symmetry_equiv_pos_site_id
 _symmetry_equiv_pos_as_xyz
  1  'x, y, z'
loop_
 _atom_site_type_symbol
 _atom_site_label
 _atom_site_symmetry_multiplicity
 _atom_site_fract_x
 _atom_site_fract_y
 _atom_site_fract_z
 _atom_site_occupancy
  Nb  Nb0  1  0.67585900  0.35171799  0.81648298  1
  Nb  Nb1  1  0.34041401  0.68082798  0.69541198  1
  Nb  Nb2  1  0.34041401  0.68082798  0.30458799  1
  Nb  Nb3  1  0.67585900  0.35171799  0.18351699  1
  Al  Al4  1  0.15791200  0.31582399  0.99999997  1
  Al  Al5  1  0.83129500  0.16970799  0.49999999  1
  Al  Al6  1  0.33841300  0.16970799  0.49999999  1
  Ni  Ni7  1  0.82692301  0.65384598  0.49999999  1
  Ni  Ni8  1  0.99944301  0.99888596  0.75493398  1
  Ni  Ni9  1  0.99944301  0.99888596  0.24506599  1
  Ni  Ni10  1  0.16246201  0.81422897  0.99999997  1
  Ni  Ni11  1  0.65176701  0.81422897  0.99999997  1
