# generated using pymatgen
data_DyTi2Al9Cr
_symmetry_space_group_name_H-M   'P 1'
_cell_length_a   5.18498611
_cell_length_b   6.80095720
_cell_length_c   6.80095720
_cell_angle_alpha   81.64477539
_cell_angle_beta   67.59225464
_cell_angle_gamma   67.59225464
_symmetry_Int_Tables_number   1
_chemical_formula_structural   DyTi2Al9Cr
_chemical_formula_sum   'Dy1 Ti2 Al9 Cr1'
_cell_volume   204.97285756
_cell_formula_units_Z   1
loop_
 _symmetry_equiv_pos_site_id
 _symmetry_equiv_pos_as_xyz
  1  'x, y, z'
loop_
 _atom_site_type_symbol
 _atom_site_label
 _atom_site_symmetry_multiplicity
 _atom_site_fract_x
 _atom_site_fract_y
 _atom_site_fract_z
 _atom_site_occupancy
  Dy  Dy0  1  0.00000000  0.00000000  0.00000000  1
  Al  Al1  1  0.28452598  0.21547401  0.21547399  1
  Ti  Ti2  1  0.50000000  0.00000000  0.49999999  1
  Al  Al3  1  -0.00000003  0.50000002  -0.00000001  1
  Ti  Ti4  1  0.49999996  0.50000002  -0.00000003  1
  Cr  Cr5  1  0.00000000  0.00000000  0.50000001  1
  Al  Al6  1  0.64612897  0.35387101  0.35387097  1
  Al  Al7  1  -0.00000004  0.64612902  0.35387100  1
  Al  Al8  1  -0.00000002  0.35387101  0.64612901  1
  Al  Al9  1  0.35387095  0.64612902  0.64612899  1
  Al  Al10  1  0.71547394  0.78452603  0.78452597  1
  Al  Al11  1  0.49999998  0.21547401  0.78452599  1
  Al  Al12  1  0.49999995  0.78452603  0.21547397  1
