# generated using pymatgen
data_Li2CaAg
_symmetry_space_group_name_H-M   'P 1'
_cell_length_a   4.98336458
_cell_length_b   4.98336458
_cell_length_c   4.98336458
_cell_angle_alpha   60.00000000
_cell_angle_beta   60.00000000
_cell_angle_gamma   60.00000000
_symmetry_Int_Tables_number   1
_chemical_formula_structural   Li2CaAg
_chemical_formula_sum   'Li2 Ca1 Ag1'
_cell_volume   87.50905337
_cell_formula_units_Z   1
loop_
 _symmetry_equiv_pos_site_id
 _symmetry_equiv_pos_as_xyz
  1  'x, y, z'
loop_
 _atom_site_type_symbol
 _atom_site_label
 _atom_site_symmetry_multiplicity
 _atom_site_fract_x
 _atom_site_fract_y
 _atom_site_fract_z
 _atom_site_occupancy
  Li  Li0  1  0.75000002  0.75000002  0.75000002  1
  Li  Li1  1  0.25000001  0.25000001  0.25000001  1
  Ca  Ca2  1  0.00000000  0.00000000  0.00000000  1
  Ag  Ag3  1  0.50000002  0.50000002  0.50000002  1
