# generated using pymatgen
data_Er2AlFe3
_symmetry_space_group_name_H-M   'P 1'
_cell_length_a   5.26451683
_cell_length_b   5.26451683
_cell_length_c   8.90679169
_cell_angle_alpha   90.00000000
_cell_angle_beta   90.00000000
_cell_angle_gamma   119.95682526
_symmetry_Int_Tables_number   1
_chemical_formula_structural   Er2AlFe3
_chemical_formula_sum   'Er4 Al2 Fe6'
_cell_volume   213.87387708
_cell_formula_units_Z   2
loop_
 _symmetry_equiv_pos_site_id
 _symmetry_equiv_pos_as_xyz
  1  'x, y, z'
loop_
 _atom_site_type_symbol
 _atom_site_label
 _atom_site_symmetry_multiplicity
 _atom_site_fract_x
 _atom_site_fract_y
 _atom_site_fract_z
 _atom_site_occupancy
  Er  Er0  1  0.33328402  0.66666666  0.43349902  1
  Er  Er1  1  0.66666666  0.33328400  0.56650102  1
  Er  Er2  1  0.66666666  0.33328400  0.93349903  1
  Er  Er3  1  0.33328402  0.66666666  0.06650100  1
  Al  Al4  1  0.00000000  0.00000000  0.50000002  1
  Fe  Fe5  1  0.00000000  0.00000000  0.00000000  1
  Al  Al6  1  0.34252100  0.17136800  0.25000001  1
  Fe  Fe7  1  0.82879798  0.17120200  0.25000001  1
  Fe  Fe8  1  0.82863200  0.65747899  0.25000001  1
  Fe  Fe9  1  0.65747902  0.82863199  0.75000003  1
  Fe  Fe10  1  0.17120203  0.82879799  0.75000003  1
  Fe  Fe11  1  0.17136801  0.34252100  0.75000003  1
