# generated using pymatgen
data_Li4CaPdF12
_symmetry_space_group_name_H-M   'P 1'
_cell_length_a   5.20900822
_cell_length_b   5.20900774
_cell_length_c   9.89647007
_cell_angle_alpha   90.00000000
_cell_angle_beta   90.00000000
_cell_angle_gamma   120.00000000
_symmetry_Int_Tables_number   1
_chemical_formula_structural   Li4CaPdF12
_chemical_formula_sum   'Li4 Ca1 Pd1 F12'
_cell_volume   232.55248921
_cell_formula_units_Z   1
loop_
 _symmetry_equiv_pos_site_id
 _symmetry_equiv_pos_as_xyz
  1  'x, y, z'
loop_
 _atom_site_type_symbol
 _atom_site_label
 _atom_site_symmetry_multiplicity
 _atom_site_fract_x
 _atom_site_fract_y
 _atom_site_fract_z
 _atom_site_occupancy
  Ca  Ca0  1  0.66666663  0.33333333  0.25000000  1
  Li  Li1  1  0.33333330  0.66666666  0.74999999  1
  Li  Li2  1  0.00000000  0.00000000  0.50000000  1
  Li  Li3  1  0.00000000  0.00000000  0.00000000  1
  Li  Li4  1  0.33333330  0.66666666  0.25000000  1
  Pd  Pd5  1  0.66666663  0.33333333  0.74999999  1
  F  F6  1  0.34678398  0.36046700  0.36199800  1
  F  F7  1  0.65321595  0.63953300  0.63800200  1
  F  F8  1  0.01368298  0.65321600  0.36199800  1
  F  F9  1  0.34678396  0.98631699  0.13800200  1
  F  F10  1  0.98631695  0.34678400  0.63800200  1
  F  F11  1  0.65321597  0.01368300  0.86199799  1
  F  F12  1  0.63953295  0.98631699  0.36199800  1
  F  F13  1  0.01368299  0.36046700  0.13800200  1
  F  F14  1  0.36046698  0.01368300  0.63800200  1
  F  F15  1  0.98631694  0.63953300  0.86199799  1
  F  F16  1  0.63953296  0.65321600  0.13800200  1
  F  F17  1  0.36046698  0.34678400  0.86199799  1
