# generated using pymatgen
data_BaSi2PRh
_symmetry_space_group_name_H-M   'P 1'
_cell_length_a   4.02258778
_cell_length_b   4.02258778
_cell_length_c   6.80039120
_cell_angle_alpha   107.20320892
_cell_angle_beta   107.20320892
_cell_angle_gamma   90.00000000
_symmetry_Int_Tables_number   1
_chemical_formula_structural   BaSi2PRh
_chemical_formula_sum   'Ba1 Si2 P1 Rh1'
_cell_volume   99.95054007
_cell_formula_units_Z   1
loop_
 _symmetry_equiv_pos_site_id
 _symmetry_equiv_pos_as_xyz
  1  'x, y, z'
loop_
 _atom_site_type_symbol
 _atom_site_label
 _atom_site_symmetry_multiplicity
 _atom_site_fract_x
 _atom_site_fract_y
 _atom_site_fract_z
 _atom_site_occupancy
  Ba  Ba0  1  0.00000000  0.00000000  0.00000000  1
  Si  Si1  1  0.75000005  0.25000002  0.50000001  1
  Si  Si2  1  0.25000003  0.75000005  0.50000001  1
  P  P3  1  0.65376706  0.65376704  0.30753402  1
  Rh  Rh4  1  0.34623303  0.34623302  0.69246600  1
