# generated using pymatgen
data_Sm2Fe17
_symmetry_space_group_name_H-M   'P 1'
_cell_length_a   6.40824366
_cell_length_b   6.40824366
_cell_length_c   6.40824318
_cell_angle_alpha   83.18913269
_cell_angle_beta   83.18913269
_cell_angle_gamma   83.18912506
_symmetry_Int_Tables_number   1
_chemical_formula_structural   Sm2Fe17
_chemical_formula_sum   'Sm2 Fe17'
_cell_volume   257.99488921
_cell_formula_units_Z   1
loop_
 _symmetry_equiv_pos_site_id
 _symmetry_equiv_pos_as_xyz
  1  'x, y, z'
loop_
 _atom_site_type_symbol
 _atom_site_label
 _atom_site_symmetry_multiplicity
 _atom_site_fract_x
 _atom_site_fract_y
 _atom_site_fract_z
 _atom_site_occupancy
  Sm  Sm0  1  0.34082900  0.34082899  0.34082899  1
  Sm  Sm1  1  0.65917099  0.65917098  0.65917098  1
  Fe  Fe2  1  0.00000000  0.00000000  0.50000000  1
  Fe  Fe3  1  0.00000001  0.49999999  1.00000000  1
  Fe  Fe4  1  0.49999999  0.00000000  -0.00000001  1
  Fe  Fe5  1  0.70749798  0.29250199  0.99999999  1
  Fe  Fe6  1  0.29250199  0.00000000  0.70749800  1
  Fe  Fe7  1  0.00000001  0.70749798  0.29250199  1
  Fe  Fe8  1  0.70749798  0.00000000  0.29250199  1
  Fe  Fe9  1  0.00000000  0.29250199  0.70749800  1
  Fe  Fe10  1  0.29250200  0.70749798  -0.00000002  1
  Fe  Fe11  1  0.65651899  0.65651898  0.15437498  1
  Fe  Fe12  1  0.65651898  0.15437500  0.65651899  1
  Fe  Fe13  1  0.15437500  0.65651898  0.65651899  1
  Fe  Fe14  1  0.34348100  0.34348099  0.84562499  1
  Fe  Fe15  1  0.34348100  0.84562498  0.34348098  1
  Fe  Fe16  1  0.84562498  0.34348099  0.34348098  1
  Fe  Fe17  1  0.09638800  0.09638800  0.09638800  1
  Fe  Fe18  1  0.90361199  0.90361197  0.90361198  1
