# generated using pymatgen
data_K5Ag3(AuSe3)2
_symmetry_space_group_name_H-M   'P 1'
_cell_length_a   6.56869411
_cell_length_b   8.63027191
_cell_length_c   11.62938690
_cell_angle_alpha   107.29253387
_cell_angle_beta   90.00000000
_cell_angle_gamma   90.00000000
_symmetry_Int_Tables_number   1
_chemical_formula_structural   K5Ag3(AuSe3)2
_chemical_formula_sum   'K5 Ag3 Au2 Se6'
_cell_volume   629.46637964
_cell_formula_units_Z   1
loop_
 _symmetry_equiv_pos_site_id
 _symmetry_equiv_pos_as_xyz
  1  'x, y, z'
loop_
 _atom_site_type_symbol
 _atom_site_label
 _atom_site_symmetry_multiplicity
 _atom_site_fract_x
 _atom_site_fract_y
 _atom_site_fract_z
 _atom_site_occupancy
  K  K0  1  0.74999999  0.47113400  0.74583198  1
  K  K1  1  0.25000000  0.52886600  0.25416798  1
  K  K2  1  0.25000000  0.03776500  0.85905099  1
  K  K3  1  0.25000000  0.12836800  0.44383499  1
  Ag  Ag4  1  0.74999999  0.96223500  0.14094897  1
  K  K5  1  0.74999999  0.87163200  0.55616496  1
  Ag  Ag6  1  0.74999999  0.01277800  0.78803799  1
  Ag  Ag7  1  0.25000000  0.98722200  0.21196197  1
  Au  Au8  1  0.74999999  0.57441400  0.43247398  1
  Au  Au9  1  0.25000000  0.75841300  0.87531096  1
  Se  Se10  1  0.25000000  0.42558600  0.56752598  1
  Se  Se11  1  0.25000000  0.33702800  0.89929898  1
  Se  Se12  1  0.74999999  0.24158700  0.12468899  1
  Se  Se13  1  0.74999999  0.09802100  0.43803999  1
  Se  Se14  1  0.74999999  0.66297200  0.10070098  1
  Se  Se15  1  0.25000000  0.90197900  0.56195996  1
