# generated using pymatgen
data_Mn3(OF2)2
_symmetry_space_group_name_H-M   'P 1'
_cell_length_a   3.12368107
_cell_length_b   4.71396589
_cell_length_c   14.18244934
_cell_angle_alpha   89.95337677
_cell_angle_beta   90.00000000
_cell_angle_gamma   90.00000000
_symmetry_Int_Tables_number   1
_chemical_formula_structural   Mn3(OF2)2
_chemical_formula_sum   'Mn6 O4 F8'
_cell_volume   208.83544814
_cell_formula_units_Z   2
loop_
 _symmetry_equiv_pos_site_id
 _symmetry_equiv_pos_as_xyz
  1  'x, y, z'
loop_
 _atom_site_type_symbol
 _atom_site_label
 _atom_site_symmetry_multiplicity
 _atom_site_fract_x
 _atom_site_fract_y
 _atom_site_fract_z
 _atom_site_occupancy
  Mn  Mn0  1  0.00000000  0.99766502  0.34107299  1
  Mn  Mn1  1  0.00000000  0.00233500  0.65892702  1
  Mn  Mn2  1  0.49999999  0.50000001  0.50000000  1
  Mn  Mn3  1  0.00000000  0.00000000  0.00000000  1
  Mn  Mn4  1  0.49999999  0.50017101  0.17458500  1
  Mn  Mn5  1  0.49999999  0.49982901  0.82541501  1
  O  O6  1  0.49999999  0.81220802  0.40326600  1
  O  O7  1  0.49999999  0.79224402  0.06846099  1
  F  F8  1  0.49999999  0.80750002  0.72390101  1
  O  O9  1  -0.00000000  0.68692302  0.56361100  1
  F  F10  1  -0.00000000  0.70485402  0.89511501  1
  O  O11  1  -0.00000000  0.71078502  0.24195899  1
  F  F12  1  0.00000000  0.31307701  0.43638901  1
  F  F13  1  -0.00000000  0.29514601  0.10488500  1
  F  F14  1  -0.00000000  0.28921501  0.75804101  1
  F  F15  1  0.49999999  0.18779200  0.59673401  1
  F  F16  1  0.49999999  0.19250000  0.27609900  1
  F  F17  1  0.49999999  0.20775600  0.93153902  1
