# generated using pymatgen
data_MoW(SeS)2
_symmetry_space_group_name_H-M   'P 1'
_cell_length_a   3.25417209
_cell_length_b   3.25417233
_cell_length_c   36.87385559
_cell_angle_alpha   90.00000000
_cell_angle_beta   90.00000000
_cell_angle_gamma   120.00000000
_symmetry_Int_Tables_number   1
_chemical_formula_structural   MoW(SeS)2
_chemical_formula_sum   'Mo2 W2 Se4 S4'
_cell_volume   338.16623717
_cell_formula_units_Z   2
loop_
 _symmetry_equiv_pos_site_id
 _symmetry_equiv_pos_as_xyz
  1  'x, y, z'
loop_
 _atom_site_type_symbol
 _atom_site_label
 _atom_site_symmetry_multiplicity
 _atom_site_fract_x
 _atom_site_fract_y
 _atom_site_fract_z
 _atom_site_occupancy
  Mo  Mo0  1  0.66666667  0.33333335  0.90608096  1
  Mo  Mo1  1  0.66666667  0.33333335  0.53034598  1
  W  W2  1  0.33333337  0.66666669  0.71823897  1
  W  W3  1  0.33333337  0.66666669  0.34246099  1
  Se  Se4  1  0.66666667  0.33333335  0.67215797  1
  Se  Se5  1  0.33333337  0.66666669  0.57637898  1
  Se  Se6  1  0.33333337  0.66666669  0.48423298  1
  Se  Se7  1  0.66666667  0.33333335  0.76428097  1
  S  S8  1  0.66666667  0.33333335  0.30041699  1
  S  S9  1  0.33333337  0.66666669  0.94798896  1
  S  S10  1  0.33333337  0.66666669  0.86416796  1
  S  S11  1  0.66666667  0.33333335  0.38449898  1
