# generated using pymatgen
data_Ta2Be17
_symmetry_space_group_name_H-M   'P 1'
_cell_length_a   5.64684629
_cell_length_b   5.64684629
_cell_length_c   5.64684629
_cell_angle_alpha   82.80314636
_cell_angle_beta   82.80314636
_cell_angle_gamma   82.80315399
_symmetry_Int_Tables_number   1
_chemical_formula_structural   Ta2Be17
_chemical_formula_sum   'Ta2 Be17'
_cell_volume   176.13246599
_cell_formula_units_Z   1
loop_
 _symmetry_equiv_pos_site_id
 _symmetry_equiv_pos_as_xyz
  1  'x, y, z'
loop_
 _atom_site_type_symbol
 _atom_site_label
 _atom_site_symmetry_multiplicity
 _atom_site_fract_x
 _atom_site_fract_y
 _atom_site_fract_z
 _atom_site_occupancy
  Ta  Ta0  1  0.16253399  0.16253400  0.16253400  1
  Ta  Ta1  1  0.83746596  0.83746598  0.83746598  1
  Be  Be2  1  0.40356398  0.40356399  0.40356399  1
  Be  Be3  1  0.59643597  0.59643599  0.59643598  1
  Be  Be4  1  0.49999998  0.49999999  0.99999997  1
  Be  Be5  1  0.49999997  0.99999998  0.49999999  1
  Be  Be6  1  -0.00000001  0.49999999  0.49999999  1
  Be  Be7  1  0.49999997  0.78888598  0.21111399  1
  Be  Be8  1  0.78888598  0.21111400  0.49999999  1
  Be  Be9  1  0.21111399  0.49999999  0.78888598  1
  Be  Be10  1  0.49999998  0.21111400  0.78888598  1
  Be  Be11  1  0.21111398  0.78888598  0.49999999  1
  Be  Be12  1  0.78888597  0.49999999  0.21111399  1
  Be  Be13  1  0.66025298  0.15685700  0.15685699  1
  Be  Be14  1  0.15685699  0.15685700  0.66025298  1
  Be  Be15  1  0.15685698  0.66025299  0.15685700  1
  Be  Be16  1  0.33974698  0.84314298  0.84314298  1
  Be  Be17  1  0.84314296  0.84314298  0.33974699  1
  Be  Be18  1  0.84314297  0.33974699  0.84314298  1
