# generated using pymatgen
data_K3Re3(BO6)2
_symmetry_space_group_name_H-M   'P 1'
_cell_length_a   3.94721103
_cell_length_b   8.88869572
_cell_length_c   8.88869667
_cell_angle_alpha   120.00000000
_cell_angle_beta   90.00000000
_cell_angle_gamma   90.00000000
_symmetry_Int_Tables_number   1
_chemical_formula_structural   K3Re3(BO6)2
_chemical_formula_sum   'K3 Re3 B2 O12'
_cell_volume   270.08290894
_cell_formula_units_Z   1
loop_
 _symmetry_equiv_pos_site_id
 _symmetry_equiv_pos_as_xyz
  1  'x, y, z'
loop_
 _atom_site_type_symbol
 _atom_site_label
 _atom_site_symmetry_multiplicity
 _atom_site_fract_x
 _atom_site_fract_y
 _atom_site_fract_z
 _atom_site_occupancy
  K  K0  1  0.50000000  0.59613303  0.59613300  1
  K  K1  1  0.50000000  0.40386702  0.00000001  1
  K  K2  1  0.50000000  0.00000000  0.40386699  1
  Re  Re3  1  0.99999999  0.24662101  0.24662100  1
  Re  Re4  1  -0.00000000  0.75337904  0.00000002  1
  Re  Re5  1  -0.00000000  0.00000000  0.75337898  1
  B  B6  1  -0.00000000  0.66666670  0.33333334  1
  B  B7  1  0.99999999  0.33333335  0.66666666  1
  O  O8  1  0.99999999  0.18855701  0.68533598  1
  O  O9  1  -0.00000000  0.50322102  0.31466401  1
  O  O10  1  -0.00000000  0.81144304  0.49678001  1
  O  O11  1  0.99999999  0.68533703  0.18855801  1
  O  O12  1  0.99999999  0.49677902  0.81144199  1
  O  O13  1  0.99999999  0.31466301  0.50321999  1
  O  O14  1  0.50000000  0.26305701  0.26305700  1
  O  O15  1  0.50000000  0.73694303  0.00000002  1
  O  O16  1  0.50000000  1.00000005  0.73694301  1
  O  O17  1  0.99999999  0.82099404  0.82099400  1
  O  O18  1  -0.00000000  0.17900601  0.00000001  1
  O  O19  1  -0.00000000  1.00000005  0.17900602  1
