# generated using pymatgen
data_Li5VO6
_symmetry_space_group_name_H-M   'P 1'
_cell_length_a   4.74782324
_cell_length_b   5.55212259
_cell_length_c   5.55212259
_cell_angle_alpha   63.27925873
_cell_angle_beta   87.77589417
_cell_angle_gamma   87.77589417
_symmetry_Int_Tables_number   1
_chemical_formula_structural   Li5VO6
_chemical_formula_sum   'Li5 V1 O6'
_cell_volume   130.59119518
_cell_formula_units_Z   1
loop_
 _symmetry_equiv_pos_site_id
 _symmetry_equiv_pos_as_xyz
  1  'x, y, z'
loop_
 _atom_site_type_symbol
 _atom_site_label
 _atom_site_symmetry_multiplicity
 _atom_site_fract_x
 _atom_site_fract_y
 _atom_site_fract_z
 _atom_site_occupancy
  Li  Li0  1  0.50000002  0.72886398  0.27113604  1
  Li  Li1  1  0.50000001  0.27113599  0.72886402  1
  Li  Li2  1  0.99136301  0.23829399  0.23829405  1
  Li  Li3  1  0.00863702  0.76170598  0.76170601  1
  Li  Li4  1  0.68149600  0.09026500  0.09026503  1
  V  V5  1  0.31850403  0.90973498  0.90973503  1
  O  O6  1  0.70950102  0.60979498  0.60979504  1
  O  O7  1  0.29049901  0.39020499  0.39020502  1
  O  O8  1  0.78398800  0.11777800  0.60198103  1
  O  O9  1  0.21601203  0.88222198  0.39801903  1
  O  O10  1  0.21601201  0.39801899  0.88222201  1
  O  O11  1  0.78398802  0.60198099  0.11777805  1
