# generated using pymatgen
data_V2Ge
_symmetry_space_group_name_H-M   'P 1'
_cell_length_a   4.01758385
_cell_length_b   5.32718897
_cell_length_c   7.73703003
_cell_angle_alpha   90.00000000
_cell_angle_beta   90.00000000
_cell_angle_gamma   90.00000000
_symmetry_Int_Tables_number   1
_chemical_formula_structural   V2Ge
_chemical_formula_sum   'V8 Ge4'
_cell_volume   165.59123085
_cell_formula_units_Z   4
loop_
 _symmetry_equiv_pos_site_id
 _symmetry_equiv_pos_as_xyz
  1  'x, y, z'
loop_
 _atom_site_type_symbol
 _atom_site_label
 _atom_site_symmetry_multiplicity
 _atom_site_fract_x
 _atom_site_fract_y
 _atom_site_fract_z
 _atom_site_occupancy
  V  V0  1  0.25000001  0.29240100  0.89892000  1
  V  V1  1  0.25000001  0.79240100  0.60108000  1
  V  V2  1  0.75000003  0.70759900  0.10108000  1
  V  V3  1  0.75000003  0.20759900  0.39892000  1
  V  V4  1  0.25000001  0.84063500  0.92428500  1
  V  V5  1  0.25000001  0.34063500  0.57571500  1
  V  V6  1  0.75000003  0.15936500  0.07571500  1
  V  V7  1  0.75000003  0.65936500  0.42428500  1
  Ge  Ge8  1  0.25000001  0.97810801  0.30062200  1
  Ge  Ge9  1  0.25000001  0.47810800  0.19937800  1
  Ge  Ge10  1  0.75000003  0.02189200  0.69937800  1
  Ge  Ge11  1  0.75000003  0.52189200  0.80062200  1
