# generated using pymatgen
data_LiVIn2(AsO5)2
_symmetry_space_group_name_H-M   'P 1'
_cell_length_a   5.66172075
_cell_length_b   5.66172075
_cell_length_c   7.20674324
_cell_angle_alpha   103.86067963
_cell_angle_beta   103.86067963
_cell_angle_gamma   106.19156647
_symmetry_Int_Tables_number   1
_chemical_formula_structural   LiVIn2(AsO5)2
_chemical_formula_sum   'Li1 V1 In2 As2 O10'
_cell_volume   203.42987970
_cell_formula_units_Z   1
loop_
 _symmetry_equiv_pos_site_id
 _symmetry_equiv_pos_as_xyz
  1  'x, y, z'
loop_
 _atom_site_type_symbol
 _atom_site_label
 _atom_site_symmetry_multiplicity
 _atom_site_fract_x
 _atom_site_fract_y
 _atom_site_fract_z
 _atom_site_occupancy
  Li  Li0  1  0.16460801  0.82975700  0.24243197  1
  V  V1  1  0.82975700  0.16460800  0.74243197  1
  In  In2  1  0.49702101  0.49534900  0.00047196  1
  In  In3  1  0.49534901  0.49702100  0.50047197  1
  As  As4  1  0.17616401  0.81811300  0.74937898  1
  As  As5  1  0.81811300  0.17616400  0.24937896  1
  O  O6  1  0.75621401  0.87794700  0.07811494  1
  O  O7  1  0.39708001  0.82545000  0.62026996  1
  O  O8  1  0.16915801  0.59720200  0.87918799  1
  O  O9  1  0.23535200  0.11407000  0.92280100  1
  O  O10  1  0.82545001  0.39708000  0.12026995  1
  O  O11  1  0.59720200  0.16915800  0.37918798  1
  O  O12  1  0.87794701  0.75621400  0.57811495  1
  O  O13  1  0.11407000  0.23535200  0.42280099  1
  O  O14  1  0.57708001  0.41243400  0.74954397  1
  O  O15  1  0.41243401  0.57708000  0.24954397  1
