# generated using pymatgen
data_K3YV2O8
_symmetry_space_group_name_H-M   'P 1'
_cell_length_a   5.95860815
_cell_length_b   5.95860815
_cell_length_c   7.28492880
_cell_angle_alpha   90.00000000
_cell_angle_beta   90.00000000
_cell_angle_gamma   120.00000000
_symmetry_Int_Tables_number   1
_chemical_formula_structural   K3YV2O8
_chemical_formula_sum   'K3 Y1 V2 O8'
_cell_volume   223.99875050
_cell_formula_units_Z   1
loop_
 _symmetry_equiv_pos_site_id
 _symmetry_equiv_pos_as_xyz
  1  'x, y, z'
loop_
 _atom_site_type_symbol
 _atom_site_label
 _atom_site_symmetry_multiplicity
 _atom_site_fract_x
 _atom_site_fract_y
 _atom_site_fract_z
 _atom_site_occupancy
  K  K0  1  0.66666665  0.33333333  0.30614401  1
  K  K1  1  0.33333333  0.66666666  0.69385602  1
  K  K2  1  0.00000000  0.00000000  0.00000000  1
  Y  Y3  1  0.00000000  0.00000000  0.50000001  1
  V  V4  1  0.66666665  0.33333333  0.77577302  1
  V  V5  1  0.33333333  0.66666666  0.22422701  1
  O  O6  1  0.66666665  0.33333333  0.00639600  1
  O  O7  1  0.33333333  0.66666666  0.99360403  1
  O  O8  1  0.82631499  0.65263000  0.69064402  1
  O  O9  1  0.17368500  0.34737000  0.30935601  1
  O  O10  1  0.82631498  0.17368600  0.69064402  1
  O  O11  1  0.17368500  0.82631400  0.30935601  1
  O  O12  1  0.34737099  0.17368600  0.69064402  1
  O  O13  1  0.65262899  0.82631400  0.30935601  1
