# generated using pymatgen
data_Li4Y(PdS2)2
_symmetry_space_group_name_H-M   'P 1'
_cell_length_a   5.83242226
_cell_length_b   5.83242226
_cell_length_c   8.73922253
_cell_angle_alpha   70.50696564
_cell_angle_beta   70.50696564
_cell_angle_gamma   59.99999619
_symmetry_Int_Tables_number   1
_chemical_formula_structural   Li4Y(PdS2)2
_chemical_formula_sum   'Li4 Y1 Pd2 S4'
_cell_volume   237.57567972
_cell_formula_units_Z   1
loop_
 _symmetry_equiv_pos_site_id
 _symmetry_equiv_pos_as_xyz
  1  'x, y, z'
loop_
 _atom_site_type_symbol
 _atom_site_label
 _atom_site_symmetry_multiplicity
 _atom_site_fract_x
 _atom_site_fract_y
 _atom_site_fract_z
 _atom_site_occupancy
  Li  Li0  1  0.33333333  0.33333334  0.00000001  1
  Li  Li1  1  0.66666667  0.66666667  0.00000002  1
  Li  Li2  1  0.00000000  0.00000000  0.00000000  1
  Li  Li3  1  0.16662300  0.16662300  0.50013098  1
  Y  Y4  1  0.83337700  0.83337701  0.49986900  1
  Pd  Pd5  1  0.73025400  0.39759200  0.80750898  1
  S  S6  1  0.39759200  0.06464500  0.80750897  1
  S  S7  1  0.06464500  0.73025401  0.80750897  1
  Pd  Pd8  1  0.60240800  0.26974600  0.19249101  1
  S  S9  1  0.26974600  0.93535501  0.19249101  1
  S  S10  1  0.93535500  0.60240801  0.19249102  1
