# generated using pymatgen
data_Sr(ZrGa)2
_symmetry_space_group_name_H-M   'P 1'
_cell_length_a   4.49359179
_cell_length_b   7.81685925
_cell_length_c   9.46235943
_cell_angle_alpha   114.11655426
_cell_angle_beta   103.73583221
_cell_angle_gamma   90.00000000
_symmetry_Int_Tables_number   1
_chemical_formula_structural   Sr(ZrGa)2
_chemical_formula_sum   'Sr2 Zr4 Ga4'
_cell_volume   292.91641336
_cell_formula_units_Z   2
loop_
 _symmetry_equiv_pos_site_id
 _symmetry_equiv_pos_as_xyz
  1  'x, y, z'
loop_
 _atom_site_type_symbol
 _atom_site_label
 _atom_site_symmetry_multiplicity
 _atom_site_fract_x
 _atom_site_fract_y
 _atom_site_fract_z
 _atom_site_occupancy
  Sr  Sr0  1  0.49288706  0.49224801  0.98577404  1
  Sr  Sr1  1  0.99529912  0.99700901  0.99059807  1
  Zr  Zr2  1  0.19494304  0.51721601  0.38988602  1
  Zr  Zr3  1  0.32242707  0.97444501  0.64485404  1
  Zr  Zr4  1  0.81673708  0.49850201  0.63347405  1
  Zr  Zr5  1  0.68706504  0.03189200  0.37413003  1
  Ga  Ga6  1  0.36764706  0.69730701  0.73529404  1
  Ga  Ga7  1  0.84840506  0.18684800  0.69681004  1
  Ga  Ga8  1  0.63196406  0.30046500  0.26392803  1
  Ga  Ga9  1  0.13672205  0.80406901  0.27344402  1
