# generated using pymatgen
data_AlCl2
_symmetry_space_group_name_H-M   'P 1'
_cell_length_a   3.18023849
_cell_length_b   3.18023849
_cell_length_c   7.74091244
_cell_angle_alpha   78.14605713
_cell_angle_beta   78.14605713
_cell_angle_gamma   59.99998856
_symmetry_Int_Tables_number   1
_chemical_formula_structural   AlCl2
_chemical_formula_sum   'Al1 Cl2'
_cell_volume   65.86699909
_cell_formula_units_Z   1
loop_
 _symmetry_equiv_pos_site_id
 _symmetry_equiv_pos_as_xyz
  1  'x, y, z'
loop_
 _atom_site_type_symbol
 _atom_site_label
 _atom_site_symmetry_multiplicity
 _atom_site_fract_x
 _atom_site_fract_y
 _atom_site_fract_z
 _atom_site_occupancy
  Al  Al0  1  0.00000000  0.00000000  0.00000000  1
  Cl  Cl1  1  0.39875998  0.39876000  0.80372000  1
  Cl  Cl2  1  0.60123997  0.60124001  0.19628000  1
