# generated using pymatgen
data_Fe4Ni3P5
_symmetry_space_group_name_H-M   'P 1'
_cell_length_a   3.67162991
_cell_length_b   5.24639177
_cell_length_c   6.94890308
_cell_angle_alpha   90.00000000
_cell_angle_beta   90.00000000
_cell_angle_gamma   90.00000000
_symmetry_Int_Tables_number   1
_chemical_formula_structural   Fe4Ni3P5
_chemical_formula_sum   'Fe4 Ni3 P5'
_cell_volume   133.85539239
_cell_formula_units_Z   1
loop_
 _symmetry_equiv_pos_site_id
 _symmetry_equiv_pos_as_xyz
  1  'x, y, z'
loop_
 _atom_site_type_symbol
 _atom_site_label
 _atom_site_symmetry_multiplicity
 _atom_site_fract_x
 _atom_site_fract_y
 _atom_site_fract_z
 _atom_site_occupancy
  Fe  Fe0  1  0.25000001  0.03873300  0.30246300  1
  Fe  Fe1  1  0.25000001  0.53873302  0.19753700  1
  Fe  Fe2  1  0.75000002  0.96126704  0.69753699  1
  Fe  Fe3  1  0.75000002  0.46126702  0.80246299  1
  P  P4  1  0.25000001  0.22745001  0.61875299  1
  Ni  Ni5  1  0.25000001  0.72745003  0.88124699  1
  P  P6  1  0.75000002  0.77255003  0.38124700  1
  Ni  Ni7  1  0.75000002  0.27255001  0.11875300  1
  Ni  Ni8  1  0.25000001  0.15661501  0.94171599  1
  P  P9  1  0.25000001  0.65661503  0.55828399  1
  P  P10  1  0.75000002  0.84338504  0.05828400  1
  P  P11  1  0.75000002  0.34338501  0.44171599  1
