# generated using pymatgen
data_Sr2Ho2(CuO3)3
_symmetry_space_group_name_H-M   'P 1'
_cell_length_a   3.80617595
_cell_length_b   3.80617595
_cell_length_c   15.12827206
_cell_angle_alpha   97.18295288
_cell_angle_beta   97.18295288
_cell_angle_gamma   90.34558105
_symmetry_Int_Tables_number   1
_chemical_formula_structural   Sr2Ho2(CuO3)3
_chemical_formula_sum   'Sr2 Ho2 Cu3 O9'
_cell_volume   215.68413640
_cell_formula_units_Z   1
loop_
 _symmetry_equiv_pos_site_id
 _symmetry_equiv_pos_as_xyz
  1  'x, y, z'
loop_
 _atom_site_type_symbol
 _atom_site_label
 _atom_site_symmetry_multiplicity
 _atom_site_fract_x
 _atom_site_fract_y
 _atom_site_fract_z
 _atom_site_occupancy
  Sr  Sr0  1  0.41022800  0.42029299  0.83052099  1
  Sr  Sr1  1  0.57970700  0.58977198  0.16947900  1
  Ho  Ho2  1  0.29666900  0.29813099  0.59479999  1
  Ho  Ho3  1  0.70186900  0.70333098  0.40520000  1
  Cu  Cu4  1  0.96192997  0.03807000  0.00000000  1
  Cu  Cu5  1  0.85066599  0.85347097  0.70413699  1
  Cu  Cu6  1  0.14652900  0.14933400  0.29586300  1
  O  O7  1  0.84837698  0.35101299  0.69928399  1
  O  O8  1  0.34827101  0.85090697  0.69928399  1
  O  O9  1  0.14909301  0.65172898  0.30071600  1
  O  O10  1  0.64898698  0.15162300  0.30071600  1
  O  O11  1  0.92959899  0.92806497  0.85766399  1
  O  O12  1  0.07193500  0.07040100  0.14233600  1
  O  O13  1  0.77949600  0.78032898  0.55982500  1
  O  O14  1  0.21967100  0.22050399  0.44017500  1
  O  O15  1  0.52197300  0.47802699  0.00000000  1
