# generated using pymatgen
data_Sr7Bi11
_symmetry_space_group_name_H-M   'P 1'
_cell_length_a   8.16615582
_cell_length_b   8.17236805
_cell_length_c   12.94915867
_cell_angle_alpha   71.60562134
_cell_angle_beta   90.00000000
_cell_angle_gamma   90.00000000
_symmetry_Int_Tables_number   1
_chemical_formula_structural   Sr7Bi11
_chemical_formula_sum   'Sr7 Bi11'
_cell_volume   820.03194528
_cell_formula_units_Z   1
loop_
 _symmetry_equiv_pos_site_id
 _symmetry_equiv_pos_as_xyz
  1  'x, y, z'
loop_
 _atom_site_type_symbol
 _atom_site_label
 _atom_site_symmetry_multiplicity
 _atom_site_fract_x
 _atom_site_fract_y
 _atom_site_fract_z
 _atom_site_occupancy
  Sr  Sr0  1  0.50000001  0.00000000  -0.00000000  1
  Sr  Sr1  1  0.00000000  0.50000000  0.00000000  1
  Sr  Sr2  1  0.00000000  0.16797300  0.66405400  1
  Sr  Sr3  1  0.50000001  0.33202700  0.33594600  1
  Sr  Sr4  1  1.00000002  0.83202699  0.33594600  1
  Sr  Sr5  1  0.50000001  0.66797300  0.66405400  1
  Bi  Bi6  1  0.75071602  0.15966000  0.17388600  1
  Sr  Sr7  1  0.25000001  0.98323299  0.50000000  1
  Bi  Bi8  1  0.25071601  0.16645400  0.17388600  1
  Bi  Bi9  1  0.74928402  0.65966000  0.17388600  1
  Bi  Bi10  1  0.75071602  0.33354600  0.82611400  1
  Bi  Bi11  1  0.75000002  0.51676700  0.50000000  1
  Bi  Bi12  1  0.25000001  0.48323300  0.50000000  1
  Bi  Bi13  1  0.25071601  0.34034000  0.82611400  1
  Bi  Bi14  1  0.24928401  0.66645400  0.17388600  1
  Bi  Bi15  1  0.74928402  0.83354599  0.82611400  1
  Bi  Bi16  1  0.75000002  0.01676700  0.50000000  1
  Bi  Bi17  1  0.24928401  0.84033999  0.82611400  1
