# generated using pymatgen
data_Sc4MnBiS4
_symmetry_space_group_name_H-M   'P 1'
_cell_length_a   3.81992865
_cell_length_b   3.81992865
_cell_length_c   15.76422882
_cell_angle_alpha   83.04105377
_cell_angle_beta   83.04105377
_cell_angle_gamma   59.99998856
_symmetry_Int_Tables_number   1
_chemical_formula_structural   Sc4MnBiS4
_chemical_formula_sum   'Sc4 Mn1 Bi1 S4'
_cell_volume   197.25207480
_cell_formula_units_Z   1
loop_
 _symmetry_equiv_pos_site_id
 _symmetry_equiv_pos_as_xyz
  1  'x, y, z'
loop_
 _atom_site_type_symbol
 _atom_site_label
 _atom_site_symmetry_multiplicity
 _atom_site_fract_x
 _atom_site_fract_y
 _atom_site_fract_z
 _atom_site_occupancy
  Sc  Sc0  1  0.60001297  0.60001300  0.19996101  1
  Sc  Sc1  1  0.20009899  0.20009900  0.39970300  1
  Sc  Sc2  1  0.79990096  0.79990100  0.60029701  1
  Sc  Sc3  1  0.39998698  0.39998700  0.80003900  1
  Mn  Mn4  1  0.00000000  0.00000000  0.00000000  1
  Bi  Bi5  1  0.69851196  0.69851200  0.90446400  1
  S  S6  1  0.09907899  0.09907900  0.70276300  1
  S  S7  1  0.49999997  0.50000000  0.50000000  1
  S  S8  1  0.30148798  0.30148800  0.09553600  1
  S  S9  1  0.90092095  0.90092100  0.29723701  1
