# generated using pymatgen
data_Na5Mn3N4
_symmetry_space_group_name_H-M   'P 1'
_cell_length_a   5.42960596
_cell_length_b   5.42960596
_cell_length_c   7.38198423
_cell_angle_alpha   90.00000000
_cell_angle_beta   90.00000000
_cell_angle_gamma   90.00000000
_symmetry_Int_Tables_number   1
_chemical_formula_structural   Na5Mn3N4
_chemical_formula_sum   'Na5 Mn3 N4'
_cell_volume   217.62547861
_cell_formula_units_Z   1
loop_
 _symmetry_equiv_pos_site_id
 _symmetry_equiv_pos_as_xyz
  1  'x, y, z'
loop_
 _atom_site_type_symbol
 _atom_site_label
 _atom_site_symmetry_multiplicity
 _atom_site_fract_x
 _atom_site_fract_y
 _atom_site_fract_z
 _atom_site_occupancy
  Na  Na0  1  0.00000000  0.50000000  0.74999998  1
  Na  Na1  1  0.00000000  0.50000000  0.24999999  1
  Na  Na2  1  0.50000000  0.00000000  0.24999999  1
  Na  Na3  1  0.50000000  0.00000000  0.74999998  1
  Mn  Mn4  1  0.00000000  0.00000000  0.49999998  1
  Na  Na5  1  0.50000000  0.50000000  0.00000000  1
  Mn  Mn6  1  0.50000000  0.50000000  0.49999998  1
  Mn  Mn7  1  0.00000000  0.00000000  0.00000000  1
  N  N8  1  0.73527001  0.73527001  0.49999998  1
  N  N9  1  0.76473001  0.23527000  0.00000000  1
  N  N10  1  0.26473000  0.26473000  0.49999998  1
  N  N11  1  0.23527000  0.76473001  0.00000000  1
