# generated using pymatgen
data_ErGa2
_symmetry_space_group_name_H-M   'P 1'
_cell_length_a   4.53126383
_cell_length_b   4.53126335
_cell_length_c   15.57300758
_cell_angle_alpha   90.00000000
_cell_angle_beta   90.00000000
_cell_angle_gamma   120.00000763
_symmetry_Int_Tables_number   1
_chemical_formula_structural   ErGa2
_chemical_formula_sum   'Er4 Ga8'
_cell_volume   276.91198081
_cell_formula_units_Z   4
loop_
 _symmetry_equiv_pos_site_id
 _symmetry_equiv_pos_as_xyz
  1  'x, y, z'
loop_
 _atom_site_type_symbol
 _atom_site_label
 _atom_site_symmetry_multiplicity
 _atom_site_fract_x
 _atom_site_fract_y
 _atom_site_fract_z
 _atom_site_occupancy
  Er  Er0  1  0.00000000  0.00000000  0.75000002  1
  Er  Er1  1  0.00000000  0.00000000  0.25000001  1
  Er  Er2  1  0.00000000  0.00000000  0.00000000  1
  Er  Er3  1  0.00000000  0.00000000  0.50000001  1
  Ga  Ga4  1  0.66666671  0.33333334  0.84152202  1
  Ga  Ga5  1  0.33333339  0.66666669  0.15847800  1
  Ga  Ga6  1  0.33333339  0.66666669  0.34152201  1
  Ga  Ga7  1  0.66666671  0.33333334  0.65847802  1
  Ga  Ga8  1  0.66666671  0.33333334  0.38850901  1
  Ga  Ga9  1  0.33333339  0.66666669  0.61149102  1
  Ga  Ga10  1  0.33333339  0.66666669  0.88850902  1
  Ga  Ga11  1  0.66666671  0.33333334  0.11149100  1
