# generated using pymatgen
data_DyGa3Ni2
_symmetry_space_group_name_H-M   'P 1'
_cell_length_a   4.08261824
_cell_length_b   9.14573574
_cell_length_c   9.14573669
_cell_angle_alpha   120.00000000
_cell_angle_beta   90.00000000
_cell_angle_gamma   90.00000000
_symmetry_Int_Tables_number   1
_chemical_formula_structural   DyGa3Ni2
_chemical_formula_sum   'Dy3 Ga9 Ni6'
_cell_volume   295.73773704
_cell_formula_units_Z   3
loop_
 _symmetry_equiv_pos_site_id
 _symmetry_equiv_pos_as_xyz
  1  'x, y, z'
loop_
 _atom_site_type_symbol
 _atom_site_label
 _atom_site_symmetry_multiplicity
 _atom_site_fract_x
 _atom_site_fract_y
 _atom_site_fract_z
 _atom_site_occupancy
  Dy  Dy0  1  0.49999997  0.66666669  0.33333333  1
  Dy  Dy1  1  0.49999997  0.33333335  0.66666664  1
  Dy  Dy2  1  0.00000000  0.00000000  0.00000000  1
  Ga  Ga3  1  -0.00000000  0.50000002  0.49999998  1
  Ga  Ga4  1  0.00000000  0.00000000  0.49999998  1
  Ga  Ga5  1  -0.00000000  0.50000002  0.00000001  1
  Ga  Ga6  1  0.49999997  0.70338903  0.70338898  1
  Ga  Ga7  1  0.49999997  0.29661101  0.29661099  1
  Ga  Ga8  1  0.49999997  0.00000000  0.29661099  1
  Ga  Ga9  1  0.49999997  0.00000000  0.70338897  1
  Ga  Ga10  1  0.49999997  0.29661101  0.00000001  1
  Ga  Ga11  1  0.49999997  0.70338903  0.00000001  1
  Ni  Ni12  1  0.99999994  0.81859603  0.18140501  1
  Ni  Ni13  1  -0.00000000  0.18140401  0.81859496  1
  Ni  Ni14  1  -0.00000000  0.36280901  0.18140500  1
  Ni  Ni15  1  -0.00000000  0.63719102  0.81859497  1
  Ni  Ni16  1  0.99999994  0.81859603  0.63719198  1
  Ni  Ni17  1  -0.00000000  0.18140401  0.36280799  1
