# generated using pymatgen
data_LiSmFe16Co
_symmetry_space_group_name_H-M   'P 1'
_cell_length_a   6.35945988
_cell_length_b   6.35946035
_cell_length_c   6.35946035
_cell_angle_alpha   83.56764984
_cell_angle_beta   83.56764984
_cell_angle_gamma   83.56764984
_symmetry_Int_Tables_number   1
_chemical_formula_structural   LiSmFe16Co
_chemical_formula_sum   'Li1 Sm1 Fe16 Co1'
_cell_volume   252.67391231
_cell_formula_units_Z   1
loop_
 _symmetry_equiv_pos_site_id
 _symmetry_equiv_pos_as_xyz
  1  'x, y, z'
loop_
 _atom_site_type_symbol
 _atom_site_label
 _atom_site_symmetry_multiplicity
 _atom_site_fract_x
 _atom_site_fract_y
 _atom_site_fract_z
 _atom_site_occupancy
  Sm  Sm0  1  0.34771799  0.34771798  0.34771802  1
  Li  Li1  1  0.65609999  0.65609997  0.65610003  1
  Fe  Fe2  1  0.99901797  0.28875199  0.71016202  1
  Fe  Fe3  1  0.71016199  0.99901796  0.28875206  1
  Fe  Fe4  1  0.28875200  0.71016197  0.99901801  1
  Fe  Fe5  1  0.28875201  0.99901796  0.71016203  1
  Fe  Fe6  1  0.71016198  0.28875199  0.99901800  1
  Fe  Fe7  1  0.99901798  0.71016197  0.28875205  1
  Fe  Fe8  1  0.15204501  0.65574997  0.65575001  1
  Fe  Fe9  1  0.65574998  0.15204499  0.65575000  1
  Fe  Fe10  1  0.65574999  0.65574997  0.15204505  1
  Fe  Fe11  1  0.84168198  0.35053198  0.35053203  1
  Fe  Fe12  1  0.35053200  0.84168196  0.35053204  1
  Fe  Fe13  1  0.35053199  0.35053198  0.84168200  1
  Fe  Fe14  1  0.51221800  0.99384396  0.99384403  1
  Fe  Fe15  1  0.99384397  0.51221798  0.99384402  1
  Fe  Fe16  1  0.99384398  0.99384396  0.51221806  1
  Fe  Fe17  1  0.89194599  0.89194596  0.89194604  1
  Co  Co18  1  0.10217400  0.10217400  0.10217400  1
