# generated using pymatgen
data_MnCu2Se5
_symmetry_space_group_name_H-M   'P 1'
_cell_length_a   4.89455700
_cell_length_b   4.89455700
_cell_length_c   6.07905388
_cell_angle_alpha   113.74009705
_cell_angle_beta   113.74009705
_cell_angle_gamma   89.99816132
_symmetry_Int_Tables_number   1
_chemical_formula_structural   MnCu2Se5
_chemical_formula_sum   'Mn1 Cu2 Se5'
_cell_volume   119.72633186
_cell_formula_units_Z   1
loop_
 _symmetry_equiv_pos_site_id
 _symmetry_equiv_pos_as_xyz
  1  'x, y, z'
loop_
 _atom_site_type_symbol
 _atom_site_label
 _atom_site_symmetry_multiplicity
 _atom_site_fract_x
 _atom_site_fract_y
 _atom_site_fract_z
 _atom_site_occupancy
  Mn  Mn0  1  0.25171398  0.74828601  0.49999998  1
  Cu  Cu1  1  0.75171401  0.24828600  0.49999998  1
  Cu  Cu2  1  0.50127800  0.49872201  0.99999997  1
  Se  Se3  1  0.99946802  0.00053200  -0.00000000  1
  Se  Se4  1  0.00050699  0.48434201  0.99999997  1
  Se  Se5  1  0.79966399  0.79593701  0.59560098  1
  Se  Se6  1  0.51565798  0.99949301  -0.00000001  1
  Se  Se7  1  0.20406300  0.20033600  0.40439899  1
