# generated using pymatgen
data_ZnSe
_symmetry_space_group_name_H-M   'P 1'
_cell_length_a   4.42479563
_cell_length_b   4.42479563
_cell_length_c   7.67194033
_cell_angle_alpha   73.23928833
_cell_angle_beta   73.23928833
_cell_angle_gamma   60.00000000
_symmetry_Int_Tables_number   1
_chemical_formula_structural   ZnSe
_chemical_formula_sum   'Zn2 Se2'
_cell_volume   122.65983353
_cell_formula_units_Z   2
loop_
 _symmetry_equiv_pos_site_id
 _symmetry_equiv_pos_as_xyz
  1  'x, y, z'
loop_
 _atom_site_type_symbol
 _atom_site_label
 _atom_site_symmetry_multiplicity
 _atom_site_fract_x
 _atom_site_fract_y
 _atom_site_fract_z
 _atom_site_occupancy
  Zn  Zn0  1  0.99458302  0.99458401  0.01624997  1
  Zn  Zn1  1  0.50590401  0.50590400  0.48228799  1
  Se  Se2  1  0.12373400  0.12373300  0.62879900  1
  Se  Se3  1  0.62577901  0.62578000  0.12266198  1
