# generated using pymatgen
data_Mn2CoNiAs4
_symmetry_space_group_name_H-M   'P 1'
_cell_length_a   3.46857500
_cell_length_b   5.26278496
_cell_length_c   5.92296028
_cell_angle_alpha   89.77639771
_cell_angle_beta   90.00000000
_cell_angle_gamma   90.00000000
_symmetry_Int_Tables_number   1
_chemical_formula_structural   Mn2CoNiAs4
_chemical_formula_sum   'Mn2 Co1 Ni1 As4'
_cell_volume   108.11905160
_cell_formula_units_Z   1
loop_
 _symmetry_equiv_pos_site_id
 _symmetry_equiv_pos_as_xyz
  1  'x, y, z'
loop_
 _atom_site_type_symbol
 _atom_site_label
 _atom_site_symmetry_multiplicity
 _atom_site_fract_x
 _atom_site_fract_y
 _atom_site_fract_z
 _atom_site_occupancy
  Mn  Mn0  1  0.50000000  0.99962101  0.20010101  1
  Mn  Mn1  1  0.00000000  0.49666800  0.70660299  1
  Co  Co2  1  -0.00000000  0.99721801  0.79927200  1
  Ni  Ni3  1  0.50000000  0.50283600  0.29932600  1
  As  As4  1  0.50000000  0.70746501  0.90817399  1
  As  As5  1  0.50000000  0.19596100  0.58690799  1
  As  As6  1  0.00000000  0.29170200  0.07940400  1
  As  As7  1  -0.00000000  0.80852801  0.42021100  1
