# generated using pymatgen
data_Ho2Si4C
_symmetry_space_group_name_H-M   'P 1'
_cell_length_a   3.90618205
_cell_length_b   5.60314751
_cell_length_c   5.60855055
_cell_angle_alpha   73.12718964
_cell_angle_beta   69.62062836
_cell_angle_gamma   69.60010529
_symmetry_Int_Tables_number   1
_chemical_formula_structural   Ho2Si4C
_chemical_formula_sum   'Ho2 Si4 C1'
_cell_volume   105.84277418
_cell_formula_units_Z   1
loop_
 _symmetry_equiv_pos_site_id
 _symmetry_equiv_pos_as_xyz
  1  'x, y, z'
loop_
 _atom_site_type_symbol
 _atom_site_label
 _atom_site_symmetry_multiplicity
 _atom_site_fract_x
 _atom_site_fract_y
 _atom_site_fract_z
 _atom_site_occupancy
  Ho  Ho0  1  0.44062098  0.82602501  0.29273304  1
  Ho  Ho1  1  0.55937900  0.17397500  0.70726699  1
  Si  Si2  1  0.79786599  0.30728600  0.09698200  1
  Si  Si3  1  0.20213399  0.69271401  0.90301803  1
  Si  Si4  1  0.84059799  0.60602701  0.71277701  1
  Si  Si5  1  0.15940199  0.39397301  0.28722302  1
  C  C6  1  0.00000000  0.00000000  0.00000000  1
