# generated using pymatgen
data_BaYCo2O5
_symmetry_space_group_name_H-M   'P 1'
_cell_length_a   3.93670630
_cell_length_b   7.83677387
_cell_length_c   8.70712185
_cell_angle_alpha   116.66857147
_cell_angle_beta   89.92828369
_cell_angle_gamma   89.98146820
_symmetry_Int_Tables_number   1
_chemical_formula_structural   BaYCo2O5
_chemical_formula_sum   'Ba2 Y2 Co4 O10'
_cell_volume   240.04693870
_cell_formula_units_Z   2
loop_
 _symmetry_equiv_pos_site_id
 _symmetry_equiv_pos_as_xyz
  1  'x, y, z'
loop_
 _atom_site_type_symbol
 _atom_site_label
 _atom_site_symmetry_multiplicity
 _atom_site_fract_x
 _atom_site_fract_y
 _atom_site_fract_z
 _atom_site_occupancy
  Ba  Ba0  1  0.00416800  0.00715300  0.01498800  1
  Ba  Ba1  1  0.99988902  0.49926602  0.00782101  1
  Y  Y2  1  0.00174501  0.24649201  0.49158300  1
  Y  Y3  1  0.99924903  0.74594603  0.49113602  1
  Co  Co4  1  0.49934400  0.11654401  0.73506399  1
  Co  Co5  1  0.50075902  0.61761703  0.73366001  1
  Co  Co6  1  0.50882301  0.38227502  0.26322501  1
  Co  Co7  1  0.49922403  0.87651804  0.25817703  1
  O  O8  1  0.49464901  0.24866201  0.99881899  1
  O  O9  1  0.50001303  0.75033503  0.99876401  1
  O  O10  1  0.99913103  0.91590304  0.32843403  1
  O  O11  1  0.99627401  0.40679302  0.31205400  1
  O  O12  1  0.49876001  0.16858201  0.31710800  1
  O  O13  1  0.49759102  0.65066803  0.31493202  1
  O  O14  1  0.99952600  0.09689300  0.69422998  1
  O  O15  1  0.00078202  0.59358303  0.68663602  1
  O  O16  1  0.50034701  0.33864101  0.67843800  1
  O  O17  1  0.49972703  0.83812804  0.67493402  1
