# generated using pymatgen
data_BaS
_symmetry_space_group_name_H-M   'P 1'
_cell_length_a   6.20900583
_cell_length_b   8.00021362
_cell_length_c   8.00021362
_cell_angle_alpha   120.00000000
_cell_angle_beta   90.00000000
_cell_angle_gamma   90.00000000
_symmetry_Int_Tables_number   1
_chemical_formula_structural   BaS
_chemical_formula_sum   'Ba6 S6'
_cell_volume   344.15641333
_cell_formula_units_Z   6
loop_
 _symmetry_equiv_pos_site_id
 _symmetry_equiv_pos_as_xyz
  1  'x, y, z'
loop_
 _atom_site_type_symbol
 _atom_site_label
 _atom_site_symmetry_multiplicity
 _atom_site_fract_x
 _atom_site_fract_y
 _atom_site_fract_z
 _atom_site_occupancy
  Ba  Ba0  1  0.50000001  0.65823102  -0.00000003  1
  Ba  Ba1  1  0.50000001  0.34176901  0.34176898  1
  Ba  Ba2  1  0.50000001  1.00000003  0.65823095  1
  Ba  Ba3  1  -0.00000000  0.32535301  -0.00000001  1
  Ba  Ba4  1  1.00000003  0.67464702  0.67464696  1
  Ba  Ba5  1  -0.00000000  1.00000003  0.32535296  1
  S  S6  1  0.27221101  0.00000000  -0.00000000  1
  S  S7  1  0.72778902  0.00000000  -0.00000000  1
  S  S8  1  0.23334501  0.33333334  0.66666664  1
  S  S9  1  0.76665502  0.33333334  0.66666664  1
  S  S10  1  0.23334501  0.66666669  0.33333330  1
  S  S11  1  0.76665502  0.66666669  0.33333330  1
