# generated using pymatgen
data_Li3MnO4
_symmetry_space_group_name_H-M   'P 1'
_cell_length_a   4.40566349
_cell_length_b   4.40566969
_cell_length_c   5.37987804
_cell_angle_alpha   66.20553589
_cell_angle_beta   66.20518494
_cell_angle_gamma   90.50234985
_symmetry_Int_Tables_number   1
_chemical_formula_structural   Li3MnO4
_chemical_formula_sum   'Li3 Mn1 O4'
_cell_volume   85.57003500
_cell_formula_units_Z   1
loop_
 _symmetry_equiv_pos_site_id
 _symmetry_equiv_pos_as_xyz
  1  'x, y, z'
loop_
 _atom_site_type_symbol
 _atom_site_label
 _atom_site_symmetry_multiplicity
 _atom_site_fract_x
 _atom_site_fract_y
 _atom_site_fract_z
 _atom_site_occupancy
  Li  Li0  1  0.50102999  0.49897003  0.00000002  1
  Li  Li1  1  0.24897099  0.75103004  0.50000000  1
  Li  Li2  1  0.00103199  0.99896705  -0.00000001  1
  Mn  Mn3  1  0.74896700  0.25103301  0.50000004  1
  O  O4  1  0.74867299  0.75133304  0.49999303  1
  O  O5  1  0.50133299  0.99867305  0.99999301  1
  O  O6  1  0.24866700  0.25132701  0.50000701  1
  O  O7  1  0.00132800  0.49866703  0.00000699  1
