# generated using pymatgen
data_K2GeO3
_symmetry_space_group_name_H-M   'P 1'
_cell_length_a   5.05228519
_cell_length_b   5.05228519
_cell_length_c   5.05466223
_cell_angle_alpha   90.00000000
_cell_angle_beta   90.00000000
_cell_angle_gamma   90.00000000
_symmetry_Int_Tables_number   1
_chemical_formula_structural   K2GeO3
_chemical_formula_sum   'K2 Ge1 O3'
_cell_volume   129.02321380
_cell_formula_units_Z   1
loop_
 _symmetry_equiv_pos_site_id
 _symmetry_equiv_pos_as_xyz
  1  'x, y, z'
loop_
 _atom_site_type_symbol
 _atom_site_label
 _atom_site_symmetry_multiplicity
 _atom_site_fract_x
 _atom_site_fract_y
 _atom_site_fract_z
 _atom_site_occupancy
  K  K0  1  0.00000000  0.00000000  0.00000000  1
  K  K1  1  0.49999998  0.49999998  0.49999998  1
  Ge  Ge2  1  0.36258399  0.36258399  -0.00000000  1
  O  O3  1  0.63741598  0.63741598  -0.00000000  1
  O  O4  1  0.86258397  0.13741599  0.49999998  1
  O  O5  1  0.13741599  0.86258397  0.49999998  1
