# generated using pymatgen
data_Sr3RuO6
_symmetry_space_group_name_H-M   'P 1'
_cell_length_a   5.64557314
_cell_length_b   5.66193962
_cell_length_c   8.03958797
_cell_angle_alpha   89.46092987
_cell_angle_beta   89.74176788
_cell_angle_gamma   88.83931732
_symmetry_Int_Tables_number   1
_chemical_formula_structural   Sr3RuO6
_chemical_formula_sum   'Sr6 Ru2 O12'
_cell_volume   256.91808460
_cell_formula_units_Z   2
loop_
 _symmetry_equiv_pos_site_id
 _symmetry_equiv_pos_as_xyz
  1  'x, y, z'
loop_
 _atom_site_type_symbol
 _atom_site_label
 _atom_site_symmetry_multiplicity
 _atom_site_fract_x
 _atom_site_fract_y
 _atom_site_fract_z
 _atom_site_occupancy
  Sr  Sr0  1  -0.00000002  0.50000001  -0.00000001  1
  Sr  Sr1  1  0.49999999  0.00000000  -0.00000001  1
  Sr  Sr2  1  -0.00000002  0.50000001  0.49999998  1
  Sr  Sr3  1  0.49999999  0.00000000  0.49999997  1
  Sr  Sr4  1  0.47330597  0.50761401  0.74993596  1
  Sr  Sr5  1  0.52669397  0.49238601  0.25006397  1
  Ru  Ru6  1  0.97378894  0.99759702  0.75040994  1
  Ru  Ru7  1  0.02621100  0.00240300  0.24958999  1
  O  O8  1  0.71346795  0.71317601  0.96016295  1
  O  O9  1  0.28653198  0.28682401  0.03983699  1
  O  O10  1  0.79868897  0.22531600  0.03345198  1
  O  O11  1  0.20131096  0.77468401  0.96654796  1
  O  O12  1  0.71560995  0.71656701  0.54177696  1
  O  O13  1  0.28438998  0.28343301  0.45822298  1
  O  O14  1  0.77294797  0.20010000  0.46675996  1
  O  O15  1  0.22705196  0.79990001  0.53323997  1
  O  O16  1  0.01977298  0.42952901  0.73739897  1
  O  O17  1  0.98022695  0.57047101  0.26260096  1
  O  O18  1  0.50496598  0.07448800  0.76221797  1
  O  O19  1  0.49503395  0.92551202  0.23778197  1
