# generated using pymatgen
data_YbAl2
_symmetry_space_group_name_H-M   'P 1'
_cell_length_a   5.76905918
_cell_length_b   5.76905918
_cell_length_c   5.76905918
_cell_angle_alpha   60.00000000
_cell_angle_beta   60.00000000
_cell_angle_gamma   60.00000000
_symmetry_Int_Tables_number   1
_chemical_formula_structural   YbAl2
_chemical_formula_sum   'Yb2 Al4'
_cell_volume   135.76880160
_cell_formula_units_Z   2
loop_
 _symmetry_equiv_pos_site_id
 _symmetry_equiv_pos_as_xyz
  1  'x, y, z'
loop_
 _atom_site_type_symbol
 _atom_site_label
 _atom_site_symmetry_multiplicity
 _atom_site_fract_x
 _atom_site_fract_y
 _atom_site_fract_z
 _atom_site_occupancy
  Yb  Yb0  1  0.00000000  0.00000000  0.00000000  1
  Yb  Yb1  1  0.75000002  0.75000002  0.75000002  1
  Al  Al2  1  0.37500001  0.87500203  0.37499901  1
  Al  Al3  1  0.37500001  0.37499901  0.37499901  1
  Al  Al4  1  0.37500001  0.37499901  0.87500203  1
  Al  Al5  1  0.87500303  0.37499901  0.37499901  1
