# generated using pymatgen
data_Al12Re
_symmetry_space_group_name_H-M   'P 1'
_cell_length_a   6.52342653
_cell_length_b   6.52342653
_cell_length_c   6.52342653
_cell_angle_alpha   109.47122192
_cell_angle_beta   109.47122192
_cell_angle_gamma   109.47122192
_symmetry_Int_Tables_number   1
_chemical_formula_structural   Al12Re
_chemical_formula_sum   'Al12 Re1'
_cell_volume   213.70043963
_cell_formula_units_Z   1
loop_
 _symmetry_equiv_pos_site_id
 _symmetry_equiv_pos_as_xyz
  1  'x, y, z'
loop_
 _atom_site_type_symbol
 _atom_site_label
 _atom_site_symmetry_multiplicity
 _atom_site_fract_x
 _atom_site_fract_y
 _atom_site_fract_z
 _atom_site_occupancy
  Al  Al0  1  0.50445304  0.69197702  0.81247604  1
  Al  Al1  1  0.69197705  0.81247502  0.50445305  1
  Al  Al2  1  0.81247602  0.50445301  0.69197804  1
  Al  Al3  1  0.30802305  0.81247602  0.12049905  1
  Al  Al4  1  0.18752403  0.49554701  0.30802203  1
  Al  Al5  1  0.30802301  0.18752500  0.49554701  1
  Al  Al6  1  0.18752405  0.87950102  0.69197704  1
  Al  Al7  1  0.81247600  0.12049900  0.30802302  1
  Al  Al8  1  0.69197701  0.18752400  0.87950101  1
  Al  Al9  1  0.87950204  0.69197802  0.18752506  1
  Al  Al10  1  0.12049802  0.30802201  0.81247501  1
  Al  Al11  1  0.49554702  0.30802301  0.18752403  1
  Re  Re12  1  0.00000000  0.00000000  0.00000000  1
