# generated using pymatgen
data_Ho2Ge6Pt
_symmetry_space_group_name_H-M   'P 1'
_cell_length_a   4.07220316
_cell_length_b   4.09328890
_cell_length_c   11.18657017
_cell_angle_alpha   90.00000000
_cell_angle_beta   100.48703766
_cell_angle_gamma   90.00000000
_symmetry_Int_Tables_number   1
_chemical_formula_structural   Ho2Ge6Pt
_chemical_formula_sum   'Ho2 Ge6 Pt1'
_cell_volume   183.35092551
_cell_formula_units_Z   1
loop_
 _symmetry_equiv_pos_site_id
 _symmetry_equiv_pos_as_xyz
  1  'x, y, z'
loop_
 _atom_site_type_symbol
 _atom_site_label
 _atom_site_symmetry_multiplicity
 _atom_site_fract_x
 _atom_site_fract_y
 _atom_site_fract_z
 _atom_site_occupancy
  Ho  Ho0  1  0.77811497  0.50000001  0.55622900  1
  Ho  Ho1  1  0.11684900  0.50000001  0.23369800  1
  Ge  Ge2  1  0.49311398  0.50000001  0.98622701  1
  Ge  Ge3  1  0.37920099  0.50000001  0.75840200  1
  Ge  Ge4  1  0.99224396  0.00000000  0.98448901  1
  Ge  Ge5  1  0.87804997  0.00000000  0.75609901  1
  Ge  Ge6  1  0.66990597  0.00000000  0.33981200  1
  Ge  Ge7  1  0.23998199  0.00000000  0.47996500  1
  Pt  Pt8  1  0.55953898  0.00000000  0.11907800  1
