# generated using pymatgen
data_KAlPO4
_symmetry_space_group_name_H-M   'P 1'
_cell_length_a   5.13905382
_cell_length_b   5.13905478
_cell_length_c   8.74568462
_cell_angle_alpha   90.00000000
_cell_angle_beta   90.00000000
_cell_angle_gamma   119.99999237
_symmetry_Int_Tables_number   1
_chemical_formula_structural   KAlPO4
_chemical_formula_sum   'K2 Al2 P2 O8'
_cell_volume   200.02804492
_cell_formula_units_Z   2
loop_
 _symmetry_equiv_pos_site_id
 _symmetry_equiv_pos_as_xyz
  1  'x, y, z'
loop_
 _atom_site_type_symbol
 _atom_site_label
 _atom_site_symmetry_multiplicity
 _atom_site_fract_x
 _atom_site_fract_y
 _atom_site_fract_z
 _atom_site_occupancy
  K  K0  1  0.00000000  0.00000000  0.50184302  1
  K  K1  1  0.00000000  0.00000000  0.00184300  1
  Al  Al2  1  0.33333329  0.66666662  0.69679803  1
  Al  Al3  1  0.66666666  0.33333331  0.19679801  1
  P  P4  1  0.66666666  0.33333331  0.80450603  1
  P  P5  1  0.33333329  0.66666662  0.30450601  1
  O  O6  1  0.37936001  0.04192500  0.74901303  1
  O  O7  1  0.33743498  0.37935997  0.24901301  1
  O  O8  1  0.66666666  0.33333331  0.98381304  1
  O  O9  1  0.33333329  0.66666662  0.48381302  1
  O  O10  1  0.66256497  0.62063995  0.74901303  1
  O  O11  1  0.62063995  0.95807493  0.24901301  1
  O  O12  1  0.04192495  0.66256495  0.24901301  1
  O  O13  1  0.95807501  0.33743497  0.74901303  1
