# generated using pymatgen
data_CeSiPt3
_symmetry_space_group_name_H-M   'P 1'
_cell_length_a   4.20685577
_cell_length_b   4.20685577
_cell_length_c   10.06844521
_cell_angle_alpha   90.00000000
_cell_angle_beta   90.00000000
_cell_angle_gamma   90.00000000
_symmetry_Int_Tables_number   1
_chemical_formula_structural   CeSiPt3
_chemical_formula_sum   'Ce2 Si2 Pt6'
_cell_volume   178.18767333
_cell_formula_units_Z   2
loop_
 _symmetry_equiv_pos_site_id
 _symmetry_equiv_pos_as_xyz
  1  'x, y, z'
loop_
 _atom_site_type_symbol
 _atom_site_label
 _atom_site_symmetry_multiplicity
 _atom_site_fract_x
 _atom_site_fract_y
 _atom_site_fract_z
 _atom_site_occupancy
  Ce  Ce0  1  0.50000003  0.00000000  0.74965198  1
  Ce  Ce1  1  -0.00000000  0.50000003  0.25034799  1
  Si  Si2  1  0.50000003  0.50000003  0.00000000  1
  Si  Si3  1  -0.00000000  0.50000003  0.88090498  1
  Pt  Pt4  1  0.50000003  0.00000000  0.37782099  1
  Pt  Pt5  1  0.50000003  0.00000000  0.11909500  1
  Pt  Pt6  1  -0.00000000  0.50000003  0.62217899  1
  Pt  Pt7  1  0.00000000  0.00000000  0.49999999  1
  Pt  Pt8  1  0.00000000  0.00000000  0.00000000  1
  Pt  Pt9  1  0.50000003  0.50000003  0.49999999  1
