# generated using pymatgen
data_NdInSe2
_symmetry_space_group_name_H-M   'P 1'
_cell_length_a   4.17879009
_cell_length_b   7.05673122
_cell_length_c   9.10129166
_cell_angle_alpha   90.00000000
_cell_angle_beta   90.00000000
_cell_angle_gamma   107.22263336
_symmetry_Int_Tables_number   1
_chemical_formula_structural   NdInSe2
_chemical_formula_sum   'Nd2 In2 Se4'
_cell_volume   256.35037797
_cell_formula_units_Z   2
loop_
 _symmetry_equiv_pos_site_id
 _symmetry_equiv_pos_as_xyz
  1  'x, y, z'
loop_
 _atom_site_type_symbol
 _atom_site_label
 _atom_site_symmetry_multiplicity
 _atom_site_fract_x
 _atom_site_fract_y
 _atom_site_fract_z
 _atom_site_occupancy
  Nd  Nd0  1  0.74448199  0.48896401  0.75000003  1
  Nd  Nd1  1  0.25551800  0.51103601  0.25000001  1
  In  In2  1  0.35472200  0.70944402  0.93438904  1
  In  In3  1  0.64527799  0.29055601  0.06561100  1
  Se  Se4  1  0.64527799  0.29055601  0.43438902  1
  Se  Se5  1  0.35472200  0.70944402  0.56561102  1
  Se  Se6  1  0.09099800  0.18199601  0.75000003  1
  Se  Se7  1  0.90900199  0.81800402  0.25000001  1
