# generated using pymatgen
data_TaVTe3
_symmetry_space_group_name_H-M   'P 1'
_cell_length_a   3.53794193
_cell_length_b   8.06544018
_cell_length_c   10.38994980
_cell_angle_alpha   110.97509003
_cell_angle_beta   90.00000000
_cell_angle_gamma   90.00000000
_symmetry_Int_Tables_number   1
_chemical_formula_structural   TaVTe3
_chemical_formula_sum   'Ta2 V2 Te6'
_cell_volume   276.83206596
_cell_formula_units_Z   2
loop_
 _symmetry_equiv_pos_site_id
 _symmetry_equiv_pos_as_xyz
  1  'x, y, z'
loop_
 _atom_site_type_symbol
 _atom_site_label
 _atom_site_symmetry_multiplicity
 _atom_site_fract_x
 _atom_site_fract_y
 _atom_site_fract_z
 _atom_site_occupancy
  Ta  Ta0  1  0.25000000  0.03007200  0.70412597  1
  Ta  Ta1  1  0.75000001  0.96992795  0.29587394  1
  V  V2  1  0.75000001  0.02177300  0.91263096  1
  V  V3  1  0.25000000  0.97822695  0.08736894  1
  Te  Te4  1  0.75000001  0.79991096  0.50293594  1
  Te  Te5  1  0.25000000  0.20008899  0.49706397  1
  Te  Te6  1  0.75000001  0.22894999  0.17322798  1
  Te  Te7  1  0.25000000  0.77104996  0.82677192  1
  Te  Te8  1  0.25000000  0.70125897  0.16012196  1
  Te  Te9  1  0.75000001  0.29874099  0.83987795  1
