# generated using pymatgen
data_Li4CuF8
_symmetry_space_group_name_H-M   'P 1'
_cell_length_a   3.20869803
_cell_length_b   7.29659796
_cell_length_c   7.50733805
_cell_angle_alpha   84.19055176
_cell_angle_beta   77.66049194
_cell_angle_gamma   77.29823303
_symmetry_Int_Tables_number   1
_chemical_formula_structural   Li4CuF8
_chemical_formula_sum   'Li4 Cu1 F8'
_cell_volume   167.23221373
_cell_formula_units_Z   1
loop_
 _symmetry_equiv_pos_site_id
 _symmetry_equiv_pos_as_xyz
  1  'x, y, z'
loop_
 _atom_site_type_symbol
 _atom_site_label
 _atom_site_symmetry_multiplicity
 _atom_site_fract_x
 _atom_site_fract_y
 _atom_site_fract_z
 _atom_site_occupancy
  Li  Li0  1  0.00000000  0.00000000  0.00000000  1
  Li  Li1  1  0.83837898  0.50961301  0.81362904  1
  Li  Li2  1  0.16162099  0.49038701  0.18637103  1
  Li  Li3  1  0.64497998  0.18728000  0.52276002  1
  Cu  Cu4  1  0.35501999  0.81272001  0.47724005  1
  F  F5  1  0.78718398  0.36330200  0.06233004  1
  F  F6  1  0.14511500  0.30958000  0.40019002  1
  F  F7  1  0.85488498  0.69042001  0.59981005  1
  F  F8  1  0.45557599  0.36792000  0.72092803  1
  F  F9  1  0.15999700  0.04026800  0.63973800  1
  F  F10  1  0.84000298  0.95973201  0.36026207  1
  F  F11  1  0.21281599  0.63669801  0.93767003  1
  F  F12  1  0.54442398  0.63208001  0.27907204  1
