# generated using pymatgen
data_LaGa2NiGe
_symmetry_space_group_name_H-M   'P 1'
_cell_length_a   4.43199015
_cell_length_b   4.43199015
_cell_length_c   5.98116064
_cell_angle_alpha   111.74620056
_cell_angle_beta   111.74620056
_cell_angle_gamma   90.00000000
_symmetry_Int_Tables_number   1
_chemical_formula_structural   LaGa2NiGe
_chemical_formula_sum   'La1 Ga2 Ni1 Ge1'
_cell_volume   100.06713562
_cell_formula_units_Z   1
loop_
 _symmetry_equiv_pos_site_id
 _symmetry_equiv_pos_as_xyz
  1  'x, y, z'
loop_
 _atom_site_type_symbol
 _atom_site_label
 _atom_site_symmetry_multiplicity
 _atom_site_fract_x
 _atom_site_fract_y
 _atom_site_fract_z
 _atom_site_occupancy
  La  La0  1  0.60009700  0.60009699  0.20019402  1
  Ga  Ga1  1  0.99655999  0.99655998  0.99312001  1
  Ga  Ga2  1  0.35612601  0.85612598  0.71225201  1
  Ni  Ni3  1  0.85612599  0.35612599  0.71225200  1
  Ge  Ge4  1  0.24989100  0.24989099  0.49978200  1
