# generated using pymatgen
data_YMn5(RuO)2
_symmetry_space_group_name_H-M   'P 1'
_cell_length_a   6.42147398
_cell_length_b   6.43857479
_cell_length_c   6.48604012
_cell_angle_alpha   82.82851410
_cell_angle_beta   83.31143188
_cell_angle_gamma   83.24272919
_symmetry_Int_Tables_number   1
_chemical_formula_structural   YMn5(RuO)2
_chemical_formula_sum   'Y2 Mn10 Ru4 O4'
_cell_volume   262.80651405
_cell_formula_units_Z   2
loop_
 _symmetry_equiv_pos_site_id
 _symmetry_equiv_pos_as_xyz
  1  'x, y, z'
loop_
 _atom_site_type_symbol
 _atom_site_label
 _atom_site_symmetry_multiplicity
 _atom_site_fract_x
 _atom_site_fract_y
 _atom_site_fract_z
 _atom_site_occupancy
  Y  Y0  1  0.36006299  0.34490101  0.34502095  1
  Y  Y1  1  0.63993698  0.65509903  0.65497891  1
  Mn  Mn2  1  0.50000001  0.00000000  -0.00000003  1
  Mn  Mn3  1  1.00000000  0.50000002  0.99999988  1
  Mn  Mn4  1  0.10267800  0.10135600  0.10509599  1
  Mn  Mn5  1  0.89732198  0.89864404  0.89490388  1
  Mn  Mn6  1  0.14848097  0.65640203  0.65687794  1
  Mn  Mn7  1  0.65524301  0.14828701  0.65957393  1
  Mn  Mn8  1  0.65512798  0.65959403  0.14563593  1
  Mn  Mn9  1  0.85151901  0.34359801  0.34312192  1
  Mn  Mn10  1  0.34475696  0.85171303  0.34042593  1
  Mn  Mn11  1  0.34487199  0.34040601  0.85436394  1
  Ru  Ru12  1  0.00074198  0.28676801  0.71671396  1
  Ru  Ru13  1  0.71770596  0.99738904  0.27843991  1
  Ru  Ru14  1  0.28590797  0.71635003  0.00248296  1
  Ru  Ru15  1  0.28229401  0.00261100  0.72155996  1
  O  O16  1  0.71409200  0.28365001  0.99751691  1
  O  O17  1  0.99925799  0.71323203  0.28328590  1
  O  O18  1  0.00000000  0.00000000  0.49999998  1
  O  O19  1  -0.00000003  0.50000002  0.49999996  1
