# generated using pymatgen
data_Tm3Co2Si3
_symmetry_space_group_name_H-M   'P 1'
_cell_length_a   4.03020382
_cell_length_b   5.51782036
_cell_length_c   13.32083797
_cell_angle_alpha   90.00000000
_cell_angle_beta   90.00000000
_cell_angle_gamma   111.41982269
_symmetry_Int_Tables_number   1
_chemical_formula_structural   Tm3Co2Si3
_chemical_formula_sum   'Tm6 Co4 Si6'
_cell_volume   275.76739520
_cell_formula_units_Z   2
loop_
 _symmetry_equiv_pos_site_id
 _symmetry_equiv_pos_as_xyz
  1  'x, y, z'
loop_
 _atom_site_type_symbol
 _atom_site_label
 _atom_site_symmetry_multiplicity
 _atom_site_fract_x
 _atom_site_fract_y
 _atom_site_fract_z
 _atom_site_occupancy
  Tm  Tm0  1  0.36149199  0.72298402  0.75000000  1
  Tm  Tm1  1  0.63850802  0.27701601  0.25000000  1
  Tm  Tm2  1  0.07793500  0.15587000  0.88677900  1
  Tm  Tm3  1  0.92206501  0.84413002  0.11322100  1
  Tm  Tm4  1  0.92206501  0.84413002  0.38677900  1
  Tm  Tm5  1  0.07793500  0.15587000  0.61322100  1
  Co  Co6  1  0.21407200  0.42814401  0.41857700  1
  Co  Co7  1  0.78592802  0.57185601  0.58142300  1
  Co  Co8  1  0.78592802  0.57185601  0.91857700  1
  Co  Co9  1  0.21407200  0.42814401  0.08142300  1
  Si  Si10  1  0.67079302  0.34158601  0.75000000  1
  Si  Si11  1  0.32920699  0.65841402  0.25000000  1
  Si  Si12  1  0.37886999  0.75774002  0.96108300  1
  Si  Si13  1  0.62113002  0.24226001  0.03891700  1
  Si  Si14  1  0.62113002  0.24226001  0.46108300  1
  Si  Si15  1  0.37886999  0.75774002  0.53891700  1
