# generated using pymatgen
data_Ce2Co4Si3As
_symmetry_space_group_name_H-M   'P 1'
_cell_length_a   3.97629809
_cell_length_b   3.97629809
_cell_length_c   10.52127457
_cell_angle_alpha   90.00000000
_cell_angle_beta   90.00000000
_cell_angle_gamma   90.00000000
_symmetry_Int_Tables_number   1
_chemical_formula_structural   Ce2Co4Si3As
_chemical_formula_sum   'Ce2 Co4 Si3 As1'
_cell_volume   166.35130961
_cell_formula_units_Z   1
loop_
 _symmetry_equiv_pos_site_id
 _symmetry_equiv_pos_as_xyz
  1  'x, y, z'
loop_
 _atom_site_type_symbol
 _atom_site_label
 _atom_site_symmetry_multiplicity
 _atom_site_fract_x
 _atom_site_fract_y
 _atom_site_fract_z
 _atom_site_occupancy
  Ce  Ce0  1  0.49999999  0.49999999  0.50000002  1
  Ce  Ce1  1  0.00000000  0.00000000  0.00000000  1
  Co  Co2  1  0.00000000  0.49999999  0.24453701  1
  Co  Co3  1  0.49999999  0.00000000  0.75546303  1
  Co  Co4  1  0.49999999  0.00000000  0.24453701  1
  Co  Co5  1  0.00000000  0.49999999  0.75546303  1
  Si  Si6  1  0.49999999  0.49999999  0.12103100  1
  Si  Si7  1  0.00000000  0.00000000  0.62921303  1
  Si  Si8  1  0.00000000  0.00000000  0.37078702  1
  As  As9  1  0.49999999  0.49999999  0.87896904  1
