# generated using pymatgen
data_ErCoNi4
_symmetry_space_group_name_H-M   'P 1'
_cell_length_a   3.95440602
_cell_length_b   4.89614010
_cell_length_c   4.89614010
_cell_angle_alpha   60.00000381
_cell_angle_beta   90.00000000
_cell_angle_gamma   90.00000000
_symmetry_Int_Tables_number   1
_chemical_formula_structural   ErCoNi4
_chemical_formula_sum   'Er1 Co1 Ni4'
_cell_volume   82.09554302
_cell_formula_units_Z   1
loop_
 _symmetry_equiv_pos_site_id
 _symmetry_equiv_pos_as_xyz
  1  'x, y, z'
loop_
 _atom_site_type_symbol
 _atom_site_label
 _atom_site_symmetry_multiplicity
 _atom_site_fract_x
 _atom_site_fract_y
 _atom_site_fract_z
 _atom_site_occupancy
  Er  Er0  1  0.00000000  0.00000000  0.00000000  1
  Ni  Ni1  1  0.00000000  0.33333332  0.33333336  1
  Co  Co2  1  0.00000000  0.66666664  0.66666672  1
  Ni  Ni3  1  0.50000000  0.00000000  0.50000002  1
  Ni  Ni4  1  0.50000000  0.49999998  0.00000002  1
  Ni  Ni5  1  0.50000000  0.49999998  0.50000004  1
