# generated using pymatgen
data_SrGaSiC3
_symmetry_space_group_name_H-M   'P 1'
_cell_length_a   4.22934580
_cell_length_b   4.22934580
_cell_length_c   5.67991781
_cell_angle_alpha   90.00000000
_cell_angle_beta   90.00000000
_cell_angle_gamma   90.00000000
_symmetry_Int_Tables_number   1
_chemical_formula_structural   SrGaSiC3
_chemical_formula_sum   'Sr1 Ga1 Si1 C3'
_cell_volume   101.59876810
_cell_formula_units_Z   1
loop_
 _symmetry_equiv_pos_site_id
 _symmetry_equiv_pos_as_xyz
  1  'x, y, z'
loop_
 _atom_site_type_symbol
 _atom_site_label
 _atom_site_symmetry_multiplicity
 _atom_site_fract_x
 _atom_site_fract_y
 _atom_site_fract_z
 _atom_site_occupancy
  Sr  Sr0  1  0.00000000  0.00000000  0.50000002  1
  Ga  Ga1  1  0.50000002  0.50000002  0.74577002  1
  Si  Si2  1  0.50000002  0.50000002  0.25423001  1
  C  C3  1  0.00000000  0.00000000  0.00000000  1
  C  C4  1  0.50000002  0.00000000  -0.00000000  1
  C  C5  1  0.00000000  0.50000002  0.00000000  1
