# generated using pymatgen
data_ZrGa3
_symmetry_space_group_name_H-M   'P 1'
_cell_length_a   4.64548779
_cell_length_b   6.17749977
_cell_length_c   6.17750025
_cell_angle_alpha   60.00000000
_cell_angle_beta   90.00000000
_cell_angle_gamma   90.00000000
_symmetry_Int_Tables_number   1
_chemical_formula_structural   ZrGa3
_chemical_formula_sum   'Zr2 Ga6'
_cell_volume   153.52795449
_cell_formula_units_Z   2
loop_
 _symmetry_equiv_pos_site_id
 _symmetry_equiv_pos_as_xyz
  1  'x, y, z'
loop_
 _atom_site_type_symbol
 _atom_site_label
 _atom_site_symmetry_multiplicity
 _atom_site_fract_x
 _atom_site_fract_y
 _atom_site_fract_z
 _atom_site_occupancy
  Zr  Zr0  1  0.25000001  0.33333335  0.33333332  1
  Zr  Zr1  1  0.75000003  0.66666669  0.66666664  1
  Ga  Ga2  1  0.75000003  0.69479003  0.15260499  1
  Ga  Ga3  1  0.75000003  0.15260501  0.15260499  1
  Ga  Ga4  1  0.75000003  0.15260501  0.69478998  1
  Ga  Ga5  1  0.25000001  0.30521001  0.84739497  1
  Ga  Ga6  1  0.25000001  0.84739503  0.84739497  1
  Ga  Ga7  1  0.25000001  0.84739503  0.30520999  1
