# generated using pymatgen
data_Cs2ZnBr4
_symmetry_space_group_name_H-M   'P 1'
_cell_length_a   7.82300615
_cell_length_b   8.26010895
_cell_length_c   10.55108833
_cell_angle_alpha   90.00000000
_cell_angle_beta   70.60440826
_cell_angle_gamma   90.00000000
_symmetry_Int_Tables_number   1
_chemical_formula_structural   Cs2ZnBr4
_chemical_formula_sum   'Cs4 Zn2 Br8'
_cell_volume   643.10620012
_cell_formula_units_Z   2
loop_
 _symmetry_equiv_pos_site_id
 _symmetry_equiv_pos_as_xyz
  1  'x, y, z'
loop_
 _atom_site_type_symbol
 _atom_site_label
 _atom_site_symmetry_multiplicity
 _atom_site_fract_x
 _atom_site_fract_y
 _atom_site_fract_z
 _atom_site_occupancy
  Cs  Cs0  1  0.30006200  0.75000000  0.03753398  1
  Cs  Cs1  1  0.69993800  0.25000000  0.96246593  1
  Cs  Cs2  1  0.79684600  0.25000000  0.41446295  1
  Cs  Cs3  1  0.20315400  0.75000000  0.58553697  1
  Zn  Zn4  1  0.30349000  0.25000000  0.78558795  1
  Zn  Zn5  1  0.69651000  0.75000000  0.21441196  1
  Br  Br6  1  0.85980800  0.75000000  0.95642092  1
  Br  Br7  1  0.14019200  0.25000000  0.04357899  1
  Br  Br8  1  0.91346600  0.75000000  0.35338394  1
  Br  Br9  1  0.08653400  0.25000000  0.64661597  1
  Br  Br10  1  0.48539600  0.99896101  0.27677497  1
  Br  Br11  1  0.51460400  0.49896100  0.72322495  1
  Br  Br12  1  0.51460400  0.00103900  0.72322495  1
  Br  Br13  1  0.48539600  0.50103900  0.27677497  1
