# generated using pymatgen
data_AsRuS
_symmetry_space_group_name_H-M   'P 1'
_cell_length_a   6.19454002
_cell_length_b   6.28403282
_cell_length_c   6.28727055
_cell_angle_alpha   111.59262848
_cell_angle_beta   90.00000000
_cell_angle_gamma   90.00000000
_symmetry_Int_Tables_number   1
_chemical_formula_structural   AsRuS
_chemical_formula_sum   'As4 Ru4 S4'
_cell_volume   227.56754996
_cell_formula_units_Z   4
loop_
 _symmetry_equiv_pos_site_id
 _symmetry_equiv_pos_as_xyz
  1  'x, y, z'
loop_
 _atom_site_type_symbol
 _atom_site_label
 _atom_site_symmetry_multiplicity
 _atom_site_fract_x
 _atom_site_fract_y
 _atom_site_fract_z
 _atom_site_occupancy
  As  As0  1  0.12986100  0.85123799  0.12836599  1
  As  As1  1  0.62986100  0.14876200  0.37163400  1
  As  As2  1  0.87013900  0.14876200  0.87163401  1
  As  As3  1  0.37013900  0.85123799  0.62836599  1
  Ru  Ru4  1  0.51373800  0.70381399  0.19796899  1
  Ru  Ru5  1  0.01373800  0.29618600  0.30203100  1
  Ru  Ru6  1  0.48626200  0.29618600  0.80203100  1
  Ru  Ru7  1  0.98626200  0.70381399  0.69796900  1
  S  S8  1  0.86632800  0.64623499  0.32022299  1
  S  S9  1  0.36632800  0.35376500  0.17977700  1
  S  S10  1  0.13367200  0.35376500  0.67977700  1
  S  S11  1  0.63367200  0.64623499  0.82022300  1
