# generated using pymatgen
data_ScMnNiGe4
_symmetry_space_group_name_H-M   'P 1'
_cell_length_a   4.13172293
_cell_length_b   4.13172293
_cell_length_c   6.70070982
_cell_angle_alpha   90.00000000
_cell_angle_beta   90.00000000
_cell_angle_gamma   90.00000000
_symmetry_Int_Tables_number   1
_chemical_formula_structural   ScMnNiGe4
_chemical_formula_sum   'Sc1 Mn1 Ni1 Ge4'
_cell_volume   114.38871755
_cell_formula_units_Z   1
loop_
 _symmetry_equiv_pos_site_id
 _symmetry_equiv_pos_as_xyz
  1  'x, y, z'
loop_
 _atom_site_type_symbol
 _atom_site_label
 _atom_site_symmetry_multiplicity
 _atom_site_fract_x
 _atom_site_fract_y
 _atom_site_fract_z
 _atom_site_occupancy
  Sc  Sc0  1  0.00000000  0.00000000  0.00000000  1
  Mn  Mn1  1  0.00000000  0.50000001  0.30582001  1
  Ge  Ge2  1  0.00000000  0.50000001  0.69418002  1
  Ge  Ge3  1  0.50000001  0.00000000  0.30582001  1
  Ge  Ge4  1  0.50000001  0.00000000  0.69418002  1
  Ge  Ge5  1  0.50000001  0.50000001  0.00000000  1
  Ni  Ni6  1  0.00000000  0.00000000  0.50000001  1
