# generated using pymatgen
data_Nd4Ga3Pt5
_symmetry_space_group_name_H-M   'P 1'
_cell_length_a   4.55129290
_cell_length_b   7.09491205
_cell_length_c   7.80965519
_cell_angle_alpha   90.00000000
_cell_angle_beta   90.00000000
_cell_angle_gamma   90.00000000
_symmetry_Int_Tables_number   1
_chemical_formula_structural   Nd4Ga3Pt5
_chemical_formula_sum   'Nd4 Ga3 Pt5'
_cell_volume   252.18175396
_cell_formula_units_Z   1
loop_
 _symmetry_equiv_pos_site_id
 _symmetry_equiv_pos_as_xyz
  1  'x, y, z'
loop_
 _atom_site_type_symbol
 _atom_site_label
 _atom_site_symmetry_multiplicity
 _atom_site_fract_x
 _atom_site_fract_y
 _atom_site_fract_z
 _atom_site_occupancy
  Nd  Nd0  1  0.25000001  0.50945500  0.19837500  1
  Nd  Nd1  1  0.75000002  0.49054500  0.80162498  1
  Nd  Nd2  1  0.75000002  0.99054499  0.69837498  1
  Nd  Nd3  1  0.25000001  0.00945500  0.30162499  1
  Ga  Ga4  1  0.25000001  0.68941699  0.59183299  1
  Ga  Ga5  1  0.75000002  0.31058300  0.40816699  1
  Ga  Ga6  1  0.75000002  0.81058299  0.09183300  1
  Pt  Pt7  1  0.25000001  0.18941700  0.90816698  1
  Pt  Pt8  1  0.25000001  0.79789099  0.91816198  1
  Pt  Pt9  1  0.75000002  0.20210900  0.08183800  1
  Pt  Pt10  1  0.75000002  0.70210899  0.41816199  1
  Pt  Pt11  1  0.25000001  0.29789100  0.58183799  1
