# generated using pymatgen
data_SrTaSe3
_symmetry_space_group_name_H-M   'P 1'
_cell_length_a   4.06972599
_cell_length_b   9.01363468
_cell_length_c   14.90677929
_cell_angle_alpha   90.00000000
_cell_angle_beta   90.00000000
_cell_angle_gamma   90.00000000
_symmetry_Int_Tables_number   1
_chemical_formula_structural   SrTaSe3
_chemical_formula_sum   'Sr4 Ta4 Se12'
_cell_volume   546.82573246
_cell_formula_units_Z   4
loop_
 _symmetry_equiv_pos_site_id
 _symmetry_equiv_pos_as_xyz
  1  'x, y, z'
loop_
 _atom_site_type_symbol
 _atom_site_label
 _atom_site_symmetry_multiplicity
 _atom_site_fract_x
 _atom_site_fract_y
 _atom_site_fract_z
 _atom_site_occupancy
  Sr  Sr0  1  0.25000000  0.42780002  0.17837000  1
  Sr  Sr1  1  0.75000000  0.57220002  0.82162998  1
  Sr  Sr2  1  0.25000000  0.92780003  0.32162999  1
  Sr  Sr3  1  0.75000000  0.07220000  0.67836999  1
  Ta  Ta4  1  0.75000000  0.82855103  0.05452700  1
  Ta  Ta5  1  0.25000000  0.17144901  0.94547298  1
  Ta  Ta6  1  0.75000000  0.32855101  0.44547299  1
  Ta  Ta7  1  0.25000000  0.67144902  0.55452699  1
  Se  Se8  1  0.75000000  0.98083803  0.89905198  1
  Se  Se9  1  0.25000000  0.01916200  0.10094800  1
  Se  Se10  1  0.75000000  0.48083802  0.60094799  1
  Se  Se11  1  0.25000000  0.51916202  0.39905199  1
  Se  Se12  1  0.25000000  0.66642102  0.98985898  1
  Se  Se13  1  0.75000000  0.33357901  0.01014100  1
  Se  Se14  1  0.25000000  0.16642101  0.51014099  1
  Se  Se15  1  0.75000000  0.83357903  0.48985899  1
  Se  Se16  1  0.25000000  0.79117303  0.70925399  1
  Se  Se17  1  0.75000000  0.20882701  0.29074599  1
  Se  Se18  1  0.25000000  0.29117301  0.79074598  1
  Se  Se19  1  0.75000000  0.70882703  0.20925400  1
