# generated using pymatgen
data_Sm2Si3Rh
_symmetry_space_group_name_H-M   'P 1'
_cell_length_a   4.09506607
_cell_length_b   4.09506607
_cell_length_c   7.80492306
_cell_angle_alpha   105.20887756
_cell_angle_beta   105.20887756
_cell_angle_gamma   90.00000000
_symmetry_Int_Tables_number   1
_chemical_formula_structural   Sm2Si3Rh
_chemical_formula_sum   'Sm2 Si3 Rh1'
_cell_volume   121.54411965
_cell_formula_units_Z   1
loop_
 _symmetry_equiv_pos_site_id
 _symmetry_equiv_pos_as_xyz
  1  'x, y, z'
loop_
 _atom_site_type_symbol
 _atom_site_label
 _atom_site_symmetry_multiplicity
 _atom_site_fract_x
 _atom_site_fract_y
 _atom_site_fract_z
 _atom_site_occupancy
  Sm  Sm0  1  0.62404300  0.12404300  0.24808602  1
  Sm  Sm1  1  0.87404302  0.87404300  0.74808604  1
  Si  Si2  1  0.45777601  0.45777600  0.91555201  1
  Si  Si3  1  0.20777602  0.70777600  0.41555202  1
  Si  Si4  1  0.04318201  0.54318200  0.08636402  1
  Rh  Rh5  1  0.29318201  0.29318200  0.58636401  1
