# generated using pymatgen
data_HfFe2
_symmetry_space_group_name_H-M   'P 1'
_cell_length_a   4.90383577
_cell_length_b   4.90383530
_cell_length_c   7.68736315
_cell_angle_alpha   90.00000000
_cell_angle_beta   90.00000000
_cell_angle_gamma   120.00000000
_symmetry_Int_Tables_number   1
_chemical_formula_structural   HfFe2
_chemical_formula_sum   'Hf4 Fe8'
_cell_volume   160.09575695
_cell_formula_units_Z   4
loop_
 _symmetry_equiv_pos_site_id
 _symmetry_equiv_pos_as_xyz
  1  'x, y, z'
loop_
 _atom_site_type_symbol
 _atom_site_label
 _atom_site_symmetry_multiplicity
 _atom_site_fract_x
 _atom_site_fract_y
 _atom_site_fract_z
 _atom_site_occupancy
  Hf  Hf0  1  0.66666668  0.33333334  0.56123999  1
  Hf  Hf1  1  0.33333331  0.66666668  0.43875999  1
  Hf  Hf2  1  0.33333331  0.66666668  0.06124000  1
  Hf  Hf3  1  0.66666668  0.33333334  0.93875998  1
  Fe  Fe4  1  0.17215099  0.34430200  0.74999999  1
  Fe  Fe5  1  0.17215095  0.82785001  0.74999999  1
  Fe  Fe6  1  0.65569898  0.82785001  0.74999999  1
  Fe  Fe7  1  0.82784900  0.65569801  0.25000000  1
  Fe  Fe8  1  0.82784903  0.17215000  0.25000000  1
  Fe  Fe9  1  0.34430100  0.17215000  0.25000000  1
  Fe  Fe10  1  0.00000000  0.00000000  0.49999999  1
  Fe  Fe11  1  0.00000000  0.00000000  0.00000000  1
