# generated using pymatgen
data_Zr5Sn6Pd5
_symmetry_space_group_name_H-M   'P 1'
_cell_length_a   5.08331442
_cell_length_b   5.08331442
_cell_length_c   16.20585442
_cell_angle_alpha   80.97672272
_cell_angle_beta   80.97672272
_cell_angle_gamma   59.99999237
_symmetry_Int_Tables_number   1
_chemical_formula_structural   Zr5Sn6Pd5
_chemical_formula_sum   'Zr5 Sn6 Pd5'
_cell_volume   356.66080689
_cell_formula_units_Z   1
loop_
 _symmetry_equiv_pos_site_id
 _symmetry_equiv_pos_as_xyz
  1  'x, y, z'
loop_
 _atom_site_type_symbol
 _atom_site_label
 _atom_site_symmetry_multiplicity
 _atom_site_fract_x
 _atom_site_fract_y
 _atom_site_fract_z
 _atom_site_occupancy
  Zr  Zr0  1  0.25034000  0.25034001  0.24897999  1
  Zr  Zr1  1  0.50000001  0.50000002  0.49999998  1
  Zr  Zr2  1  0.74966001  0.74966002  0.75101997  1
  Zr  Zr3  1  0.00000000  0.00000000  0.00000000  1
  Zr  Zr4  1  0.87549102  0.87549103  0.37352698  1
  Sn  Sn5  1  0.12450900  0.12450900  0.62647298  1
  Sn  Sn6  1  0.37508201  0.37508201  0.87475397  1
  Sn  Sn7  1  0.62491801  0.62491802  0.12524599  1
  Pd  Pd8  1  0.18630300  0.18630301  0.44109098  1
  Sn  Sn9  1  0.43575101  0.43575101  0.69274697  1
  Pd  Pd10  1  0.68463901  0.68463902  0.94608296  1
  Sn  Sn11  1  0.93666502  0.93666503  0.19000498  1
  Pd  Pd12  1  0.81369701  0.81369702  0.55890897  1
  Pd  Pd13  1  0.06333500  0.06333500  0.80999498  1
  Pd  Pd14  1  0.31536101  0.31536101  0.05391699  1
  Sn  Sn15  1  0.56424901  0.56424902  0.30725298  1
