# generated using pymatgen
data_MgSn5
_symmetry_space_group_name_H-M   'P 1'
_cell_length_a   4.42957020
_cell_length_b   4.52590084
_cell_length_c   14.36594582
_cell_angle_alpha   90.00000000
_cell_angle_beta   98.86861420
_cell_angle_gamma   90.00000000
_symmetry_Int_Tables_number   1
_chemical_formula_structural   MgSn5
_chemical_formula_sum   'Mg2 Sn10'
_cell_volume   284.56228348
_cell_formula_units_Z   2
loop_
 _symmetry_equiv_pos_site_id
 _symmetry_equiv_pos_as_xyz
  1  'x, y, z'
loop_
 _atom_site_type_symbol
 _atom_site_label
 _atom_site_symmetry_multiplicity
 _atom_site_fract_x
 _atom_site_fract_y
 _atom_site_fract_z
 _atom_site_occupancy
  Mg  Mg0  1  0.80662697  0.50000002  0.61325400  1
  Mg  Mg1  1  0.19337299  0.50000002  0.38674599  1
  Sn  Sn2  1  0.55137298  0.00000000  0.10274601  1
  Sn  Sn3  1  0.44862698  0.00000000  0.89725398  1
  Sn  Sn4  1  0.60874498  0.50000002  0.21749001  1
  Sn  Sn5  1  0.39125499  0.50000002  0.78250999  1
  Sn  Sn6  1  0.71400398  0.00000000  0.42800800  1
  Sn  Sn7  1  0.28599599  0.00000000  0.57199199  1
  Sn  Sn8  1  0.89053697  1.00000004  0.78107400  1
  Sn  Sn9  1  0.10946300  0.00000000  0.21892600  1
  Sn  Sn10  1  0.00000000  0.00000000  0.00000000  1
  Sn  Sn11  1  0.49999998  0.50000002  0.99999998  1
