# generated using pymatgen
data_RbAgCl3
_symmetry_space_group_name_H-M   'P 1'
_cell_length_a   7.84638500
_cell_length_b   7.84638500
_cell_length_c   7.84638500
_cell_angle_alpha   61.22915268
_cell_angle_beta   61.22915268
_cell_angle_gamma   61.22915268
_symmetry_Int_Tables_number   1
_chemical_formula_structural   RbAgCl3
_chemical_formula_sum   'Rb2 Ag2 Cl6'
_cell_volume   351.02352314
_cell_formula_units_Z   2
loop_
 _symmetry_equiv_pos_site_id
 _symmetry_equiv_pos_as_xyz
  1  'x, y, z'
loop_
 _atom_site_type_symbol
 _atom_site_label
 _atom_site_symmetry_multiplicity
 _atom_site_fract_x
 _atom_site_fract_y
 _atom_site_fract_z
 _atom_site_occupancy
  Rb  Rb0  1  0.72777898  0.72777900  0.72777904  1
  Rb  Rb1  1  0.22777899  0.22777900  0.22777901  1
  Ag  Ag2  1  0.99947697  0.99947700  0.99947706  1
  Ag  Ag3  1  0.49947699  0.49947700  0.49947703  1
  Cl  Cl4  1  0.78010599  0.15088000  0.31325702  1
  Cl  Cl5  1  0.15087999  0.31325700  0.78010602  1
  Cl  Cl6  1  0.31325698  0.78010600  0.15088003  1
  Cl  Cl7  1  0.81325698  0.65088000  0.28010604  1
  Cl  Cl8  1  0.28010598  0.81325700  0.65088004  1
  Cl  Cl9  1  0.65087999  0.28010600  0.81325703  1
