# generated using pymatgen
data_NbP2
_symmetry_space_group_name_H-M   'P 1'
_cell_length_a   3.23692393
_cell_length_b   4.87237644
_cell_length_c   6.91518736
_cell_angle_alpha   80.91674042
_cell_angle_beta   76.46469116
_cell_angle_gamma   70.59940338
_symmetry_Int_Tables_number   1
_chemical_formula_structural   NbP2
_chemical_formula_sum   'Nb2 P4'
_cell_volume   99.63062570
_cell_formula_units_Z   2
loop_
 _symmetry_equiv_pos_site_id
 _symmetry_equiv_pos_as_xyz
  1  'x, y, z'
loop_
 _atom_site_type_symbol
 _atom_site_label
 _atom_site_symmetry_multiplicity
 _atom_site_fract_x
 _atom_site_fract_y
 _atom_site_fract_z
 _atom_site_occupancy
  Nb  Nb0  1  0.16054903  0.88968200  0.78921996  1
  Nb  Nb1  1  0.83945102  0.11031800  0.21078000  1
  P  P2  1  0.39665802  0.31081200  0.89587198  1
  P  P3  1  0.60334203  0.68918800  0.10412799  1
  P  P4  1  0.85889504  0.75467700  0.52753298  1
  P  P5  1  0.14110501  0.24532300  0.47246698  1
