# generated using pymatgen
data_Li2MnO4
_symmetry_space_group_name_H-M   'P 1'
_cell_length_a   6.00726032
_cell_length_b   6.00726032
_cell_length_c   6.00726032
_cell_angle_alpha   60.05112839
_cell_angle_beta   60.05112839
_cell_angle_gamma   60.05112839
_symmetry_Int_Tables_number   1
_chemical_formula_structural   Li2MnO4
_chemical_formula_sum   'Li4 Mn2 O8'
_cell_volume   153.46782673
_cell_formula_units_Z   2
loop_
 _symmetry_equiv_pos_site_id
 _symmetry_equiv_pos_as_xyz
  1  'x, y, z'
loop_
 _atom_site_type_symbol
 _atom_site_label
 _atom_site_symmetry_multiplicity
 _atom_site_fract_x
 _atom_site_fract_y
 _atom_site_fract_z
 _atom_site_occupancy
  Li  Li0  1  0.99758303  0.99758405  0.99758298  1
  Li  Li1  1  0.37350001  0.87932404  0.37349998  1
  Li  Li2  1  0.87932403  0.37350002  0.37349998  1
  Li  Li3  1  0.37350001  0.37350002  0.87932401  1
  Mn  Mn4  1  0.75157802  0.75157803  0.75157799  1
  Mn  Mn5  1  0.37366201  0.37366302  0.37366199  1
  O  O6  1  0.13350200  0.13350201  0.13350200  1
  O  O7  1  0.13142100  0.59403103  0.13142099  1
  O  O8  1  0.59403202  0.13142001  0.13142099  1
  O  O9  1  0.13142100  0.13142001  0.59403201  1
  O  O10  1  0.61947802  0.61947703  0.61947799  1
  O  O11  1  0.62300002  0.14500001  0.62300000  1
  O  O12  1  0.14500000  0.62300003  0.62300000  1
  O  O13  1  0.62300002  0.62300003  0.14499997  1
