# generated using pymatgen
data_LaI3
_symmetry_space_group_name_H-M   'P 1'
_cell_length_a   4.24513388
_cell_length_b   8.18202591
_cell_length_c   10.01061821
_cell_angle_alpha   90.00000000
_cell_angle_beta   90.00000000
_cell_angle_gamma   105.03554535
_symmetry_Int_Tables_number   1
_chemical_formula_structural   LaI3
_chemical_formula_sum   'La2 I6'
_cell_volume   335.80304885
_cell_formula_units_Z   2
loop_
 _symmetry_equiv_pos_site_id
 _symmetry_equiv_pos_as_xyz
  1  'x, y, z'
loop_
 _atom_site_type_symbol
 _atom_site_label
 _atom_site_symmetry_multiplicity
 _atom_site_fract_x
 _atom_site_fract_y
 _atom_site_fract_z
 _atom_site_occupancy
  La  La0  1  0.73917800  0.47835601  0.74999998  1
  La  La1  1  0.26082198  0.52164401  0.24999999  1
  I  I2  1  0.34219098  0.68438201  0.56898499  1
  I  I3  1  0.65780900  0.31561801  0.43101499  1
  I  I4  1  0.90473799  0.80947601  0.24999999  1
  I  I5  1  0.09526199  0.19052400  0.74999998  1
  I  I6  1  0.34219098  0.68438201  0.93101498  1
  I  I7  1  0.65780900  0.31561801  0.06898500  1
