# generated using pymatgen
data_ZrRu
_symmetry_space_group_name_H-M   'P 1'
_cell_length_a   2.84001708
_cell_length_b   4.60095978
_cell_length_c   4.93912315
_cell_angle_alpha   90.00000000
_cell_angle_beta   90.00000000
_cell_angle_gamma   90.00000000
_symmetry_Int_Tables_number   1
_chemical_formula_structural   ZrRu
_chemical_formula_sum   'Zr2 Ru2'
_cell_volume   64.53855593
_cell_formula_units_Z   2
loop_
 _symmetry_equiv_pos_site_id
 _symmetry_equiv_pos_as_xyz
  1  'x, y, z'
loop_
 _atom_site_type_symbol
 _atom_site_label
 _atom_site_symmetry_multiplicity
 _atom_site_fract_x
 _atom_site_fract_y
 _atom_site_fract_z
 _atom_site_occupancy
  Zr  Zr0  1  -0.00000000  0.75000004  0.19506399  1
  Zr  Zr1  1  -0.00000000  0.25000001  0.80493597  1
  Ru  Ru2  1  0.49999999  0.75000004  0.68680998  1
  Ru  Ru3  1  0.49999999  0.25000001  0.31318999  1
