# generated using pymatgen
data_LiVO4
_symmetry_space_group_name_H-M   'P 1'
_cell_length_a   3.80823398
_cell_length_b   6.30997705
_cell_length_c   6.63740206
_cell_angle_alpha   105.89770508
_cell_angle_beta   90.00000000
_cell_angle_gamma   107.56351471
_symmetry_Int_Tables_number   1
_chemical_formula_structural   LiVO4
_chemical_formula_sum   'Li2 V2 O8'
_cell_volume   145.64924700
_cell_formula_units_Z   2
loop_
 _symmetry_equiv_pos_site_id
 _symmetry_equiv_pos_as_xyz
  1  'x, y, z'
loop_
 _atom_site_type_symbol
 _atom_site_label
 _atom_site_symmetry_multiplicity
 _atom_site_fract_x
 _atom_site_fract_y
 _atom_site_fract_z
 _atom_site_occupancy
  Li  Li0  1  0.70781997  0.41564001  0.30766003  1
  Li  Li1  1  0.40236894  0.80473802  0.29629205  1
  V  V2  1  0.60164299  0.20328600  0.71957402  1
  V  V3  1  0.30015495  0.60031001  0.72229405  1
  O  O4  1  0.13236898  0.26473801  0.68966003  1
  O  O5  1  0.24306296  0.48612601  0.35660004  1
  O  O6  1  0.35987394  0.71974802  0.98883106  1
  O  O7  1  0.44590693  0.89181402  0.63084806  1
  O  O8  1  0.55366300  0.10732600  0.35531401  1
  O  O9  1  0.62972698  0.25945401  0.97753803  1
  O  O10  1  0.75878596  0.51757201  0.66390604  1
  O  O11  1  0.86462495  0.72925002  0.29148405  1
