# generated using pymatgen
data_LaHg3Ge
_symmetry_space_group_name_H-M   'P 1'
_cell_length_a   4.24571037
_cell_length_b   4.24571037
_cell_length_c   6.14428473
_cell_angle_alpha   69.78762817
_cell_angle_beta   69.78762817
_cell_angle_gamma   59.99999237
_symmetry_Int_Tables_number   1
_chemical_formula_structural   LaHg3Ge
_chemical_formula_sum   'La1 Hg3 Ge1'
_cell_volume   87.95470166
_cell_formula_units_Z   1
loop_
 _symmetry_equiv_pos_site_id
 _symmetry_equiv_pos_as_xyz
  1  'x, y, z'
loop_
 _atom_site_type_symbol
 _atom_site_label
 _atom_site_symmetry_multiplicity
 _atom_site_fract_x
 _atom_site_fract_y
 _atom_site_fract_z
 _atom_site_occupancy
  La  La0  1  0.00000000  0.00000000  0.00000000  1
  Ge  Ge1  1  0.10521100  0.10521100  0.68436700  1
  Hg  Hg2  1  0.89478904  0.89478903  0.31563302  1
  Hg  Hg3  1  0.33940801  0.33940801  0.98177600  1
  Hg  Hg4  1  0.66059203  0.66059202  0.01822402  1
