# generated using pymatgen
data_Zr2SeO2
_symmetry_space_group_name_H-M   'P 1'
_cell_length_a   3.79421473
_cell_length_b   3.79421496
_cell_length_c   5.98596811
_cell_angle_alpha   90.00016022
_cell_angle_beta   90.00016022
_cell_angle_gamma   60.00252914
_symmetry_Int_Tables_number   1
_chemical_formula_structural   Zr2SeO2
_chemical_formula_sum   'Zr2 Se1 O2'
_cell_volume   74.63111602
_cell_formula_units_Z   1
loop_
 _symmetry_equiv_pos_site_id
 _symmetry_equiv_pos_as_xyz
  1  'x, y, z'
loop_
 _atom_site_type_symbol
 _atom_site_label
 _atom_site_symmetry_multiplicity
 _atom_site_fract_x
 _atom_site_fract_y
 _atom_site_fract_z
 _atom_site_occupancy
  Zr  Zr0  1  0.66666665  0.66666667  0.24463699  1
  Zr  Zr1  1  0.33333332  0.33333334  0.75536298  1
  Se  Se2  1  0.00000000  0.00000000  0.00000000  1
  O  O3  1  0.66666665  0.66666667  0.64874198  1
  O  O4  1  0.33333332  0.33333334  0.35125799  1
