# generated using pymatgen
data_LiCuF4
_symmetry_space_group_name_H-M   'P 1'
_cell_length_a   4.59980297
_cell_length_b   5.56706905
_cell_length_c   7.69462824
_cell_angle_alpha   93.14246368
_cell_angle_beta   90.00000000
_cell_angle_gamma   90.00000000
_symmetry_Int_Tables_number   1
_chemical_formula_structural   LiCuF4
_chemical_formula_sum   'Li3 Cu3 F12'
_cell_volume   196.74329784
_cell_formula_units_Z   3
loop_
 _symmetry_equiv_pos_site_id
 _symmetry_equiv_pos_as_xyz
  1  'x, y, z'
loop_
 _atom_site_type_symbol
 _atom_site_label
 _atom_site_symmetry_multiplicity
 _atom_site_fract_x
 _atom_site_fract_y
 _atom_site_fract_z
 _atom_site_occupancy
  Li  Li0  1  0.47048600  0.43057499  0.65789699  1
  Li  Li1  1  0.50687000  0.76726799  0.00253997  1
  Li  Li2  1  0.50925900  0.09118600  0.31986700  1
  Cu  Cu3  1  0.00687000  0.23273200  0.99746000  1
  Cu  Cu4  1  0.97048601  0.56942499  0.34210298  1
  Cu  Cu5  1  0.00925900  0.90881399  0.68013297  1
  F  F6  1  0.80576901  0.27868400  0.22115599  1
  F  F7  1  0.80733101  0.95364499  0.89889197  1
  F  F8  1  0.80592201  0.62142799  0.57429598  1
  F  F9  1  0.69368500  0.78920799  0.23247597  1
  F  F10  1  0.30733100  0.04635500  0.10110800  1
  F  F11  1  0.30592200  0.37857200  0.42570399  1
  F  F12  1  0.30576900  0.72131599  0.77884398  1
  F  F13  1  0.19368500  0.21079200  0.76752400  1
  F  F14  1  0.70769800  0.11222700  0.56122800  1
  F  F15  1  0.69298000  0.45541199  0.90108599  1
  F  F16  1  0.19298000  0.54458799  0.09891398  1
  F  F17  1  0.20769800  0.88777299  0.43877197  1
