# generated using pymatgen
data_Sc(CoSi)2
_symmetry_space_group_name_H-M   'P 1'
_cell_length_a   3.77032995
_cell_length_b   3.77032995
_cell_length_c   5.29320335
_cell_angle_alpha   110.86383057
_cell_angle_beta   110.86383057
_cell_angle_gamma   90.00000000
_symmetry_Int_Tables_number   1
_chemical_formula_structural   Sc(CoSi)2
_chemical_formula_sum   'Sc1 Co2 Si2'
_cell_volume   65.00382975
_cell_formula_units_Z   1
loop_
 _symmetry_equiv_pos_site_id
 _symmetry_equiv_pos_as_xyz
  1  'x, y, z'
loop_
 _atom_site_type_symbol
 _atom_site_label
 _atom_site_symmetry_multiplicity
 _atom_site_fract_x
 _atom_site_fract_y
 _atom_site_fract_z
 _atom_site_occupancy
  Sc  Sc0  1  0.00000000  0.00000000  0.00000000  1
  Co  Co1  1  0.74999999  0.25000000  0.49999997  1
  Co  Co2  1  0.24999997  0.74999999  0.49999996  1
  Si  Si3  1  0.38165498  0.38165500  0.76330997  1
  Si  Si4  1  0.61834497  0.61834499  0.23668995  1
