# generated using pymatgen
data_Nd4(Si3Pt)3
_symmetry_space_group_name_H-M   'P 1'
_cell_length_a   4.22528601
_cell_length_b   4.26055002
_cell_length_c   17.56783295
_cell_angle_alpha   96.96482849
_cell_angle_beta   96.90689850
_cell_angle_gamma   90.00000000
_symmetry_Int_Tables_number   1
_chemical_formula_structural   Nd4(Si3Pt)3
_chemical_formula_sum   'Nd4 Si9 Pt3'
_cell_volume   311.61083740
_cell_formula_units_Z   1
loop_
 _symmetry_equiv_pos_site_id
 _symmetry_equiv_pos_as_xyz
  1  'x, y, z'
loop_
 _atom_site_type_symbol
 _atom_site_label
 _atom_site_symmetry_multiplicity
 _atom_site_fract_x
 _atom_site_fract_y
 _atom_site_fract_z
 _atom_site_occupancy
  Nd  Nd0  1  0.42723001  0.42723000  0.85445999  1
  Nd  Nd1  1  0.57277001  0.57277000  0.14554001  1
  Nd  Nd2  1  0.82234001  0.32234000  0.64468000  1
  Nd  Nd3  1  0.17766001  0.67766000  0.35532001  1
  Si  Si4  1  0.35400101  0.85400100  0.70800200  1
  Si  Si5  1  0.64599900  0.14599900  0.29199800  1
  Si  Si6  1  0.71131001  0.21131000  0.42262000  1
  Si  Si7  1  0.28869001  0.78869000  0.57738000  1
  Si  Si8  1  0.95968102  0.95968100  0.91936201  1
  Si  Si9  1  0.04031900  0.04031900  0.08063800  1
  Si  Si10  1  0.50000001  1.00000000  0.00000002  1
  Si  Si11  1  0.24938900  0.24938900  0.49877800  1
  Pt  Pt12  1  0.75061101  0.75061100  0.50122201  1
  Si  Si13  1  0.88984001  0.88984000  0.77968001  1
  Pt  Pt14  1  0.11016000  0.11016000  0.22032000  1
  Pt  Pt15  1  0.00000001  0.50000000  0.00000001  1
