# generated using pymatgen
data_LiNbN4
_symmetry_space_group_name_H-M   'P 1'
_cell_length_a   2.83282804
_cell_length_b   3.70258951
_cell_length_c   5.78152323
_cell_angle_alpha   95.56523132
_cell_angle_beta   90.00000000
_cell_angle_gamma   112.49153137
_symmetry_Int_Tables_number   1
_chemical_formula_structural   LiNbN4
_chemical_formula_sum   'Li1 Nb1 N4'
_cell_volume   55.71913349
_cell_formula_units_Z   1
loop_
 _symmetry_equiv_pos_site_id
 _symmetry_equiv_pos_as_xyz
  1  'x, y, z'
loop_
 _atom_site_type_symbol
 _atom_site_label
 _atom_site_symmetry_multiplicity
 _atom_site_fract_x
 _atom_site_fract_y
 _atom_site_fract_z
 _atom_site_occupancy
  Li  Li0  1  0.32534800  0.65069599  0.76896401  1
  Nb  Nb1  1  0.67465199  0.34930399  0.23103601  1
  N  N2  1  0.62750699  0.25501400  0.86450501  1
  N  N3  1  0.37249300  0.74498599  0.13549501  1
  N  N4  1  0.09717000  0.19434000  0.47105901  1
  N  N5  1  0.90282999  0.80565999  0.52894101  1
