# generated using pymatgen
data_Y2Ga3Co
_symmetry_space_group_name_H-M   'P 1'
_cell_length_a   4.25980616
_cell_length_b   4.25980663
_cell_length_c   15.33632565
_cell_angle_alpha   90.00000000
_cell_angle_beta   90.00000000
_cell_angle_gamma   119.99999237
_symmetry_Int_Tables_number   1
_chemical_formula_structural   Y2Ga3Co
_chemical_formula_sum   'Y4 Ga6 Co2'
_cell_volume   241.00813887
_cell_formula_units_Z   2
loop_
 _symmetry_equiv_pos_site_id
 _symmetry_equiv_pos_as_xyz
  1  'x, y, z'
loop_
 _atom_site_type_symbol
 _atom_site_label
 _atom_site_symmetry_multiplicity
 _atom_site_fract_x
 _atom_site_fract_y
 _atom_site_fract_z
 _atom_site_occupancy
  Y  Y0  1  0.00000000  0.00000000  0.50000001  1
  Y  Y1  1  0.00000000  0.00000000  0.00000000  1
  Y  Y2  1  0.00000000  0.00000000  0.75000002  1
  Y  Y3  1  0.00000000  0.00000000  0.25000001  1
  Ga  Ga4  1  0.66666663  0.33333333  0.11507700  1
  Ga  Ga5  1  0.33333329  0.66666666  0.88492302  1
  Ga  Ga6  1  0.33333329  0.66666666  0.61507701  1
  Ga  Ga7  1  0.66666663  0.33333333  0.38492301  1
  Ga  Ga8  1  0.66666663  0.33333333  0.63570201  1
  Ga  Ga9  1  0.33333329  0.66666666  0.36429801  1
  Co  Co10  1  0.33333329  0.66666666  0.13570200  1
  Co  Co11  1  0.66666663  0.33333333  0.86429802  1
