# generated using pymatgen
data_Li7Sn
_symmetry_space_group_name_H-M   'P 1'
_cell_length_a   5.09638214
_cell_length_b   6.15295410
_cell_length_c   6.15295362
_cell_angle_alpha   120.00000000
_cell_angle_beta   90.00000000
_cell_angle_gamma   90.00000000
_symmetry_Int_Tables_number   1
_chemical_formula_structural   Li7Sn
_chemical_formula_sum   'Li7 Sn1'
_cell_volume   167.09364547
_cell_formula_units_Z   1
loop_
 _symmetry_equiv_pos_site_id
 _symmetry_equiv_pos_as_xyz
  1  'x, y, z'
loop_
 _atom_site_type_symbol
 _atom_site_label
 _atom_site_symmetry_multiplicity
 _atom_site_fract_x
 _atom_site_fract_y
 _atom_site_fract_z
 _atom_site_occupancy
  Li  Li0  1  0.24999999  0.33746199  0.16873098  1
  Li  Li1  1  0.24999999  0.83126897  0.16873096  1
  Li  Li2  1  0.24999999  0.83126897  0.66253796  1
  Li  Li3  1  0.74999998  0.16873099  0.83126899  1
  Li  Li4  1  0.74999998  0.16873099  0.33746199  1
  Li  Li5  1  0.74999998  0.66253797  0.83126897  1
  Li  Li6  1  0.24999999  0.33333332  0.66666665  1
  Sn  Sn7  1  0.74999998  0.66666664  0.33333330  1
