# generated using pymatgen
data_RbYCuSe3
_symmetry_space_group_name_H-M   'P 1'
_cell_length_a   4.29278183
_cell_length_b   8.25284958
_cell_length_c   11.41116810
_cell_angle_alpha   90.00000000
_cell_angle_beta   90.00000000
_cell_angle_gamma   105.07473755
_symmetry_Int_Tables_number   1
_chemical_formula_structural   RbYCuSe3
_chemical_formula_sum   'Rb2 Y2 Cu2 Se6'
_cell_volume   390.35921697
_cell_formula_units_Z   2
loop_
 _symmetry_equiv_pos_site_id
 _symmetry_equiv_pos_as_xyz
  1  'x, y, z'
loop_
 _atom_site_type_symbol
 _atom_site_label
 _atom_site_symmetry_multiplicity
 _atom_site_fract_x
 _atom_site_fract_y
 _atom_site_fract_z
 _atom_site_occupancy
  Rb  Rb0  1  0.74207406  0.48414803  0.74999999  1
  Rb  Rb1  1  0.25792604  0.51585203  0.25000000  1
  Y  Y2  1  0.00000000  0.00000000  0.00000000  1
  Y  Y3  1  0.00000000  0.00000000  0.50000000  1
  Cu  Cu4  1  0.46214508  0.92429005  0.74999999  1
  Cu  Cu5  1  0.53785503  0.07571000  0.25000000  1
  Se  Se6  1  0.38511607  0.77023204  0.92829899  1
  Se  Se7  1  0.61488404  0.22976801  0.07170100  1
  Se  Se8  1  0.61488404  0.22976801  0.42829900  1
  Se  Se9  1  0.38511607  0.77023204  0.57170100  1
  Se  Se10  1  0.04320501  0.08641000  0.74999999  1
  Se  Se11  1  0.95679510  0.91359005  0.25000000  1
