# generated using pymatgen
data_U(SCl4)2
_symmetry_space_group_name_H-M   'P 1'
_cell_length_a   7.79190207
_cell_length_b   7.79190207
_cell_length_c   9.32067299
_cell_angle_alpha   90.00000000
_cell_angle_beta   90.00000000
_cell_angle_gamma   120.00000000
_symmetry_Int_Tables_number   1
_chemical_formula_structural   U(SCl4)2
_chemical_formula_sum   'U1 S2 Cl8'
_cell_volume   490.07762369
_cell_formula_units_Z   1
loop_
 _symmetry_equiv_pos_site_id
 _symmetry_equiv_pos_as_xyz
  1  'x, y, z'
loop_
 _atom_site_type_symbol
 _atom_site_label
 _atom_site_symmetry_multiplicity
 _atom_site_fract_x
 _atom_site_fract_y
 _atom_site_fract_z
 _atom_site_occupancy
  Cl  Cl0  1  0.66666666  0.33333333  0.81314600  1
  U  U1  1  0.33333333  0.66666665  0.18685400  1
  S  S2  1  -0.00000000  0.49999999  -0.00000000  1
  S  S3  1  0.49999999  0.49999999  -0.00000000  1
  Cl  Cl4  1  0.50000000  0.00000000  0.00000000  1
  Cl  Cl5  1  0.82601299  0.65202599  0.67077600  1
  Cl  Cl6  1  0.34797400  0.17398700  0.67077600  1
  Cl  Cl7  1  0.82601299  0.17398700  0.67077600  1
  Cl  Cl8  1  0.17398700  0.34797399  0.32922400  1
  Cl  Cl9  1  0.65202599  0.82601298  0.32922400  1
  Cl  Cl10  1  0.17398699  0.82601298  0.32922400  1
