# generated using pymatgen
data_K2Zr2O5
_symmetry_space_group_name_H-M   'P 1'
_cell_length_a   4.35497618
_cell_length_b   4.35497618
_cell_length_c   8.68905830
_cell_angle_alpha   90.00000000
_cell_angle_beta   90.00000000
_cell_angle_gamma   90.00000000
_symmetry_Int_Tables_number   1
_chemical_formula_structural   K2Zr2O5
_chemical_formula_sum   'K2 Zr2 O5'
_cell_volume   164.79509407
_cell_formula_units_Z   1
loop_
 _symmetry_equiv_pos_site_id
 _symmetry_equiv_pos_as_xyz
  1  'x, y, z'
loop_
 _atom_site_type_symbol
 _atom_site_label
 _atom_site_symmetry_multiplicity
 _atom_site_fract_x
 _atom_site_fract_y
 _atom_site_fract_z
 _atom_site_occupancy
  K  K0  1  0.00000000  0.00000000  0.00000000  1
  K  K1  1  0.00000000  0.00000000  0.49999998  1
  Zr  Zr2  1  0.49999998  0.49999998  0.25663199  1
  Zr  Zr3  1  0.49999998  0.49999998  0.74336797  1
  O  O4  1  0.49999998  0.00000000  0.22089999  1
  O  O5  1  0.49999998  0.00000000  0.77909997  1
  O  O6  1  0.49999998  0.49999998  0.49999998  1
  O  O7  1  0.00000000  0.49999998  0.22089999  1
  O  O8  1  0.00000000  0.49999998  0.77909997  1
