# generated using pymatgen
data_DyY7C12
_symmetry_space_group_name_H-M   'P 1'
_cell_length_a   7.09219742
_cell_length_b   7.09219742
_cell_length_c   7.09219742
_cell_angle_alpha   109.47122192
_cell_angle_beta   109.47122192
_cell_angle_gamma   109.47122192
_symmetry_Int_Tables_number   1
_chemical_formula_structural   DyY7C12
_chemical_formula_sum   'Dy1 Y7 C12'
_cell_volume   274.61264858
_cell_formula_units_Z   1
loop_
 _symmetry_equiv_pos_site_id
 _symmetry_equiv_pos_as_xyz
  1  'x, y, z'
loop_
 _atom_site_type_symbol
 _atom_site_label
 _atom_site_symmetry_multiplicity
 _atom_site_fract_x
 _atom_site_fract_y
 _atom_site_fract_z
 _atom_site_occupancy
  Dy  Dy0  1  0.89910205  1.00000002  0.00000008  1
  Y  Y1  1  0.10089800  0.10089800  0.60089799  1
  Y  Y2  1  1.00000002  0.50000001  0.89910203  1
  Y  Y3  1  0.50000002  0.39910201  0.50000002  1
  Y  Y4  1  0.00000003  0.50000001  0.39910202  1
  Y  Y5  1  0.50000005  0.89910202  0.50000005  1
  Y  Y6  1  0.60089803  0.60089801  0.10089805  1
  Y  Y7  1  0.39910206  1.00000002  1.00000004  1
  C  C8  1  0.74999999  0.04313600  0.29313601  1
  C  C9  1  0.54313601  0.25000000  0.79313601  1
  C  C10  1  0.95686403  0.75000001  0.70686405  1
  C  C11  1  0.20686406  0.95686402  0.25000005  1
  C  C12  1  0.29313603  0.54313601  0.75000002  1
  C  C13  1  0.75000000  0.20686400  0.45686402  1
  C  C14  1  0.04313605  0.79313601  0.25000004  1
  C  C15  1  0.79313604  0.75000001  0.54313605  1
  C  C16  1  0.45686404  0.70686401  0.75000003  1
  C  C17  1  0.70686401  0.25000000  0.95686401  1
  C  C18  1  0.25000003  0.45686401  0.20686403  1
  C  C19  1  0.25000002  0.29313601  0.04313602  1
