# generated using pymatgen
data_Er2Sn
_symmetry_space_group_name_H-M   'P 1'
_cell_length_a   4.14198303
_cell_length_b   8.22743034
_cell_length_c   8.22743034
_cell_angle_alpha   120.00000000
_cell_angle_beta   90.00000000
_cell_angle_gamma   90.00000000
_symmetry_Int_Tables_number   1
_chemical_formula_structural   Er2Sn
_chemical_formula_sum   'Er6 Sn3'
_cell_volume   242.81045084
_cell_formula_units_Z   3
loop_
 _symmetry_equiv_pos_site_id
 _symmetry_equiv_pos_as_xyz
  1  'x, y, z'
loop_
 _atom_site_type_symbol
 _atom_site_label
 _atom_site_symmetry_multiplicity
 _atom_site_fract_x
 _atom_site_fract_y
 _atom_site_fract_z
 _atom_site_occupancy
  Er  Er0  1  0.99999999  0.76563398  0.76563405  1
  Er  Er1  1  0.99999999  0.23436600  1.00000003  1
  Er  Er2  1  -0.00000000  0.99999998  0.23436605  1
  Er  Er3  1  0.50000000  0.39907099  0.39907103  1
  Er  Er4  1  0.50000000  0.60092899  1.00000005  1
  Er  Er5  1  0.50000000  0.00000000  0.60092901  1
  Sn  Sn6  1  0.50000000  0.00000000  -0.00000000  1
  Sn  Sn7  1  -0.00000000  0.66666665  0.33333337  1
  Sn  Sn8  1  0.99999999  0.33333333  0.66666670  1
