# generated using pymatgen
data_Sc2B2MoRh5
_symmetry_space_group_name_H-M   'P 1'
_cell_length_a   2.92291307
_cell_length_b   9.45946598
_cell_length_c   9.45946598
_cell_angle_alpha   90.00000000
_cell_angle_beta   90.00000000
_cell_angle_gamma   90.00000000
_symmetry_Int_Tables_number   1
_chemical_formula_structural   Sc2B2MoRh5
_chemical_formula_sum   'Sc4 B4 Mo2 Rh10'
_cell_volume   261.54663644
_cell_formula_units_Z   2
loop_
 _symmetry_equiv_pos_site_id
 _symmetry_equiv_pos_as_xyz
  1  'x, y, z'
loop_
 _atom_site_type_symbol
 _atom_site_label
 _atom_site_symmetry_multiplicity
 _atom_site_fract_x
 _atom_site_fract_y
 _atom_site_fract_z
 _atom_site_occupancy
  Sc  Sc0  1  0.99999997  0.82375200  0.32375200  1
  Sc  Sc1  1  0.00000000  0.17624800  0.67624800  1
  Sc  Sc2  1  0.00000000  0.32375200  0.17624800  1
  Sc  Sc3  1  0.99999997  0.67624800  0.82375200  1
  Mo  Mo4  1  0.00000000  0.50000000  0.50000000  1
  Mo  Mo5  1  0.00000000  0.00000000  0.00000000  1
  B  B6  1  0.99999997  0.62601500  0.12601500  1
  B  B7  1  0.00000000  0.37398500  0.87398500  1
  B  B8  1  0.00000000  0.12601500  0.37398500  1
  B  B9  1  0.99999997  0.87398500  0.62601500  1
  Rh  Rh10  1  0.49999999  0.50000000  0.00000000  1
  Rh  Rh11  1  0.49999999  1.00000000  0.50000000  1
  Rh  Rh12  1  0.49999999  0.71396700  0.57068000  1
  Rh  Rh13  1  0.49999999  0.28603300  0.42932000  1
  Rh  Rh14  1  0.49999999  0.21396700  0.92932000  1
  Rh  Rh15  1  0.49999999  0.78603300  0.07068000  1
  Rh  Rh16  1  0.49999999  0.42932000  0.71396700  1
  Rh  Rh17  1  0.49999999  0.57068000  0.28603300  1
  Rh  Rh18  1  0.49999999  0.07068000  0.21396700  1
  Rh  Rh19  1  0.49999999  0.92932000  0.78603300  1
