# generated using pymatgen
data_Ba5Sr(Mg3Sn2)2
_symmetry_space_group_name_H-M   'P 1'
_cell_length_a   7.53073406
_cell_length_b   9.23163128
_cell_length_c   10.60139942
_cell_angle_alpha   90.00000000
_cell_angle_beta   90.00000000
_cell_angle_gamma   114.07151794
_symmetry_Int_Tables_number   1
_chemical_formula_structural   Ba5Sr(Mg3Sn2)2
_chemical_formula_sum   'Ba5 Sr1 Mg6 Sn4'
_cell_volume   672.92607782
_cell_formula_units_Z   1
loop_
 _symmetry_equiv_pos_site_id
 _symmetry_equiv_pos_as_xyz
  1  'x, y, z'
loop_
 _atom_site_type_symbol
 _atom_site_label
 _atom_site_symmetry_multiplicity
 _atom_site_fract_x
 _atom_site_fract_y
 _atom_site_fract_z
 _atom_site_occupancy
  Ba  Ba0  1  0.76934196  0.53868398  0.74999997  1
  Ba  Ba1  1  0.23065797  0.46131598  0.24999999  1
  Ba  Ba2  1  0.38931995  0.77863997  0.95093696  1
  Ba  Ba3  1  0.61067998  0.22135999  0.04906300  1
  Ba  Ba4  1  0.61067998  0.22135999  0.45093698  1
  Sr  Sr5  1  0.38931995  0.77863997  0.54906298  1
  Mg  Mg6  1  0.00000000  0.00000000  0.00000000  1
  Mg  Mg7  1  0.00000000  0.00000000  0.49999998  1
  Mg  Mg8  1  0.82986399  0.08118700  0.74999997  1
  Mg  Mg9  1  0.17013594  0.91881296  0.24999999  1
  Mg  Mg10  1  0.25132299  0.08118700  0.74999997  1
  Mg  Mg11  1  0.74867694  0.91881296  0.24999999  1
  Sn  Sn12  1  0.17214598  0.34429198  0.89691296  1
  Sn  Sn13  1  0.82785395  0.65570797  0.10308700  1
  Sn  Sn14  1  0.82785395  0.65570797  0.39691298  1
  Sn  Sn15  1  0.17214598  0.34429198  0.60308698  1
