# generated using pymatgen
data_HoBO3
_symmetry_space_group_name_H-M   'P 1'
_cell_length_a   3.59897661
_cell_length_b   4.56267452
_cell_length_c   8.29874706
_cell_angle_alpha   90.00000000
_cell_angle_beta   90.00000000
_cell_angle_gamma   113.22135162
_symmetry_Int_Tables_number   1
_chemical_formula_structural   HoBO3
_chemical_formula_sum   'Ho2 B2 O6'
_cell_volume   125.23366910
_cell_formula_units_Z   2
loop_
 _symmetry_equiv_pos_site_id
 _symmetry_equiv_pos_as_xyz
  1  'x, y, z'
loop_
 _atom_site_type_symbol
 _atom_site_label
 _atom_site_symmetry_multiplicity
 _atom_site_fract_x
 _atom_site_fract_y
 _atom_site_fract_z
 _atom_site_occupancy
  Ho  Ho0  1  0.00000000  0.00000000  0.50000000  1
  Ho  Ho1  1  0.00000000  0.00000000  0.00000000  1
  B  B2  1  0.27823296  0.56260200  0.74999999  1
  B  B3  1  0.72176697  0.43739800  0.25000000  1
  O  O4  1  0.35955395  0.72523200  0.60347800  1
  O  O5  1  0.64044598  0.27476800  0.39652200  1
  O  O6  1  0.64044598  0.27476800  0.10347800  1
  O  O7  1  0.35955395  0.72523200  0.89652199  1
  O  O8  1  0.88268394  0.76385800  0.25000000  1
  O  O9  1  0.11731598  0.23614200  0.74999999  1
