# generated using pymatgen
data_BeH
_symmetry_space_group_name_H-M   'P 1'
_cell_length_a   3.43170452
_cell_length_b   3.43170857
_cell_length_c   3.43793249
_cell_angle_alpha   90.07947540
_cell_angle_beta   119.89187622
_cell_angle_gamma   119.95649719
_symmetry_Int_Tables_number   1
_chemical_formula_structural   BeH
_chemical_formula_sum   'Be1 H1'
_cell_volume   28.67446319
_cell_formula_units_Z   1
loop_
 _symmetry_equiv_pos_site_id
 _symmetry_equiv_pos_as_xyz
  1  'x, y, z'
loop_
 _atom_site_type_symbol
 _atom_site_label
 _atom_site_symmetry_multiplicity
 _atom_site_fract_x
 _atom_site_fract_y
 _atom_site_fract_z
 _atom_site_occupancy
  Be  Be0  1  0.00046592  0.50019797  0.50066491  1
  H  H1  1  0.49953387  0.74980196  0.24933585  1
