# generated using pymatgen
data_AlPd
_symmetry_space_group_name_H-M   'P 1'
_cell_length_a   3.45144892
_cell_length_b   6.31267405
_cell_length_c   16.61627579
_cell_angle_alpha   90.00000000
_cell_angle_beta   90.00000000
_cell_angle_gamma   90.00000000
_symmetry_Int_Tables_number   1
_chemical_formula_structural   AlPd
_chemical_formula_sum   'Al10 Pd10'
_cell_volume   362.03328998
_cell_formula_units_Z   10
loop_
 _symmetry_equiv_pos_site_id
 _symmetry_equiv_pos_as_xyz
  1  'x, y, z'
loop_
 _atom_site_type_symbol
 _atom_site_label
 _atom_site_symmetry_multiplicity
 _atom_site_fract_x
 _atom_site_fract_y
 _atom_site_fract_z
 _atom_site_occupancy
  Al  Al0  1  0.25000001  0.94146899  0.42887301  1
  Al  Al1  1  0.25000001  0.84132399  0.73140101  1
  Al  Al2  1  0.75000002  0.05853100  0.57112701  1
  Al  Al3  1  0.25000001  0.55853100  0.92887301  1
  Al  Al4  1  0.75000002  0.41488800  0.38744300  1
  Al  Al5  1  0.25000001  0.58511200  0.61255701  1
  Al  Al6  1  0.75000002  0.44146900  0.07112700  1
  Al  Al7  1  0.75000002  0.34132400  0.76859901  1
  Al  Al8  1  0.75000002  0.15867600  0.26859900  1
  Al  Al9  1  0.25000001  0.65867600  0.23140100  1
  Pd  Pd10  1  0.75000002  0.08511200  0.88744301  1
  Pd  Pd11  1  0.25000001  0.91488799  0.11255700  1
  Pd  Pd12  1  0.25000001  0.20632000  0.67041001  1
  Pd  Pd13  1  0.25000001  0.19569600  0.99319001  1
  Pd  Pd14  1  0.25000001  0.29368000  0.17041000  1
  Pd  Pd15  1  0.75000002  0.69569599  0.50681001  1
  Pd  Pd16  1  0.25000001  0.30430400  0.49319001  1
  Pd  Pd17  1  0.75000002  0.70631999  0.82959001  1
  Pd  Pd18  1  0.75000002  0.79367999  0.32959000  1
  Pd  Pd19  1  0.75000002  0.80430399  0.00681000  1
