# generated using pymatgen
data_TmGaPt
_symmetry_space_group_name_H-M   'P 1'
_cell_length_a   4.36178493
_cell_length_b   7.01969624
_cell_length_c   7.49364424
_cell_angle_alpha   90.00000000
_cell_angle_beta   90.00000000
_cell_angle_gamma   90.00000000
_symmetry_Int_Tables_number   1
_chemical_formula_structural   TmGaPt
_chemical_formula_sum   'Tm4 Ga4 Pt4'
_cell_volume   229.44343636
_cell_formula_units_Z   4
loop_
 _symmetry_equiv_pos_site_id
 _symmetry_equiv_pos_as_xyz
  1  'x, y, z'
loop_
 _atom_site_type_symbol
 _atom_site_label
 _atom_site_symmetry_multiplicity
 _atom_site_fract_x
 _atom_site_fract_y
 _atom_site_fract_z
 _atom_site_occupancy
  Tm  Tm0  1  0.25000000  0.02027800  0.80092197  1
  Tm  Tm1  1  0.25000000  0.52027798  0.69907798  1
  Tm  Tm2  1  0.75000001  0.97972197  0.19907799  1
  Tm  Tm3  1  0.75000001  0.47972198  0.30092199  1
  Ga  Ga4  1  0.25000000  0.17933999  0.42079099  1
  Ga  Ga5  1  0.25000000  0.67933998  0.07920900  1
  Ga  Ga6  1  0.75000001  0.82065997  0.57920898  1
  Ga  Ga7  1  0.75000001  0.32065999  0.92079097  1
  Pt  Pt8  1  0.25000000  0.79393297  0.40948999  1
  Pt  Pt9  1  0.25000000  0.29393299  0.09051000  1
  Pt  Pt10  1  0.75000001  0.20606699  0.59050998  1
  Pt  Pt11  1  0.75000001  0.70606698  0.90948997  1
