# generated using pymatgen
data_KAsO4
_symmetry_space_group_name_H-M   'P 1'
_cell_length_a   5.81500578
_cell_length_b   5.81500578
_cell_length_c   8.06547737
_cell_angle_alpha   111.13013458
_cell_angle_beta   111.13013458
_cell_angle_gamma   90.00000000
_symmetry_Int_Tables_number   1
_chemical_formula_structural   KAsO4
_chemical_formula_sum   'K2 As2 O8'
_cell_volume   234.62532023
_cell_formula_units_Z   2
loop_
 _symmetry_equiv_pos_site_id
 _symmetry_equiv_pos_as_xyz
  1  'x, y, z'
loop_
 _atom_site_type_symbol
 _atom_site_label
 _atom_site_symmetry_multiplicity
 _atom_site_fract_x
 _atom_site_fract_y
 _atom_site_fract_z
 _atom_site_occupancy
  K  K0  1  0.00000000  0.00000000  0.00000000  1
  K  K1  1  0.75000005  0.25000002  0.50000005  1
  As  As2  1  0.50000005  0.50000003  0.00000005  1
  As  As3  1  0.25000005  0.75000005  0.50000006  1
  O  O4  1  0.53794906  0.74076805  0.63531907  1
  O  O5  1  0.65263005  0.35544902  0.86468006  1
  O  O6  1  0.49076904  0.34737002  0.13531904  1
  O  O7  1  0.10544903  0.46205003  0.36468004  1
  O  O8  1  0.25923106  0.90263006  0.36468106  1
  O  O9  1  0.64455107  0.78795005  0.13532007  1
  O  O10  1  0.21205104  0.50923203  0.86468105  1
  O  O11  1  0.09737005  0.89455106  0.63532006  1
