# generated using pymatgen
data_Ti(NbGe3)2
_symmetry_space_group_name_H-M   'P 1'
_cell_length_a   4.85324574
_cell_length_b   4.85422850
_cell_length_c   13.41292286
_cell_angle_alpha   90.00509644
_cell_angle_beta   90.33546448
_cell_angle_gamma   119.98617554
_symmetry_Int_Tables_number   1
_chemical_formula_structural   Ti(NbGe3)2
_chemical_formula_sum   'Ti2 Nb4 Ge12'
_cell_volume   273.68876024
_cell_formula_units_Z   2
loop_
 _symmetry_equiv_pos_site_id
 _symmetry_equiv_pos_as_xyz
  1  'x, y, z'
loop_
 _atom_site_type_symbol
 _atom_site_label
 _atom_site_symmetry_multiplicity
 _atom_site_fract_x
 _atom_site_fract_y
 _atom_site_fract_z
 _atom_site_occupancy
  Ti  Ti0  1  0.83327660  0.66717339  0.91523708  1
  Nb  Nb1  1  0.83639684  0.66933533  0.41732665  1
  Ti  Ti2  1  0.33108863  0.16420806  0.75072218  1
  Nb  Nb3  1  0.33167916  0.16515939  0.25088944  1
  Nb  Nb4  1  0.83186487  0.16407219  0.58393355  1
  Nb  Nb5  1  0.83667565  0.16617492  0.08191029  1
  Ge  Ge6  1  0.17190561  0.33435782  0.91394136  1
  Ge  Ge7  1  0.16581629  0.33607242  0.41704498  1
  Ge  Ge8  1  0.66724710  0.83065556  0.75237632  1
  Ge  Ge9  1  0.67227998  0.83328316  0.25210742  1
  Ge  Ge10  1  0.16363191  0.83952033  0.58350901  1
  Ge  Ge11  1  0.15833974  0.83189991  0.08101404  1
  Ge  Ge12  1  0.49981894  0.99928694  0.91963095  1
  Ge  Ge13  1  0.50010850  0.00057349  0.41639969  1
  Ge  Ge14  1  0.99934538  0.49969966  0.74727431  1
  Ge  Ge15  1  0.00028258  0.49963136  0.24740990  1
  Ge  Ge16  1  0.50036535  0.50037408  0.58299756  1
  Ge  Ge17  1  0.49987692  0.49852233  0.08627492  1
