# generated using pymatgen
data_Sr5Ga3
_symmetry_space_group_name_H-M   'P 1'
_cell_length_a   8.17466831
_cell_length_b   8.17466831
_cell_length_c   9.85454082
_cell_angle_alpha   114.50461578
_cell_angle_beta   114.50461578
_cell_angle_gamma   90.00000000
_symmetry_Int_Tables_number   1
_chemical_formula_structural   Sr5Ga3
_chemical_formula_sum   'Sr10 Ga6'
_cell_volume   533.34456917
_cell_formula_units_Z   2
loop_
 _symmetry_equiv_pos_site_id
 _symmetry_equiv_pos_as_xyz
  1  'x, y, z'
loop_
 _atom_site_type_symbol
 _atom_site_label
 _atom_site_symmetry_multiplicity
 _atom_site_fract_x
 _atom_site_fract_y
 _atom_site_fract_z
 _atom_site_occupancy
  Sr  Sr0  1  0.03752499  0.53752498  0.71841800  1
  Sr  Sr1  1  0.53752497  0.68089297  0.71841799  1
  Sr  Sr2  1  0.18089299  0.03752500  0.71841800  1
  Sr  Sr3  1  0.46247498  0.31910699  0.28158199  1
  Sr  Sr4  1  0.68089297  0.18089299  0.71841800  1
  Sr  Sr5  1  0.96247495  0.46247498  0.28158199  1
  Sr  Sr6  1  0.31910698  0.81910696  0.28158199  1
  Sr  Sr7  1  0.81910695  0.96247496  0.28158198  1
  Sr  Sr8  1  0.49999997  0.49999998  -0.00000001  1
  Sr  Sr9  1  0.00000000  0.00000000  0.00000000  1
  Ga  Ga10  1  0.11372599  0.38627298  0.99999900  1
  Ga  Ga11  1  0.61372597  0.11372599  -0.00000001  1
  Ga  Ga12  1  0.38627397  0.88627396  -0.00000002  1
  Ga  Ga13  1  0.88627396  0.61372697  0.00000098  1
  Ga  Ga14  1  0.74999996  0.74999997  0.49999999  1
  Ga  Ga15  1  0.24999999  0.24999999  0.50000000  1
