# generated using pymatgen
data_Sr4Bi3O13
_symmetry_space_group_name_H-M   'P 1'
_cell_length_a   5.87406397
_cell_length_b   6.03268337
_cell_length_c   8.38943386
_cell_angle_alpha   89.86824036
_cell_angle_beta   90.08562469
_cell_angle_gamma   89.93859100
_symmetry_Int_Tables_number   1
_chemical_formula_structural   Sr4Bi3O13
_chemical_formula_sum   'Sr4 Bi3 O13'
_cell_volume   297.28977596
_cell_formula_units_Z   1
loop_
 _symmetry_equiv_pos_site_id
 _symmetry_equiv_pos_as_xyz
  1  'x, y, z'
loop_
 _atom_site_type_symbol
 _atom_site_label
 _atom_site_symmetry_multiplicity
 _atom_site_fract_x
 _atom_site_fract_y
 _atom_site_fract_z
 _atom_site_occupancy
  Sr  Sr0  1  0.48828101  0.54839052  0.75064178  1
  Sr  Sr1  1  0.51171897  0.45160944  0.24935824  1
  Sr  Sr2  1  0.01430109  0.05418939  0.75000982  1
  Sr  Sr3  1  0.98569890  0.94581058  0.24999020  1
  Bi  Bi4  1  0.50000000  0.00000000  0.00000001  1
  Bi  Bi5  1  -0.00000001  0.49999998  0.49999999  1
  Bi  Bi6  1  -0.00000001  0.49999998  -0.00000001  1
  O  O7  1  0.50000000  0.00000000  0.50000002  1
  O  O8  1  0.80695657  0.19475607  0.05558053  1
  O  O9  1  0.70317815  0.70799123  0.44339695  1
  O  O10  1  0.19304341  0.80524389  0.94441949  1
  O  O11  1  0.29682184  0.29200874  0.55660307  1
  O  O12  1  0.70370459  0.70798810  0.05572900  1
  O  O13  1  0.80378460  0.19476677  0.44423536  1
  O  O14  1  0.29629540  0.29201187  0.94427101  1
  O  O15  1  0.19621538  0.80523319  0.55576465  1
  O  O16  1  0.61245612  0.96858337  0.74781805  1
  O  O17  1  0.90275628  0.45361207  0.74834957  1
  O  O18  1  0.38754386  0.03141660  0.25218196  1
  O  O19  1  0.09724371  0.54638789  0.25165044  1
