# generated using pymatgen
data_BaLaSb3
_symmetry_space_group_name_H-M   'P 1'
_cell_length_a   6.03399229
_cell_length_b   6.04141998
_cell_length_c   6.04141998
_cell_angle_alpha   89.96719360
_cell_angle_beta   89.98814392
_cell_angle_gamma   89.98814392
_symmetry_Int_Tables_number   1
_chemical_formula_structural   BaLaSb3
_chemical_formula_sum   'Ba1 La1 Sb3'
_cell_volume   220.23316323
_cell_formula_units_Z   1
loop_
 _symmetry_equiv_pos_site_id
 _symmetry_equiv_pos_as_xyz
  1  'x, y, z'
loop_
 _atom_site_type_symbol
 _atom_site_label
 _atom_site_symmetry_multiplicity
 _atom_site_fract_x
 _atom_site_fract_y
 _atom_site_fract_z
 _atom_site_occupancy
  Ba  Ba0  1  0.00318300  0.00438800  0.00438800  1
  La  La1  1  0.51565998  0.50494302  0.50494300  1
  Sb  Sb2  1  0.51442700  0.00350200  0.50459000  1
  Sb  Sb3  1  0.01556598  0.49199702  0.49199701  1
  Sb  Sb4  1  0.51442698  0.50459002  0.00350198  1
