# generated using pymatgen
data_Li2MnF6
_symmetry_space_group_name_H-M   'P 1'
_cell_length_a   4.83686256
_cell_length_b   4.83682919
_cell_length_c   9.23724747
_cell_angle_alpha   89.28780365
_cell_angle_beta   89.28631592
_cell_angle_gamma   89.88420105
_symmetry_Int_Tables_number   1
_chemical_formula_structural   Li2MnF6
_chemical_formula_sum   'Li4 Mn2 F12'
_cell_volume   216.07229028
_cell_formula_units_Z   2
loop_
 _symmetry_equiv_pos_site_id
 _symmetry_equiv_pos_as_xyz
  1  'x, y, z'
loop_
 _atom_site_type_symbol
 _atom_site_label
 _atom_site_symmetry_multiplicity
 _atom_site_fract_x
 _atom_site_fract_y
 _atom_site_fract_z
 _atom_site_occupancy
  Li  Li0  1  0.50241096  0.50243198  0.83260094  1
  Li  Li1  1  0.99558793  0.99553596  0.32850395  1
  Li  Li2  1  0.49757796  0.49755698  0.16740497  1
  Li  Li3  1  0.00441200  0.00444200  0.67150597  1
  Mn  Mn4  1  0.50007496  0.50007098  0.49989996  1
  Mn  Mn5  1  0.99998896  0.00008500  0.00002697  1
  F  F6  1  0.71752895  0.71750797  0.68822294  1
  F  F7  1  0.19916097  0.78643997  0.17583098  1
  F  F8  1  0.78645096  0.19914199  0.17583497  1
  F  F9  1  0.80084096  0.21352499  0.82418494  1
  F  F10  1  0.21352096  0.80083997  0.82418895  1
  F  F11  1  0.30330598  0.30328399  0.67725996  1
  F  F12  1  0.69669095  0.69669897  0.32272896  1
  F  F13  1  0.28246998  0.28248799  0.31179598  1
  F  F14  1  0.68815895  0.68816198  0.00091297  1
  F  F15  1  0.18614997  0.81383297  0.49999996  1
  F  F16  1  0.81383896  0.18613799  0.50001095  1
  F  F17  1  0.31182898  0.31181799  0.99908495  1
