# generated using pymatgen
data_CaTiO3
_symmetry_space_group_name_H-M   'P 1'
_cell_length_a   5.39494181
_cell_length_b   5.66608477
_cell_length_c   7.77632093
_cell_angle_alpha   90.00000000
_cell_angle_beta   90.00000000
_cell_angle_gamma   90.00000000
_symmetry_Int_Tables_number   1
_chemical_formula_structural   CaTiO3
_chemical_formula_sum   'Ca4 Ti4 O12'
_cell_volume   237.70811482
_cell_formula_units_Z   4
loop_
 _symmetry_equiv_pos_site_id
 _symmetry_equiv_pos_as_xyz
  1  'x, y, z'
loop_
 _atom_site_type_symbol
 _atom_site_label
 _atom_site_symmetry_multiplicity
 _atom_site_fract_x
 _atom_site_fract_y
 _atom_site_fract_z
 _atom_site_occupancy
  Ca  Ca0  1  0.98342604  0.06579900  0.25000000  1
  Ca  Ca1  1  0.48342602  0.43420102  0.75000001  1
  Ca  Ca2  1  0.51657402  0.56579902  0.25000000  1
  Ca  Ca3  1  0.01657400  0.93420104  0.75000001  1
  Ti  Ti4  1  0.00000000  0.50000002  0.00000000  1
  Ti  Ti5  1  0.50000002  0.00000000  0.50000000  1
  Ti  Ti6  1  0.50000002  0.00000000  0.00000000  1
  Ti  Ti7  1  0.00000000  0.50000002  0.50000000  1
  O  O8  1  0.30658601  0.69541303  0.55583600  1
  O  O9  1  0.39273101  0.96504704  0.25000000  1
  O  O10  1  0.19341401  0.19541301  0.94416401  1
  O  O11  1  0.69341402  0.30458701  0.05583600  1
  O  O12  1  0.69341402  0.30458701  0.44416400  1
  O  O13  1  0.80658603  0.80458703  0.44416400  1
  O  O14  1  0.30658601  0.69541303  0.94416401  1
  O  O15  1  0.19341401  0.19541301  0.55583600  1
  O  O16  1  0.89273103  0.53495302  0.75000001  1
  O  O17  1  0.60726902  0.03495300  0.75000001  1
  O  O18  1  0.80658603  0.80458703  0.05583600  1
  O  O19  1  0.10726900  0.46504702  0.25000000  1
