# generated using pymatgen
data_LiCrSe2
_symmetry_space_group_name_H-M   'P 1'
_cell_length_a   3.53422594
_cell_length_b   3.53422546
_cell_length_c   6.45915890
_cell_angle_alpha   90.00000000
_cell_angle_beta   90.00000000
_cell_angle_gamma   120.00000763
_symmetry_Int_Tables_number   1
_chemical_formula_structural   LiCrSe2
_chemical_formula_sum   'Li1 Cr1 Se2'
_cell_volume   69.87070553
_cell_formula_units_Z   1
loop_
 _symmetry_equiv_pos_site_id
 _symmetry_equiv_pos_as_xyz
  1  'x, y, z'
loop_
 _atom_site_type_symbol
 _atom_site_label
 _atom_site_symmetry_multiplicity
 _atom_site_fract_x
 _atom_site_fract_y
 _atom_site_fract_z
 _atom_site_occupancy
  Li  Li0  1  0.00000000  0.00000000  0.50000001  1
  Cr  Cr1  1  0.00000000  0.00000000  0.00000000  1
  Se  Se2  1  0.66666670  0.33333336  0.76673101  1
  Se  Se3  1  0.33333339  0.66666671  0.23326900  1
