# generated using pymatgen
data_K2BiSb
_symmetry_space_group_name_H-M   'P 1'
_cell_length_a   7.46069813
_cell_length_b   7.73767519
_cell_length_c   7.87354374
_cell_angle_alpha   107.04641724
_cell_angle_beta   104.44180298
_cell_angle_gamma   92.98465729
_symmetry_Int_Tables_number   1
_chemical_formula_structural   K2BiSb
_chemical_formula_sum   'K4 Bi2 Sb2'
_cell_volume   416.96357497
_cell_formula_units_Z   2
loop_
 _symmetry_equiv_pos_site_id
 _symmetry_equiv_pos_as_xyz
  1  'x, y, z'
loop_
 _atom_site_type_symbol
 _atom_site_label
 _atom_site_symmetry_multiplicity
 _atom_site_fract_x
 _atom_site_fract_y
 _atom_site_fract_z
 _atom_site_occupancy
  K  K0  1  0.26057107  0.84318999  0.05366904  1
  K  K1  1  0.73942901  0.15681000  0.94633106  1
  K  K2  1  0.81386605  0.71004400  0.36334606  1
  K  K3  1  0.18613402  0.28995600  0.63665403  1
  Bi  Bi4  1  0.31305003  0.39680400  0.21616503  1
  Bi  Bi5  1  0.68695004  0.60319600  0.78383507  1
  Sb  Sb6  1  0.63128502  0.24884200  0.44565004  1
  Sb  Sb7  1  0.36871506  0.75115800  0.55435005  1
