# generated using pymatgen
data_Tm(Fe2Si)2
_symmetry_space_group_name_H-M   'P 1'
_cell_length_a   3.78394794
_cell_length_b   7.24701500
_cell_length_c   7.24701500
_cell_angle_alpha   90.00000000
_cell_angle_beta   90.00000000
_cell_angle_gamma   90.00000000
_symmetry_Int_Tables_number   1
_chemical_formula_structural   Tm(Fe2Si)2
_chemical_formula_sum   'Tm2 Fe8 Si4'
_cell_volume   198.73001880
_cell_formula_units_Z   2
loop_
 _symmetry_equiv_pos_site_id
 _symmetry_equiv_pos_as_xyz
  1  'x, y, z'
loop_
 _atom_site_type_symbol
 _atom_site_label
 _atom_site_symmetry_multiplicity
 _atom_site_fract_x
 _atom_site_fract_y
 _atom_site_fract_z
 _atom_site_occupancy
  Tm  Tm0  1  0.00000000  0.50000000  0.50000000  1
  Tm  Tm1  1  0.50000001  0.00000000  -0.00000000  1
  Fe  Fe2  1  0.50000001  0.58885700  0.15351000  1
  Fe  Fe3  1  0.50000001  0.41114300  0.84649000  1
  Fe  Fe4  1  1.00000001  0.08885700  0.34649000  1
  Fe  Fe5  1  0.00000000  0.91114300  0.65351000  1
  Fe  Fe6  1  0.50000001  0.15351000  0.58885700  1
  Fe  Fe7  1  0.50000001  0.84649000  0.41114300  1
  Fe  Fe8  1  1.00000001  0.34649000  0.08885700  1
  Fe  Fe9  1  0.00000000  0.65351000  0.91114300  1
  Si  Si10  1  0.50000001  0.71738900  0.71738900  1
  Si  Si11  1  0.50000001  0.28261100  0.28261100  1
  Si  Si12  1  0.00000000  0.21738900  0.78261100  1
  Si  Si13  1  0.00000000  0.78261100  0.21738900  1
