# generated using pymatgen
data_Sr(MgGa)2
_symmetry_space_group_name_H-M   'P 1'
_cell_length_a   4.79233408
_cell_length_b   4.79233408
_cell_length_c   6.79604959
_cell_angle_alpha   110.64534760
_cell_angle_beta   110.64534760
_cell_angle_gamma   90.00000000
_symmetry_Int_Tables_number   1
_chemical_formula_structural   Sr(MgGa)2
_chemical_formula_sum   'Sr1 Mg2 Ga2'
_cell_volume   135.29383714
_cell_formula_units_Z   1
loop_
 _symmetry_equiv_pos_site_id
 _symmetry_equiv_pos_as_xyz
  1  'x, y, z'
loop_
 _atom_site_type_symbol
 _atom_site_label
 _atom_site_symmetry_multiplicity
 _atom_site_fract_x
 _atom_site_fract_y
 _atom_site_fract_z
 _atom_site_occupancy
  Sr  Sr0  1  0.00000000  0.00000000  0.00000000  1
  Mg  Mg1  1  0.75000002  0.25000000  0.50000005  1
  Mg  Mg2  1  0.25000005  0.75000001  0.50000006  1
  Ga  Ga3  1  0.39061003  0.39061001  0.78122003  1
  Ga  Ga4  1  0.60939004  0.60939001  0.21878007  1
