# generated using pymatgen
data_Ce(GeRh)2
_symmetry_space_group_name_H-M   'P 1'
_cell_length_a   5.95140219
_cell_length_b   8.59982014
_cell_length_c   8.59982014
_cell_angle_alpha   71.63333893
_cell_angle_beta   69.75598907
_cell_angle_gamma   69.75598907
_symmetry_Int_Tables_number   1
_chemical_formula_structural   Ce(GeRh)2
_chemical_formula_sum   'Ce4 Ge8 Rh8'
_cell_volume   377.78594905
_cell_formula_units_Z   4
loop_
 _symmetry_equiv_pos_site_id
 _symmetry_equiv_pos_as_xyz
  1  'x, y, z'
loop_
 _atom_site_type_symbol
 _atom_site_label
 _atom_site_symmetry_multiplicity
 _atom_site_fract_x
 _atom_site_fract_y
 _atom_site_fract_z
 _atom_site_occupancy
  Ce  Ce0  1  0.36441100  0.90380901  0.36736895  1
  Ce  Ce1  1  0.86441098  0.36736900  0.90380897  1
  Ce  Ce2  1  0.13558901  0.63263100  0.09619096  1
  Ce  Ce3  1  0.63558898  0.09619100  0.63263099  1
  Ge  Ge4  1  0.40794899  0.42374000  0.76036197  1
  Ge  Ge5  1  0.53826200  0.71173800  0.71173796  1
  Ge  Ge6  1  0.96173798  0.28826200  0.28826198  1
  Ge  Ge7  1  0.09205100  0.23963800  0.57625998  1
  Ge  Ge8  1  0.74999999  1.00000001  0.99999994  1
  Ge  Ge9  1  0.59205099  0.57626000  0.23963797  1
  Ge  Ge10  1  0.90794899  0.76036200  0.42373995  1
  Ge  Ge11  1  0.03826201  0.71173800  0.71173796  1
  Rh  Rh12  1  0.46173799  0.28826200  0.28826198  1
  Rh  Rh13  1  0.25000001  1.00000001  -0.00000005  1
  Rh  Rh14  1  0.35479899  0.23946000  0.05094199  1
  Rh  Rh15  1  0.14520001  0.94905801  0.76054094  1
  Rh  Rh16  1  0.64520099  0.76054000  0.94905795  1
  Rh  Rh17  1  0.85479998  0.05094200  0.23945899  1
  Rh  Rh18  1  0.25000000  0.50000000  0.49999997  1
  Rh  Rh19  1  0.74999999  0.50000000  0.49999997  1
