# generated using pymatgen
data_CaSnO3
_symmetry_space_group_name_H-M   'P 1'
_cell_length_a   5.64433622
_cell_length_b   6.03527403
_cell_length_c   7.86131191
_cell_angle_alpha   90.00000000
_cell_angle_beta   90.00000000
_cell_angle_gamma   90.00000000
_symmetry_Int_Tables_number   1
_chemical_formula_structural   CaSnO3
_chemical_formula_sum   'Ca4 Sn4 O12'
_cell_volume   267.79650080
_cell_formula_units_Z   4
loop_
 _symmetry_equiv_pos_site_id
 _symmetry_equiv_pos_as_xyz
  1  'x, y, z'
loop_
 _atom_site_type_symbol
 _atom_site_label
 _atom_site_symmetry_multiplicity
 _atom_site_fract_x
 _atom_site_fract_y
 _atom_site_fract_z
 _atom_site_occupancy
  Ca  Ca0  1  0.02043000  0.92950900  0.75000001  1
  Ca  Ca1  1  0.52042998  0.57049100  0.25000000  1
  Ca  Ca2  1  0.47956998  0.42950900  0.75000001  1
  Ca  Ca3  1  0.97956996  0.07049100  0.25000000  1
  Sn  Sn4  1  0.49999998  0.00000000  0.50000001  1
  Sn  Sn5  1  -0.00000000  0.50000000  0.50000001  1
  Sn  Sn6  1  -0.00000000  0.50000000  0.00000000  1
  Sn  Sn7  1  0.49999998  0.00000000  0.00000000  1
  O  O8  1  0.69407997  0.30089500  0.44799600  1
  O  O9  1  0.19407999  0.19910500  0.55200401  1
  O  O10  1  0.80591997  0.80089500  0.05200400  1
  O  O11  1  0.30591999  0.69910500  0.94799601  1
  O  O12  1  0.30591999  0.69910500  0.55200401  1
  O  O13  1  0.80591997  0.80089500  0.44799600  1
  O  O14  1  0.19407999  0.19910500  0.94799601  1
  O  O15  1  0.69407997  0.30089500  0.05200400  1
  O  O16  1  0.11017800  0.46025300  0.25000000  1
  O  O17  1  0.61017798  0.03974700  0.75000001  1
  O  O18  1  0.38982198  0.96025300  0.25000000  1
  O  O19  1  0.88982196  0.53974700  0.75000001  1
