# generated using pymatgen
data_Sr3Ti2O7
_symmetry_space_group_name_H-M   'P 1'
_cell_length_a   3.97754478
_cell_length_b   3.97754407
_cell_length_c   10.34817505
_cell_angle_alpha   101.08037567
_cell_angle_beta   101.08036804
_cell_angle_gamma   90.00000763
_symmetry_Int_Tables_number   1
_chemical_formula_structural   Sr3Ti2O7
_chemical_formula_sum   'Sr3 Ti2 O7'
_cell_volume   157.55407561
_cell_formula_units_Z   1
loop_
 _symmetry_equiv_pos_site_id
 _symmetry_equiv_pos_as_xyz
  1  'x, y, z'
loop_
 _atom_site_type_symbol
 _atom_site_label
 _atom_site_symmetry_multiplicity
 _atom_site_fract_x
 _atom_site_fract_y
 _atom_site_fract_z
 _atom_site_occupancy
  Sr  Sr0  1  0.68046801  0.68046901  0.36093796  1
  Sr  Sr1  1  0.31953201  0.31953000  0.63906196  1
  Sr  Sr2  1  0.49999901  0.49999901  -0.00000002  1
  Ti  Ti3  1  0.90219002  0.90219001  0.80438293  1
  Ti  Ti4  1  0.09780900  0.09780900  0.19561699  1
  O  O5  1  0.40429902  0.90429901  0.80859894  1
  O  O6  1  0.90430001  0.40430000  0.80859794  1
  O  O7  1  0.59570100  0.09570000  0.19140098  1
  O  O8  1  0.09569901  0.59570101  0.19140098  1
  O  O9  1  0.80732202  0.80732001  0.61464194  1
  O  O10  1  0.00000000  0.00000000  0.00000000  1
  O  O11  1  0.19267700  0.19267900  0.38535698  1
