# generated using pymatgen
data_SmCdPt
_symmetry_space_group_name_H-M   'P 1'
_cell_length_a   4.20446205
_cell_length_b   7.53155613
_cell_length_c   7.53155613
_cell_angle_alpha   120.00000000
_cell_angle_beta   90.00000000
_cell_angle_gamma   90.00000000
_symmetry_Int_Tables_number   1
_chemical_formula_structural   SmCdPt
_chemical_formula_sum   'Sm3 Cd3 Pt3'
_cell_volume   206.54301046
_cell_formula_units_Z   3
loop_
 _symmetry_equiv_pos_site_id
 _symmetry_equiv_pos_as_xyz
  1  'x, y, z'
loop_
 _atom_site_type_symbol
 _atom_site_label
 _atom_site_symmetry_multiplicity
 _atom_site_fract_x
 _atom_site_fract_y
 _atom_site_fract_z
 _atom_site_occupancy
  Sm  Sm0  1  0.49999999  0.41314600  0.41314601  1
  Sm  Sm1  1  0.49999999  0.58685399  0.00000001  1
  Sm  Sm2  1  0.49999999  0.99999999  0.58685401  1
  Cd  Cd3  1  -0.00000000  0.75123299  0.75123301  1
  Cd  Cd4  1  -0.00000000  0.24876700  0.00000000  1
  Cd  Cd5  1  -0.00000000  0.99999999  0.24876701  1
  Pt  Pt6  1  0.49999999  0.00000000  -0.00000000  1
  Pt  Pt7  1  -0.00000000  0.66666666  0.33333334  1
  Pt  Pt8  1  -0.00000000  0.33333333  0.66666667  1
