# generated using pymatgen
data_Y4Cu2Se5
_symmetry_space_group_name_H-M   'P 1'
_cell_length_a   4.21571589
_cell_length_b   4.21571589
_cell_length_c   17.58173943
_cell_angle_alpha   90.00000000
_cell_angle_beta   90.00000000
_cell_angle_gamma   120.00000000
_symmetry_Int_Tables_number   1
_chemical_formula_structural   Y4Cu2Se5
_chemical_formula_sum   'Y4 Cu2 Se5'
_cell_volume   270.60457790
_cell_formula_units_Z   1
loop_
 _symmetry_equiv_pos_site_id
 _symmetry_equiv_pos_as_xyz
  1  'x, y, z'
loop_
 _atom_site_type_symbol
 _atom_site_label
 _atom_site_symmetry_multiplicity
 _atom_site_fract_x
 _atom_site_fract_y
 _atom_site_fract_z
 _atom_site_occupancy
  Y  Y0  1  0.33333333  0.66666666  0.10076900  1
  Y  Y1  1  0.66666668  0.33333333  0.89923098  1
  Y  Y2  1  0.00000000  0.00000000  0.30208299  1
  Y  Y3  1  0.00000000  0.00000000  0.69791698  1
  Cu  Cu4  1  0.33333333  0.66666666  0.54780499  1
  Cu  Cu5  1  0.66666668  0.33333333  0.45219499  1
  Se  Se6  1  0.33333333  0.66666666  0.40997799  1
  Se  Se7  1  0.66666668  0.33333333  0.59002199  1
  Se  Se8  1  0.33333333  0.66666666  0.79717598  1
  Se  Se9  1  0.66666668  0.33333333  0.20282400  1
  Se  Se10  1  0.00000000  0.00000000  0.00000000  1
