# generated using pymatgen
data_LiTmGe
_symmetry_space_group_name_H-M   'P 1'
_cell_length_a   4.21949387
_cell_length_b   6.98772192
_cell_length_c   6.98772287
_cell_angle_alpha   119.99999237
_cell_angle_beta   90.00000000
_cell_angle_gamma   90.00000000
_symmetry_Int_Tables_number   1
_chemical_formula_structural   LiTmGe
_chemical_formula_sum   'Li3 Tm3 Ge3'
_cell_volume   178.42771409
_cell_formula_units_Z   3
loop_
 _symmetry_equiv_pos_site_id
 _symmetry_equiv_pos_as_xyz
  1  'x, y, z'
loop_
 _atom_site_type_symbol
 _atom_site_label
 _atom_site_symmetry_multiplicity
 _atom_site_fract_x
 _atom_site_fract_y
 _atom_site_fract_z
 _atom_site_occupancy
  Li  Li0  1  0.50000002  0.76294499  0.76294498  1
  Li  Li1  1  0.50000002  0.00000000  0.23705501  1
  Li  Li2  1  0.50000002  0.23705500  -0.00000001  1
  Tm  Tm3  1  -0.00000000  0.42070599  0.42070599  1
  Tm  Tm4  1  1.00000003  0.00000000  0.57929402  1
  Tm  Tm5  1  -0.00000000  0.57929399  1.00000000  1
  Ge  Ge6  1  0.50000002  0.66666666  0.33333331  1
  Ge  Ge7  1  0.50000002  0.33333333  0.66666667  1
  Ge  Ge8  1  0.00000000  0.00000000  0.00000000  1
