# generated using pymatgen
data_YbGaPt
_symmetry_space_group_name_H-M   'P 1'
_cell_length_a   4.47903919
_cell_length_b   7.12973213
_cell_length_c   7.98613310
_cell_angle_alpha   90.00000000
_cell_angle_beta   90.00000000
_cell_angle_gamma   90.00000000
_symmetry_Int_Tables_number   1
_chemical_formula_structural   YbGaPt
_chemical_formula_sum   'Yb4 Ga4 Pt4'
_cell_volume   255.03196671
_cell_formula_units_Z   4
loop_
 _symmetry_equiv_pos_site_id
 _symmetry_equiv_pos_as_xyz
  1  'x, y, z'
loop_
 _atom_site_type_symbol
 _atom_site_label
 _atom_site_symmetry_multiplicity
 _atom_site_fract_x
 _atom_site_fract_y
 _atom_site_fract_z
 _atom_site_occupancy
  Yb  Yb0  1  0.24999999  0.51286399  0.18865000  1
  Yb  Yb1  1  0.74999997  0.48713599  0.81134999  1
  Yb  Yb2  1  0.74999997  0.98713598  0.68864999  1
  Yb  Yb3  1  0.24999999  0.01286400  0.31135000  1
  Ga  Ga4  1  0.24999999  0.67422999  0.58685599  1
  Ga  Ga5  1  0.74999997  0.32576999  0.41314399  1
  Ga  Ga6  1  0.74999997  0.82576998  0.08685600  1
  Ga  Ga7  1  0.24999999  0.17423000  0.91314399  1
  Pt  Pt8  1  0.24999999  0.78613299  0.90767499  1
  Pt  Pt9  1  0.74999997  0.21386700  0.09232500  1
  Pt  Pt10  1  0.74999997  0.71386699  0.40767499  1
  Pt  Pt11  1  0.24999999  0.28613299  0.59232499  1
