# generated using pymatgen
data_MnP2Ru
_symmetry_space_group_name_H-M   'P 1'
_cell_length_a   3.62969398
_cell_length_b   3.96670914
_cell_length_c   3.62969398
_cell_angle_alpha   117.22716522
_cell_angle_beta   90.00000000
_cell_angle_gamma   117.22716522
_symmetry_Int_Tables_number   1
_chemical_formula_structural   MnP2Ru
_chemical_formula_sum   'Mn1 P2 Ru1'
_cell_volume   39.84646966
_cell_formula_units_Z   1
loop_
 _symmetry_equiv_pos_site_id
 _symmetry_equiv_pos_as_xyz
  1  'x, y, z'
loop_
 _atom_site_type_symbol
 _atom_site_label
 _atom_site_symmetry_multiplicity
 _atom_site_fract_x
 _atom_site_fract_y
 _atom_site_fract_z
 _atom_site_occupancy
  Mn  Mn0  1  0.00000000  0.00000000  0.00000000  1
  P  P1  1  0.25000003  0.50000003  0.75000003  1
  P  P2  1  0.75000003  0.50000003  0.25000003  1
  Ru  Ru3  1  0.50000000  0.00000000  0.50000000  1
