# generated using pymatgen
data_Sm2Co17
_symmetry_space_group_name_H-M   'P 1'
_cell_length_a   6.30374765
_cell_length_b   6.30374765
_cell_length_c   6.30374718
_cell_angle_alpha   83.24391174
_cell_angle_beta   83.24391174
_cell_angle_gamma   83.24392700
_symmetry_Int_Tables_number   1
_chemical_formula_structural   Sm2Co17
_chemical_formula_sum   'Sm2 Co17'
_cell_volume   245.65439839
_cell_formula_units_Z   1
loop_
 _symmetry_equiv_pos_site_id
 _symmetry_equiv_pos_as_xyz
  1  'x, y, z'
loop_
 _atom_site_type_symbol
 _atom_site_label
 _atom_site_symmetry_multiplicity
 _atom_site_fract_x
 _atom_site_fract_y
 _atom_site_fract_z
 _atom_site_occupancy
  Sm  Sm0  1  0.34540197  0.34540199  0.34540197  1
  Sm  Sm1  1  0.65592495  0.65592498  0.65592494  1
  Co  Co2  1  0.28450796  0.71576098  0.99927795  1
  Co  Co3  1  0.99927796  0.28450799  0.71576094  1
  Co  Co4  1  0.71576093  0.99927798  0.28450792  1
  Co  Co5  1  0.99927794  0.71576098  0.28450792  1
  Co  Co6  1  0.28450795  0.99927798  0.71576094  1
  Co  Co7  1  0.71576097  0.28450799  0.99927795  1
  Co  Co8  1  0.65670395  0.65670398  0.14835994  1
  Co  Co9  1  0.14835997  0.65670398  0.65670396  1
  Co  Co10  1  0.65670397  0.14836000  0.65670396  1
  Co  Co11  1  0.34431497  0.34431499  0.85147697  1
  Co  Co12  1  0.85147696  0.34431499  0.34431494  1
  Co  Co13  1  0.34431495  0.85147698  0.34431495  1
  Co  Co14  1  0.99902193  0.99902198  0.50047491  1
  Co  Co15  1  0.50047494  0.99902198  0.99902193  1
  Co  Co16  1  0.99902195  0.50047499  0.99902193  1
  Co  Co17  1  0.09562399  0.09562400  0.09562399  1
  Co  Co18  1  0.90356093  0.90356098  0.90356092  1
