# generated using pymatgen
data_SrGa2Ag
_symmetry_space_group_name_H-M   'P 1'
_cell_length_a   4.95780993
_cell_length_b   4.98560905
_cell_length_c   9.71972561
_cell_angle_alpha   90.00000000
_cell_angle_beta   104.77587128
_cell_angle_gamma   90.00000000
_symmetry_Int_Tables_number   1
_chemical_formula_structural   SrGa2Ag
_chemical_formula_sum   'Sr2 Ga4 Ag2'
_cell_volume   232.30444875
_cell_formula_units_Z   2
loop_
 _symmetry_equiv_pos_site_id
 _symmetry_equiv_pos_as_xyz
  1  'x, y, z'
loop_
 _atom_site_type_symbol
 _atom_site_label
 _atom_site_symmetry_multiplicity
 _atom_site_fract_x
 _atom_site_fract_y
 _atom_site_fract_z
 _atom_site_occupancy
  Sr  Sr0  1  0.39340001  0.74999999  0.78680002  1
  Sr  Sr1  1  0.60660001  0.25000000  0.21320001  1
  Ga  Ga2  1  0.04247200  0.74999999  0.08494400  1
  Ag  Ag3  1  0.95752802  0.25000000  0.91505602  1
  Ga  Ga4  1  0.24969900  0.25000000  0.49939801  1
  Ga  Ga5  1  0.75030101  0.74999999  0.50060201  1
  Ga  Ga6  1  0.81386401  0.25000000  0.62772801  1
  Ag  Ag7  1  0.18613600  0.74999999  0.37227201  1
