# generated using pymatgen
data_KLiH2Br(ClO5)2
_symmetry_space_group_name_H-M   'P 1'
_cell_length_a   5.29842377
_cell_length_b   5.53061867
_cell_length_c   7.79768181
_cell_angle_alpha   107.16971588
_cell_angle_beta   109.86125183
_cell_angle_gamma   90.00000000
_symmetry_Int_Tables_number   1
_chemical_formula_structural   KLiH2Br(ClO5)2
_chemical_formula_sum   'K1 Li1 H2 Br1 Cl2 O10'
_cell_volume   204.04786164
_cell_formula_units_Z   1
loop_
 _symmetry_equiv_pos_site_id
 _symmetry_equiv_pos_as_xyz
  1  'x, y, z'
loop_
 _atom_site_type_symbol
 _atom_site_label
 _atom_site_symmetry_multiplicity
 _atom_site_fract_x
 _atom_site_fract_y
 _atom_site_fract_z
 _atom_site_occupancy
  Li  Li0  1  0.00000001  0.50000000  1.00000000  1
  K  K1  1  0.98573706  0.57834300  0.67462502  1
  H  H2  1  0.68888805  0.57834300  0.67462502  1
  Br  Br3  1  0.01426301  0.42165700  0.32537500  1
  H  H4  1  0.31111202  0.42165700  0.32537501  1
  Cl  Cl5  1  0.37900102  0.17093300  0.75800101  1
  Cl  Cl6  1  0.62099904  0.82906700  0.24199901  1
  O  O7  1  0.12144301  0.39226300  0.24288600  1
  O  O8  1  0.87855706  0.60773700  0.75711402  1
  O  O9  1  0.67853404  0.09255600  0.35706802  1
  O  O10  1  0.32146603  0.90744400  0.64293201  1
  O  O11  1  0.21794401  0.22191000  0.88271100  1
  O  O12  1  0.66476704  0.22191000  0.88271102  1
  O  O13  1  0.78205605  0.77809000  0.11728902  1
  O  O14  1  0.33523303  0.77809000  0.11728901  1
  O  O15  1  0.68057905  0.66092000  0.36115802  1
  O  O16  1  0.31942102  0.33908000  0.63884201  1
