# generated using pymatgen
data_KH5SO12
_symmetry_space_group_name_H-M   'P 1'
_cell_length_a   4.86305714
_cell_length_b   5.98443270
_cell_length_c   8.77713585
_cell_angle_alpha   104.21347809
_cell_angle_beta   95.92559052
_cell_angle_gamma   94.39694977
_symmetry_Int_Tables_number   1
_chemical_formula_structural   KH5SO12
_chemical_formula_sum   'K1 H5 S1 O12'
_cell_volume   244.91279934
_cell_formula_units_Z   1
loop_
 _symmetry_equiv_pos_site_id
 _symmetry_equiv_pos_as_xyz
  1  'x, y, z'
loop_
 _atom_site_type_symbol
 _atom_site_label
 _atom_site_symmetry_multiplicity
 _atom_site_fract_x
 _atom_site_fract_y
 _atom_site_fract_z
 _atom_site_occupancy
  K  K0  1  0.99899802  0.00460800  0.49450400  1
  H  H1  1  0.00042000  0.00617000  0.00628800  1
  H  H2  1  0.65049902  0.27214200  0.84620900  1
  H  H3  1  0.35018701  0.72614701  0.15640399  1
  H  H4  1  0.96462502  0.34974501  0.83607400  1
  H  H5  1  0.03309100  0.64731201  0.16410299  1
  S  S6  1  0.50015801  0.53091001  0.51749499  1
  O  O7  1  0.43196101  0.68725501  0.76824499  1
  O  O8  1  0.56785901  0.31709601  0.23783000  1
  O  O9  1  0.27060801  0.88563502  0.81760399  1
  O  O10  1  0.72969202  0.11558300  0.18569100  1
  O  O11  1  0.27982701  0.45947001  0.75308699  1
  O  O12  1  0.72380102  0.54106101  0.24173099  1
  O  O13  1  0.69880302  0.71624301  0.87050799  1
  O  O14  1  0.30476101  0.28727801  0.12818400  1
  O  O15  1  0.49550801  0.69751301  0.59780999  1
  O  O16  1  0.50333001  0.31581201  0.40250100  1
  O  O17  1  0.83592502  0.21898400  0.84442500  1
  O  O18  1  0.16294601  0.77603401  0.15230599  1
