# generated using pymatgen
data_Mn2O3F
_symmetry_space_group_name_H-M   'P 1'
_cell_length_a   4.58375072
_cell_length_b   4.58375072
_cell_length_c   9.05402279
_cell_angle_alpha   90.00000000
_cell_angle_beta   90.00000000
_cell_angle_gamma   92.67839813
_symmetry_Int_Tables_number   1
_chemical_formula_structural   Mn2O3F
_chemical_formula_sum   'Mn6 O9 F3'
_cell_volume   190.02418056
_cell_formula_units_Z   3
loop_
 _symmetry_equiv_pos_site_id
 _symmetry_equiv_pos_as_xyz
  1  'x, y, z'
loop_
 _atom_site_type_symbol
 _atom_site_label
 _atom_site_symmetry_multiplicity
 _atom_site_fract_x
 _atom_site_fract_y
 _atom_site_fract_z
 _atom_site_occupancy
  Mn  Mn0  1  0.00082206  0.99917803  0.33333334  1
  Mn  Mn1  1  0.00082206  0.99917803  0.66672102  1
  Mn  Mn2  1  0.01309306  0.98690703  -0.00000000  1
  Mn  Mn3  1  0.48093005  0.51907002  0.16727200  1
  Mn  Mn4  1  0.52538205  0.47461802  0.50000001  1
  Mn  Mn5  1  0.48093005  0.51907002  0.83272802  1
  O  O6  1  0.19108906  0.80891103  0.83201002  1
  O  O7  1  0.19108906  0.80891103  0.16799000  1
  O  O8  1  0.31341803  0.30329101  0.33273901  1
  O  O9  1  0.31341803  0.30329101  0.66726102  1
  O  O10  1  0.29395503  0.31576701  -0.00000000  1
  O  O11  1  0.69670906  0.68658202  0.33273901  1
  O  O12  1  0.69670906  0.68658202  0.66726102  1
  O  O13  1  0.68423307  0.70604502  1.00000002  1
  O  O14  1  0.81361604  0.18638401  0.50000001  1
  F  F15  1  0.22182606  0.77817403  0.50000001  1
  F  F16  1  0.79097904  0.20902101  0.84253402  1
  F  F17  1  0.79097904  0.20902101  0.15746600  1
