# generated using pymatgen
data_TiS2
_symmetry_space_group_name_H-M   'P 1'
_cell_length_a   7.10757732
_cell_length_b   7.10757732
_cell_length_c   7.10757732
_cell_angle_alpha   60.00000000
_cell_angle_beta   60.00000000
_cell_angle_gamma   60.00000000
_symmetry_Int_Tables_number   1
_chemical_formula_structural   TiS2
_chemical_formula_sum   'Ti4 S8'
_cell_volume   253.89244711
_cell_formula_units_Z   4
loop_
 _symmetry_equiv_pos_site_id
 _symmetry_equiv_pos_as_xyz
  1  'x, y, z'
loop_
 _atom_site_type_symbol
 _atom_site_label
 _atom_site_symmetry_multiplicity
 _atom_site_fract_x
 _atom_site_fract_y
 _atom_site_fract_z
 _atom_site_occupancy
  Ti  Ti0  1  0.37499999  0.87499998  0.37499999  1
  Ti  Ti1  1  0.37499999  0.37499999  0.37499999  1
  Ti  Ti2  1  0.87499998  0.37499999  0.37499999  1
  Ti  Ti3  1  0.37499999  0.37499999  0.87499998  1
  S  S4  1  0.12581900  0.62472698  0.62472698  1
  S  S5  1  0.12527200  0.12527300  0.62418198  1
  S  S6  1  0.12527200  0.12527300  0.12527300  1
  S  S7  1  0.12527200  0.62418198  0.12527300  1
  S  S8  1  0.62472798  0.62472698  0.62472698  1
  S  S9  1  0.62472798  0.12581800  0.62472698  1
  S  S10  1  0.62472798  0.62472698  0.12581800  1
  S  S11  1  0.62418098  0.12527300  0.12527300  1
