# generated using pymatgen
data_Zr3Ti(AlAu3)4
_symmetry_space_group_name_H-M   'P 1'
_cell_length_a   4.10547495
_cell_length_b   4.10547495
_cell_length_c   20.48827553
_cell_angle_alpha   90.00000000
_cell_angle_beta   90.00000000
_cell_angle_gamma   90.00000000
_symmetry_Int_Tables_number   1
_chemical_formula_structural   Zr3Ti(AlAu3)4
_chemical_formula_sum   'Zr3 Ti1 Al4 Au12'
_cell_volume   345.32833830
_cell_formula_units_Z   1
loop_
 _symmetry_equiv_pos_site_id
 _symmetry_equiv_pos_as_xyz
  1  'x, y, z'
loop_
 _atom_site_type_symbol
 _atom_site_label
 _atom_site_symmetry_multiplicity
 _atom_site_fract_x
 _atom_site_fract_y
 _atom_site_fract_z
 _atom_site_occupancy
  Zr  Zr0  1  0.00000000  0.00000000  0.20054199  1
  Zr  Zr1  1  0.00000000  0.00000000  0.39995899  1
  Zr  Zr2  1  0.00000000  0.00000000  0.60004098  1
  Ti  Ti3  1  0.00000000  0.00000000  0.79945798  1
  Al  Al4  1  0.50000001  0.50000001  0.00000000  1
  Au  Au5  1  0.50000001  0.50000001  0.19957199  1
  Al  Al6  1  0.50000001  0.50000001  0.39998699  1
  Al  Al7  1  0.50000001  0.50000001  0.60001298  1
  Al  Al8  1  0.50000001  0.50000001  0.80042798  1
  Au  Au9  1  0.50000001  0.00000000  0.10019700  1
  Au  Au10  1  0.50000001  0.00000000  0.30019899  1
  Au  Au11  1  0.50000001  0.00000000  0.49999999  1
  Au  Au12  1  0.50000001  0.00000000  0.69980098  1
  Au  Au13  1  0.50000001  0.00000000  0.89980298  1
  Au  Au14  1  0.00000000  0.50000001  0.10019700  1
  Au  Au15  1  0.00000000  0.50000001  0.30019899  1
  Au  Au16  1  0.00000000  0.50000001  0.49999999  1
  Au  Au17  1  0.00000000  0.50000001  0.69980098  1
  Au  Au18  1  0.00000000  0.50000001  0.89980298  1
  Au  Au19  1  0.00000000  0.00000000  0.00000000  1
