# generated using pymatgen
data_LiTi2(PO4)3
_symmetry_space_group_name_H-M   'P 1'
_cell_length_a   5.00913620
_cell_length_b   5.00913620
_cell_length_c   11.24742985
_cell_angle_alpha   90.00000000
_cell_angle_beta   90.00000000
_cell_angle_gamma   120.00000000
_symmetry_Int_Tables_number   1
_chemical_formula_structural   LiTi2(PO4)3
_chemical_formula_sum   'Li1 Ti2 P3 O12'
_cell_volume   244.40472947
_cell_formula_units_Z   1
loop_
 _symmetry_equiv_pos_site_id
 _symmetry_equiv_pos_as_xyz
  1  'x, y, z'
loop_
 _atom_site_type_symbol
 _atom_site_label
 _atom_site_symmetry_multiplicity
 _atom_site_fract_x
 _atom_site_fract_y
 _atom_site_fract_z
 _atom_site_occupancy
  Li  Li0  1  0.46073698  0.99999995  -0.00000000  1
  Ti  Ti1  1  0.99999996  0.46073698  0.33333334  1
  Ti  Ti2  1  0.53926298  0.53926298  0.66666668  1
  P  P3  1  0.46231398  0.00000000  0.50000001  1
  P  P4  1  0.99999996  0.46231398  0.83333301  1
  P  P5  1  0.53768598  0.53768598  0.16666700  1
  O  O6  1  0.73342397  0.14589199  0.87426401  1
  O  O7  1  0.41246798  0.26657599  0.54093101  1
  O  O8  1  0.85410796  0.58753197  0.20759800  1
  O  O9  1  0.14589199  0.73342397  0.45906901  1
  O  O10  1  0.26657599  0.41246798  0.79240201  1
  O  O11  1  0.58753197  0.85410796  0.12573600  1
  O  O12  1  0.59195997  0.90255796  0.60579701  1
  O  O13  1  0.31059799  0.40803998  0.27246400  1
  O  O14  1  0.09744199  0.68940197  0.93913101  1
  O  O15  1  0.90255796  0.59195997  0.72753601  1
  O  O16  1  0.40803998  0.31059799  0.06086900  1
  O  O17  1  0.68940197  0.09744200  0.39420301  1
