# generated using pymatgen
data_La2S3
_symmetry_space_group_name_H-M   'P 1'
_cell_length_a   4.03570604
_cell_length_b   7.22466564
_cell_length_c   9.66127968
_cell_angle_alpha   90.00000000
_cell_angle_beta   90.00000000
_cell_angle_gamma   106.21846008
_symmetry_Int_Tables_number   1
_chemical_formula_structural   La2S3
_chemical_formula_sum   'La4 S6'
_cell_volume   270.48010668
_cell_formula_units_Z   2
loop_
 _symmetry_equiv_pos_site_id
 _symmetry_equiv_pos_as_xyz
  1  'x, y, z'
loop_
 _atom_site_type_symbol
 _atom_site_label
 _atom_site_symmetry_multiplicity
 _atom_site_fract_x
 _atom_site_fract_y
 _atom_site_fract_z
 _atom_site_occupancy
  La  La0  1  0.00000000  0.00000000  0.00000000  1
  La  La1  1  0.00000000  0.00000000  0.50000002  1
  La  La2  1  0.75133995  0.50268000  0.25000001  1
  La  La3  1  0.24865995  0.49732000  0.75000002  1
  S  S4  1  0.89406092  0.78812200  0.75000002  1
  S  S5  1  0.10593898  0.21187800  0.25000001  1
  S  S6  1  0.35030893  0.70061800  0.42985901  1
  S  S7  1  0.64969097  0.29938200  0.57014102  1
  S  S8  1  0.35030893  0.70061800  0.07014100  1
  S  S9  1  0.64969097  0.29938200  0.92985903  1
