# generated using pymatgen
data_YFe12
_symmetry_space_group_name_H-M   'P 1'
_cell_length_a   4.67043400
_cell_length_b   6.34762383
_cell_length_c   6.34762478
_cell_angle_alpha   81.66916656
_cell_angle_beta   68.41454315
_cell_angle_gamma   68.41456604
_symmetry_Int_Tables_number   1
_chemical_formula_structural   YFe12
_chemical_formula_sum   'Y1 Fe12'
_cell_volume   162.70377816
_cell_formula_units_Z   1
loop_
 _symmetry_equiv_pos_site_id
 _symmetry_equiv_pos_as_xyz
  1  'x, y, z'
loop_
 _atom_site_type_symbol
 _atom_site_label
 _atom_site_symmetry_multiplicity
 _atom_site_fract_x
 _atom_site_fract_y
 _atom_site_fract_z
 _atom_site_occupancy
  Y  Y0  1  0.00000000  0.00000000  0.00000000  1
  Fe  Fe1  1  0.63237105  0.36762899  0.36762895  1
  Fe  Fe2  1  0.36762906  0.63237099  0.63237095  1
  Fe  Fe3  1  0.50000008  0.77726698  0.22273296  1
  Fe  Fe4  1  0.50000003  0.22273300  0.77726695  1
  Fe  Fe5  1  0.72611408  0.77388598  0.77388593  1
  Fe  Fe6  1  0.27388603  0.22611400  0.22611398  1
  Fe  Fe7  1  1.00000002  0.00000000  0.49999994  1
  Fe  Fe8  1  0.50000001  0.00000000  0.49999996  1
  Fe  Fe9  1  0.50000005  0.49999999  -0.00000003  1
  Fe  Fe10  1  0.00000004  0.49999999  -0.00000001  1
  Fe  Fe11  1  1.00000005  0.35839799  0.64160193  1
  Fe  Fe12  1  1.00000008  0.64160199  0.35839793  1
