# generated using pymatgen
data_SrWO3
_symmetry_space_group_name_H-M   'P 1'
_cell_length_a   5.64313316
_cell_length_b   5.67401314
_cell_length_c   7.96440601
_cell_angle_alpha   89.56945038
_cell_angle_beta   89.90874481
_cell_angle_gamma   89.94804382
_symmetry_Int_Tables_number   1
_chemical_formula_structural   SrWO3
_chemical_formula_sum   'Sr4 W4 O12'
_cell_volume   255.00637672
_cell_formula_units_Z   4
loop_
 _symmetry_equiv_pos_site_id
 _symmetry_equiv_pos_as_xyz
  1  'x, y, z'
loop_
 _atom_site_type_symbol
 _atom_site_label
 _atom_site_symmetry_multiplicity
 _atom_site_fract_x
 _atom_site_fract_y
 _atom_site_fract_z
 _atom_site_occupancy
  Sr  Sr0  1  0.49723296  0.53422702  0.75782101  1
  Sr  Sr1  1  0.00964000  0.03844100  0.75846799  1
  Sr  Sr2  1  0.50276697  0.46577302  0.24217902  1
  Sr  Sr3  1  0.99035993  0.96155903  0.24153204  1
  W  W4  1  -0.00000002  0.50000002  0.00000002  1
  W  W5  1  0.49999999  0.00000000  0.49999999  1
  W  W6  1  -0.00000002  0.50000002  0.50000001  1
  W  W7  1  0.49999999  0.00000000  0.00000000  1
  O  O8  1  0.22510896  0.79020203  0.97037402  1
  O  O9  1  0.29800998  0.29904601  0.53803900  1
  O  O10  1  0.79837497  0.20292101  0.46345801  1
  O  O11  1  0.70744095  0.72392402  0.03246003  1
  O  O12  1  0.77489097  0.20979801  0.02962601  1
  O  O13  1  0.70198995  0.70095402  0.46196102  1
  O  O14  1  0.20162496  0.79707903  0.53654202  1
  O  O15  1  0.29255898  0.27607601  0.96754000  1
  O  O16  1  0.57379194  0.98736403  0.75105403  1
  O  O17  1  0.94009995  0.49302402  0.74058001  1
  O  O18  1  0.42620799  0.01263600  0.24894600  1
  O  O19  1  0.05989998  0.50697602  0.25942002  1
