# generated using pymatgen
data_Y(AlSi)2
_symmetry_space_group_name_H-M   'P 1'
_cell_length_a   4.20439386
_cell_length_b   4.20439386
_cell_length_c   6.61718321
_cell_angle_alpha   90.00000000
_cell_angle_beta   90.00000000
_cell_angle_gamma   120.00000000
_symmetry_Int_Tables_number   1
_chemical_formula_structural   Y(AlSi)2
_chemical_formula_sum   'Y1 Al2 Si2'
_cell_volume   101.30026415
_cell_formula_units_Z   1
loop_
 _symmetry_equiv_pos_site_id
 _symmetry_equiv_pos_as_xyz
  1  'x, y, z'
loop_
 _atom_site_type_symbol
 _atom_site_label
 _atom_site_symmetry_multiplicity
 _atom_site_fract_x
 _atom_site_fract_y
 _atom_site_fract_z
 _atom_site_occupancy
  Y  Y0  1  0.00000000  0.00000000  0.00000000  1
  Al  Al1  1  0.33333334  0.66666669  0.64265698  1
  Al  Al2  1  0.66666669  0.33333334  0.35734299  1
  Si  Si3  1  0.33333334  0.66666669  0.26021199  1
  Si  Si4  1  0.66666669  0.33333334  0.73978798  1
