# generated using pymatgen
data_Zn2AgSnSe4
_symmetry_space_group_name_H-M   'P 1'
_cell_length_a   6.07841396
_cell_length_b   6.07841396
_cell_length_c   7.35219240
_cell_angle_alpha   114.41697693
_cell_angle_beta   114.41697693
_cell_angle_gamma   90.00000000
_symmetry_Int_Tables_number   1
_chemical_formula_structural   Zn2AgSnSe4
_chemical_formula_sum   'Zn2 Ag1 Sn1 Se4'
_cell_volume   220.38939230
_cell_formula_units_Z   1
loop_
 _symmetry_equiv_pos_site_id
 _symmetry_equiv_pos_as_xyz
  1  'x, y, z'
loop_
 _atom_site_type_symbol
 _atom_site_label
 _atom_site_symmetry_multiplicity
 _atom_site_fract_x
 _atom_site_fract_y
 _atom_site_fract_z
 _atom_site_occupancy
  Zn  Zn0  1  0.00000000  0.00000000  0.00000000  1
  Zn  Zn1  1  0.25000001  0.75000001  0.50000003  1
  Sn  Sn2  1  0.75000001  0.25000000  0.50000003  1
  Ag  Ag3  1  0.50000001  0.50000001  1.00000004  1
  Se  Se4  1  0.39133501  0.39133501  0.26032702  1
  Se  Se5  1  0.86899202  0.86899201  0.26032703  1
  Se  Se6  1  0.13100801  0.60866501  0.73967303  1
  Se  Se7  1  0.60866501  0.13100800  0.73967303  1
