# generated using pymatgen
data_Ce5Ag3
_symmetry_space_group_name_H-M   'P 1'
_cell_length_a   4.56376314
_cell_length_b   4.56376314
_cell_length_c   12.91662407
_cell_angle_alpha   90.00000000
_cell_angle_beta   90.00000000
_cell_angle_gamma   90.00000000
_symmetry_Int_Tables_number   1
_chemical_formula_structural   Ce5Ag3
_chemical_formula_sum   'Ce5 Ag3'
_cell_volume   269.02659378
_cell_formula_units_Z   1
loop_
 _symmetry_equiv_pos_site_id
 _symmetry_equiv_pos_as_xyz
  1  'x, y, z'
loop_
 _atom_site_type_symbol
 _atom_site_label
 _atom_site_symmetry_multiplicity
 _atom_site_fract_x
 _atom_site_fract_y
 _atom_site_fract_z
 _atom_site_occupancy
  Ce  Ce0  1  0.00000000  0.00000000  0.00000000  1
  Ce  Ce1  1  0.00000000  0.00000000  0.23734000  1
  Ce  Ce2  1  0.49999998  0.49999998  0.00000000  1
  Ag  Ag3  1  0.00000000  0.00000000  0.76266000  1
  Ce  Ce4  1  0.49999998  0.49999998  0.50000000  1
  Ce  Ce5  1  0.49999998  0.49999998  0.75304600  1
  Ag  Ag6  1  0.00000000  0.00000000  0.50000000  1
  Ag  Ag7  1  0.49999998  0.49999998  0.24695400  1
