# generated using pymatgen
data_Ti3Sn
_symmetry_space_group_name_H-M   'P 1'
_cell_length_a   4.88193893
_cell_length_b   5.81844807
_cell_length_c   5.81844807
_cell_angle_alpha   60.00000000
_cell_angle_beta   90.00000000
_cell_angle_gamma   90.00000000
_symmetry_Int_Tables_number   1
_chemical_formula_structural   Ti3Sn
_chemical_formula_sum   'Ti6 Sn2'
_cell_volume   143.13218434
_cell_formula_units_Z   2
loop_
 _symmetry_equiv_pos_site_id
 _symmetry_equiv_pos_as_xyz
  1  'x, y, z'
loop_
 _atom_site_type_symbol
 _atom_site_label
 _atom_site_symmetry_multiplicity
 _atom_site_fract_x
 _atom_site_fract_y
 _atom_site_fract_z
 _atom_site_occupancy
  Ti  Ti0  1  0.75000001  0.66666667  0.66666667  1
  Ti  Ti1  1  0.25000000  0.33333333  0.33333333  1
  Ti  Ti2  1  0.75000001  0.67614000  0.16192999  1
  Ti  Ti3  1  0.75000001  0.16193000  0.16193000  1
  Ti  Ti4  1  0.75000001  0.16193000  0.67614001  1
  Ti  Ti5  1  0.25000000  0.83807000  0.83807000  1
  Sn  Sn6  1  0.25000000  0.83807000  0.32385999  1
  Sn  Sn7  1  0.25000000  0.32386000  0.83807001  1
