# generated using pymatgen
data_Mn5(CuO4)3
_symmetry_space_group_name_H-M   'P 1'
_cell_length_a   6.40315294
_cell_length_b   6.40315294
_cell_length_c   6.40315294
_cell_angle_alpha   109.47122192
_cell_angle_beta   109.47122192
_cell_angle_gamma   109.47122192
_symmetry_Int_Tables_number   1
_chemical_formula_structural   Mn5(CuO4)3
_chemical_formula_sum   'Mn5 Cu3 O12'
_cell_volume   202.09692912
_cell_formula_units_Z   1
loop_
 _symmetry_equiv_pos_site_id
 _symmetry_equiv_pos_as_xyz
  1  'x, y, z'
loop_
 _atom_site_type_symbol
 _atom_site_label
 _atom_site_symmetry_multiplicity
 _atom_site_fract_x
 _atom_site_fract_y
 _atom_site_fract_z
 _atom_site_occupancy
  Mn  Mn0  1  0.00000000  0.00000000  0.00000000  1
  Mn  Mn1  1  0.00000003  0.50000001  0.00000003  1
  Mn  Mn2  1  0.50000003  0.50000001  0.50000003  1
  Mn  Mn3  1  0.49999999  0.00000000  0.00000001  1
  Mn  Mn4  1  0.00000000  0.00000000  0.49999999  1
  Cu  Cu5  1  0.49999999  0.00000000  0.50000000  1
  Cu  Cu6  1  0.50000003  0.50000001  0.00000004  1
  Cu  Cu7  1  0.00000003  0.50000001  0.50000002  1
  O  O8  1  0.83078901  0.30053701  0.13132603  1
  O  O9  1  0.13132605  0.83078902  0.30053704  1
  O  O10  1  0.16921102  0.30053701  0.46974801  1
  O  O11  1  0.46974800  0.16921100  0.30053701  1
  O  O12  1  0.16921104  0.69946301  0.86867403  1
  O  O13  1  0.83078903  0.69946301  0.53025205  1
  O  O14  1  0.86867400  0.16921100  0.69946302  1
  O  O15  1  0.53025205  0.83078902  0.69946304  1
  O  O16  1  0.30053700  0.13132600  0.83078900  1
  O  O17  1  0.30053703  0.46974801  0.16921103  1
  O  O18  1  0.69946305  0.86867402  0.16921106  1
  O  O19  1  0.69946302  0.53025201  0.83078903  1
