# generated using pymatgen
data_Sr2Mn2O5
_symmetry_space_group_name_H-M   'P 1'
_cell_length_a   3.97457004
_cell_length_b   5.62442207
_cell_length_c   10.84881592
_cell_angle_alpha   89.88247681
_cell_angle_beta   90.00000000
_cell_angle_gamma   90.00000000
_symmetry_Int_Tables_number   1
_chemical_formula_structural   Sr2Mn2O5
_chemical_formula_sum   'Sr4 Mn4 O10'
_cell_volume   242.52107502
_cell_formula_units_Z   2
loop_
 _symmetry_equiv_pos_site_id
 _symmetry_equiv_pos_as_xyz
  1  'x, y, z'
loop_
 _atom_site_type_symbol
 _atom_site_label
 _atom_site_symmetry_multiplicity
 _atom_site_fract_x
 _atom_site_fract_y
 _atom_site_fract_z
 _atom_site_occupancy
  Sr  Sr0  1  0.50000000  0.78828999  0.86091397  1
  Sr  Sr1  1  0.50000000  0.71202499  0.37110997  1
  Sr  Sr2  1  0.50000000  0.28901100  0.63254098  1
  Sr  Sr3  1  0.50000000  0.19975800  0.13447999  1
  Mn  Mn4  1  0.00000000  0.23502700  0.37767299  1
  Mn  Mn5  1  -0.00000000  0.76571599  0.62261197  1
  Mn  Mn6  1  0.00000000  0.73070199  0.12053297  1
  Mn  Mn7  1  0.00000000  0.26832300  0.87940398  1
  O  O8  1  -0.00000000  0.94681999  0.27539597  1
  O  O9  1  0.00000000  0.04753600  0.72792399  1
  O  O10  1  -0.00000000  0.42593299  0.20848698  1
  O  O11  1  -0.00000000  0.54790999  0.77711597  1
  O  O12  1  0.00000000  0.50281999  0.49784298  1
  O  O13  1  -0.00000000  0.01827100  0.00995000  1
  O  O14  1  0.50000000  0.21461600  0.38651099  1
  O  O15  1  0.50000000  0.79599299  0.60402197  1
  O  O16  1  0.50000000  0.71420399  0.10488497  1
  O  O17  1  0.50000000  0.29704500  0.90859998  1
