# generated using pymatgen
data_HoO2
_symmetry_space_group_name_H-M   'P 1'
_cell_length_a   5.45074797
_cell_length_b   5.45074797
_cell_length_c   6.65718079
_cell_angle_alpha   114.16643524
_cell_angle_beta   114.16643524
_cell_angle_gamma   90.00000000
_symmetry_Int_Tables_number   1
_chemical_formula_structural   HoO2
_chemical_formula_sum   'Ho4 O8'
_cell_volume   161.26817827
_cell_formula_units_Z   4
loop_
 _symmetry_equiv_pos_site_id
 _symmetry_equiv_pos_as_xyz
  1  'x, y, z'
loop_
 _atom_site_type_symbol
 _atom_site_label
 _atom_site_symmetry_multiplicity
 _atom_site_fract_x
 _atom_site_fract_y
 _atom_site_fract_z
 _atom_site_occupancy
  Ho  Ho0  1  0.00000000  0.00000000  0.00000000  1
  Ho  Ho1  1  0.75000001  0.25000000  0.50000001  1
  Ho  Ho2  1  0.50000001  0.50000001  0.00000002  1
  Ho  Ho3  1  0.25000001  0.75000001  0.50000001  1
  O  O4  1  0.61276402  0.62500001  0.75000001  1
  O  O5  1  0.87500002  0.86276401  0.25000002  1
  O  O6  1  0.37500002  0.86276401  0.25000002  1
  O  O7  1  0.13723600  0.12500000  0.74999999  1
  O  O8  1  0.37500001  0.38723601  0.25000001  1
  O  O9  1  0.87500002  0.38723601  0.25000001  1
  O  O10  1  0.13723601  0.62500001  0.75000000  1
  O  O11  1  0.61276401  0.12500000  0.75000000  1
