# generated using pymatgen
data_Ti2AgTe4
_symmetry_space_group_name_H-M   'P 1'
_cell_length_a   8.14585781
_cell_length_b   8.14585781
_cell_length_c   8.14585781
_cell_angle_alpha   60.00000000
_cell_angle_beta   60.00000000
_cell_angle_gamma   60.00000000
_symmetry_Int_Tables_number   1
_chemical_formula_structural   Ti2AgTe4
_chemical_formula_sum   'Ti4 Ag2 Te8'
_cell_volume   382.20421948
_cell_formula_units_Z   2
loop_
 _symmetry_equiv_pos_site_id
 _symmetry_equiv_pos_as_xyz
  1  'x, y, z'
loop_
 _atom_site_type_symbol
 _atom_site_label
 _atom_site_symmetry_multiplicity
 _atom_site_fract_x
 _atom_site_fract_y
 _atom_site_fract_z
 _atom_site_occupancy
  Ti  Ti0  1  0.37499998  0.87499995  0.87499995  1
  Ti  Ti1  1  0.87499995  0.87499995  0.37499998  1
  Ti  Ti2  1  0.87499995  0.37499998  0.87499995  1
  Ti  Ti3  1  0.87499995  0.87499995  0.87499995  1
  Ag  Ag4  1  0.24999999  0.24999999  0.24999999  1
  Ag  Ag5  1  0.49999997  0.49999997  0.49999997  1
  Te  Te6  1  0.11201299  0.11201199  0.66396297  1
  Te  Te7  1  0.08603600  0.63798797  0.63798797  1
  Te  Te8  1  0.11201299  0.66396297  0.11201199  1
  Te  Te9  1  0.11201299  0.11201199  0.11201199  1
  Te  Te10  1  0.63798697  0.08603700  0.63798797  1
  Te  Te11  1  0.63798697  0.63798797  0.63798797  1
  Te  Te12  1  0.63798697  0.63798797  0.08603700  1
  Te  Te13  1  0.66396397  0.11201199  0.11201199  1
