# generated using pymatgen
data_La3In5
_symmetry_space_group_name_H-M   'P 1'
_cell_length_a   6.73654604
_cell_length_b   6.73654604
_cell_length_c   10.46556759
_cell_angle_alpha   90.00000000
_cell_angle_beta   90.00000000
_cell_angle_gamma   102.28884125
_symmetry_Int_Tables_number   1
_chemical_formula_structural   La3In5
_chemical_formula_sum   'La6 In10'
_cell_volume   464.05622882
_cell_formula_units_Z   2
loop_
 _symmetry_equiv_pos_site_id
 _symmetry_equiv_pos_as_xyz
  1  'x, y, z'
loop_
 _atom_site_type_symbol
 _atom_site_label
 _atom_site_symmetry_multiplicity
 _atom_site_fract_x
 _atom_site_fract_y
 _atom_site_fract_z
 _atom_site_occupancy
  La  La0  1  0.61441295  0.61441299  0.75000003  1
  La  La1  1  0.38558697  0.38558699  0.25000001  1
  La  La2  1  0.20646095  0.79353898  0.50000002  1
  La  La3  1  0.20646095  0.79353898  1.00000004  1
  La  La4  1  0.79353898  0.20646100  0.50000002  1
  La  La5  1  0.79353898  0.20646100  1.00000004  1
  In  In6  1  0.00520200  0.00520200  0.75000003  1
  In  In7  1  0.99479793  0.99479798  0.25000001  1
  In  In8  1  0.29942698  0.29942699  0.95465904  1
  In  In9  1  0.70057295  0.70057298  0.04534100  1
  In  In10  1  0.29942698  0.29942699  0.54534102  1
  In  In11  1  0.70057295  0.70057298  0.45465902  1
  In  In12  1  0.50085799  0.05623500  0.75000003  1
  In  In13  1  0.94376496  0.49914199  0.25000001  1
  In  In14  1  0.49914193  0.94376498  0.25000001  1
  In  In15  1  0.05623497  0.50085799  0.75000003  1
