# generated using pymatgen
data_Zr2AlSi3
_symmetry_space_group_name_H-M   'P 1'
_cell_length_a   6.63448000
_cell_length_b   6.63448000
_cell_length_c   7.86912012
_cell_angle_alpha   90.00000000
_cell_angle_beta   90.00000000
_cell_angle_gamma   120.00000000
_symmetry_Int_Tables_number   1
_chemical_formula_structural   Zr2AlSi3
_chemical_formula_sum   'Zr6 Al3 Si9'
_cell_volume   299.96500056
_cell_formula_units_Z   3
loop_
 _symmetry_equiv_pos_site_id
 _symmetry_equiv_pos_as_xyz
  1  'x, y, z'
loop_
 _atom_site_type_symbol
 _atom_site_label
 _atom_site_symmetry_multiplicity
 _atom_site_fract_x
 _atom_site_fract_y
 _atom_site_fract_z
 _atom_site_occupancy
  Zr  Zr0  1  0.58172399  0.58172398  0.49999999  1
  Zr  Zr1  1  -0.00000001  0.41827598  0.49999999  1
  Zr  Zr2  1  0.41827600  0.00000000  0.49999999  1
  Zr  Zr3  1  0.37616300  0.00000000  0.99999998  1
  Zr  Zr4  1  -0.00000001  0.37616299  -0.00000000  1
  Zr  Zr5  1  0.24933100  0.24933099  0.22304500  1
  Al  Al6  1  0.62383699  0.62383698  -0.00000000  1
  Al  Al7  1  -0.00000001  0.75066897  0.22304500  1
  Si  Si8  1  0.24933100  0.24933099  0.77695499  1
  Al  Al9  1  -0.00000001  0.75066897  0.77695499  1
  Si  Si10  1  0.75066900  0.00000000  0.22304500  1
  Si  Si11  1  0.75066900  0.00000000  0.77695499  1
  Si  Si12  1  0.00000000  0.00000000  0.00000000  1
  Si  Si13  1  0.33333332  0.66666664  0.76209899  1
  Si  Si14  1  0.33333332  0.66666664  0.23790100  1
  Si  Si15  1  0.00000000  0.00000000  0.49999999  1
  Si  Si16  1  0.66666666  0.33333332  0.23790100  1
  Si  Si17  1  0.66666666  0.33333332  0.76209899  1
