# generated using pymatgen
data_La2MnNbO6
_symmetry_space_group_name_H-M   'P 1'
_cell_length_a   5.98913383
_cell_length_b   5.98913383
_cell_length_c   5.98913336
_cell_angle_alpha   64.39085388
_cell_angle_beta   64.39085388
_cell_angle_gamma   64.39085388
_symmetry_Int_Tables_number   1
_chemical_formula_structural   La2MnNbO6
_chemical_formula_sum   'La2 Mn1 Nb1 O6'
_cell_volume   166.54866443
_cell_formula_units_Z   1
loop_
 _symmetry_equiv_pos_site_id
 _symmetry_equiv_pos_as_xyz
  1  'x, y, z'
loop_
 _atom_site_type_symbol
 _atom_site_label
 _atom_site_symmetry_multiplicity
 _atom_site_fract_x
 _atom_site_fract_y
 _atom_site_fract_z
 _atom_site_occupancy
  Mn  Mn0  1  0.13598900  0.13598901  0.13598901  1
  La  La1  1  0.36401099  0.36401101  0.36401103  1
  La  La2  1  0.63598899  0.63598903  0.63598906  1
  Nb  Nb3  1  0.86401099  0.86401103  0.86401108  1
  O  O4  1  0.00526398  0.49473602  0.75000004  1
  O  O5  1  0.49473598  0.75000003  0.00526404  1
  O  O6  1  0.75000002  0.00526400  0.49473603  1
  O  O7  1  0.24999996  0.99473604  0.50526406  1
  O  O8  1  0.50526400  0.25000001  0.99473604  1
  O  O9  1  0.99473601  0.50526402  0.25000005  1
