# generated using pymatgen
data_CeAl7Si8
_symmetry_space_group_name_H-M   'P 1'
_cell_length_a   3.90872407
_cell_length_b   3.90872407
_cell_length_c   17.98260498
_cell_angle_alpha   90.00000000
_cell_angle_beta   90.00000000
_cell_angle_gamma   90.00000000
_symmetry_Int_Tables_number   1
_chemical_formula_structural   CeAl7Si8
_chemical_formula_sum   'Ce1 Al7 Si8'
_cell_volume   274.74046608
_cell_formula_units_Z   1
loop_
 _symmetry_equiv_pos_site_id
 _symmetry_equiv_pos_as_xyz
  1  'x, y, z'
loop_
 _atom_site_type_symbol
 _atom_site_label
 _atom_site_symmetry_multiplicity
 _atom_site_fract_x
 _atom_site_fract_y
 _atom_site_fract_z
 _atom_site_occupancy
  Ce  Ce0  1  0.49999999  0.00000000  0.62575000  1
  Al  Al1  1  0.49999999  0.00000000  0.07021200  1
  Al  Al2  1  0.00000000  0.49999999  0.92978800  1
  Al  Al3  1  0.00000000  0.49999999  0.37425000  1
  Al  Al4  1  0.00000000  0.00000000  0.76893800  1
  Al  Al5  1  0.49999999  0.49999999  0.76893800  1
  Al  Al6  1  0.00000000  0.00000000  0.23106200  1
  Al  Al7  1  0.49999999  0.49999999  0.23106200  1
  Si  Si8  1  0.00000000  0.49999999  0.14858600  1
  Si  Si9  1  0.00000000  0.49999999  0.67699800  1
  Si  Si10  1  0.49999999  0.00000000  0.32300200  1
  Si  Si11  1  0.49999999  0.00000000  0.85141400  1
  Si  Si12  1  0.49999999  0.49999999  0.50000000  1
  Si  Si13  1  0.00000000  0.00000000  0.50000000  1
  Si  Si14  1  0.49999999  0.49999999  -0.00000000  1
  Si  Si15  1  0.00000000  0.00000000  0.00000000  1
