# generated using pymatgen
data_Al4SiMo3
_symmetry_space_group_name_H-M   'P 1'
_cell_length_a   4.88875151
_cell_length_b   4.88875151
_cell_length_c   4.88875151
_cell_angle_alpha   90.59436035
_cell_angle_beta   90.59436035
_cell_angle_gamma   90.59436035
_symmetry_Int_Tables_number   1
_chemical_formula_structural   Al4SiMo3
_chemical_formula_sum   'Al4 Si1 Mo3'
_cell_volume   116.82163839
_cell_formula_units_Z   1
loop_
 _symmetry_equiv_pos_site_id
 _symmetry_equiv_pos_as_xyz
  1  'x, y, z'
loop_
 _atom_site_type_symbol
 _atom_site_label
 _atom_site_symmetry_multiplicity
 _atom_site_fract_x
 _atom_site_fract_y
 _atom_site_fract_z
 _atom_site_occupancy
  Al  Al0  1  0.84263300  0.65768503  0.34990392  1
  Al  Al1  1  0.34990397  0.84263304  0.65768494  1
  Al  Al2  1  0.65768501  0.34990402  0.84263296  1
  Al  Al3  1  0.15629500  0.15629501  0.15629499  1
  Si  Si4  1  0.85656800  0.85656804  0.85656792  1
  Mo  Mo5  1  0.14855199  0.34456002  0.64380298  1
  Mo  Mo6  1  0.64380302  0.14855201  0.34455996  1
  Mo  Mo7  1  0.34455998  0.64380303  0.14855195  1
