# generated using pymatgen
data_LuMg2Ni9
_symmetry_space_group_name_H-M   'P 1'
_cell_length_a   4.85205984
_cell_length_b   4.85205984
_cell_length_c   8.33616447
_cell_angle_alpha   73.08068848
_cell_angle_beta   73.08068848
_cell_angle_gamma   60.00000000
_symmetry_Int_Tables_number   1
_chemical_formula_structural   LuMg2Ni9
_chemical_formula_sum   'Lu1 Mg2 Ni9'
_cell_volume   160.07696740
_cell_formula_units_Z   1
loop_
 _symmetry_equiv_pos_site_id
 _symmetry_equiv_pos_as_xyz
  1  'x, y, z'
loop_
 _atom_site_type_symbol
 _atom_site_label
 _atom_site_symmetry_multiplicity
 _atom_site_fract_x
 _atom_site_fract_y
 _atom_site_fract_z
 _atom_site_occupancy
  Lu  Lu0  1  0.00000000  0.00000000  0.00000000  1
  Mg  Mg1  1  0.85669304  0.85669303  0.42992101  1
  Mg  Mg2  1  0.14330701  0.14330701  0.57007898  1
  Ni  Ni3  1  0.58597002  0.08197600  0.74608398  1
  Ni  Ni4  1  0.58597003  0.58597002  0.74608399  1
  Ni  Ni5  1  0.08197601  0.58597002  0.74608398  1
  Ni  Ni6  1  0.91802404  0.41403001  0.25391601  1
  Ni  Ni7  1  0.41403003  0.91802403  0.25391601  1
  Ni  Ni8  1  0.41403002  0.41403001  0.25391600  1
  Ni  Ni9  1  0.50000003  0.50000002  0.50000000  1
  Ni  Ni10  1  0.66655203  0.66655202  0.00034402  1
  Ni  Ni11  1  0.33344802  0.33344801  0.99965597  1
