# generated using pymatgen
data_InAgSe2
_symmetry_space_group_name_H-M   'P 1'
_cell_length_a   4.32563782
_cell_length_b   4.32563782
_cell_length_c   7.44070578
_cell_angle_alpha   73.10169983
_cell_angle_beta   73.10169983
_cell_angle_gamma   60.00000763
_symmetry_Int_Tables_number   1
_chemical_formula_structural   InAgSe2
_chemical_formula_sum   'In1 Ag1 Se2'
_cell_volume   113.57725049
_cell_formula_units_Z   1
loop_
 _symmetry_equiv_pos_site_id
 _symmetry_equiv_pos_as_xyz
  1  'x, y, z'
loop_
 _atom_site_type_symbol
 _atom_site_label
 _atom_site_symmetry_multiplicity
 _atom_site_fract_x
 _atom_site_fract_y
 _atom_site_fract_z
 _atom_site_occupancy
  In  In0  1  0.50697301  0.50697297  0.47908098  1
  Ag  Ag1  1  0.99404201  0.99404194  0.01787393  1
  Se  Se2  1  0.11829100  0.11829099  0.64512701  1
  Se  Se3  1  0.63069401  0.63069396  0.10791796  1
