# generated using pymatgen
data_Li2Co(PO4)2
_symmetry_space_group_name_H-M   'P 1'
_cell_length_a   4.90712929
_cell_length_b   4.90712929
_cell_length_c   6.26354885
_cell_angle_alpha   90.00000000
_cell_angle_beta   90.00000000
_cell_angle_gamma   111.78841400
_symmetry_Int_Tables_number   1
_chemical_formula_structural   Li2Co(PO4)2
_chemical_formula_sum   'Li2 Co1 P2 O8'
_cell_volume   140.05088706
_cell_formula_units_Z   1
loop_
 _symmetry_equiv_pos_site_id
 _symmetry_equiv_pos_as_xyz
  1  'x, y, z'
loop_
 _atom_site_type_symbol
 _atom_site_label
 _atom_site_symmetry_multiplicity
 _atom_site_fract_x
 _atom_site_fract_y
 _atom_site_fract_z
 _atom_site_occupancy
  Li  Li0  1  0.83413903  0.16586101  0.50000001  1
  Li  Li1  1  0.50016803  0.49983202  0.22845201  1
  Co  Co2  1  0.50016803  0.49983202  0.77154802  1
  P  P3  1  0.85184503  0.14815501  -0.00000000  1
  P  P4  1  0.15836404  0.84163603  0.50000001  1
  O  O5  1  0.74638203  0.25361801  0.20322700  1
  O  O6  1  0.73173805  0.80366703  -0.00000000  1
  O  O7  1  0.19633302  0.26826201  -0.00000000  1
  O  O8  1  0.74638203  0.25361801  0.79677302  1
  O  O9  1  0.26450004  0.73550003  0.69914302  1
  O  O10  1  0.81165605  0.73021103  0.50000001  1
  O  O11  1  0.26978901  0.18834401  0.50000001  1
  O  O12  1  0.26450004  0.73550003  0.30085701  1
