# generated using pymatgen
data_YMn2SiNi
_symmetry_space_group_name_H-M   'P 1'
_cell_length_a   3.98205590
_cell_length_b   3.98205638
_cell_length_c   6.82385015
_cell_angle_alpha   90.00000000
_cell_angle_beta   90.00000000
_cell_angle_gamma   120.00000000
_symmetry_Int_Tables_number   1
_chemical_formula_structural   YMn2SiNi
_chemical_formula_sum   'Y1 Mn2 Si1 Ni1'
_cell_volume   93.70761197
_cell_formula_units_Z   1
loop_
 _symmetry_equiv_pos_site_id
 _symmetry_equiv_pos_as_xyz
  1  'x, y, z'
loop_
 _atom_site_type_symbol
 _atom_site_label
 _atom_site_symmetry_multiplicity
 _atom_site_fract_x
 _atom_site_fract_y
 _atom_site_fract_z
 _atom_site_occupancy
  Y  Y0  1  0.33333337  0.66666667  0.97383598  1
  Mn  Mn1  1  0.00000000  0.00000000  0.64335299  1
  Mn  Mn2  1  0.66666670  0.33333334  0.38836599  1
  Ni  Ni3  1  0.00000000  0.00000000  0.26618799  1
  Si  Si4  1  0.66666670  0.33333334  0.72825698  1
