# generated using pymatgen
data_Y(CoGe)2
_symmetry_space_group_name_H-M   'P 1'
_cell_length_a   4.09117603
_cell_length_b   4.09117603
_cell_length_c   5.77102852
_cell_angle_alpha   110.76023865
_cell_angle_beta   110.76023865
_cell_angle_gamma   90.00000000
_symmetry_Int_Tables_number   1
_chemical_formula_structural   Y(CoGe)2
_chemical_formula_sum   'Y1 Co2 Ge2'
_cell_volume   83.58126474
_cell_formula_units_Z   1
loop_
 _symmetry_equiv_pos_site_id
 _symmetry_equiv_pos_as_xyz
  1  'x, y, z'
loop_
 _atom_site_type_symbol
 _atom_site_label
 _atom_site_symmetry_multiplicity
 _atom_site_fract_x
 _atom_site_fract_y
 _atom_site_fract_z
 _atom_site_occupancy
  Y  Y0  1  0.00000000  0.00000000  0.00000000  1
  Co  Co1  1  0.75000000  0.25000000  0.50000002  1
  Co  Co2  1  0.25000001  0.75000000  0.50000002  1
  Ge  Ge3  1  0.62130801  0.62130800  0.24261602  1
  Ge  Ge4  1  0.37869200  0.37869200  0.75738403  1
