# generated using pymatgen
data_CdGaCuAgTe4
_symmetry_space_group_name_H-M   'P 1'
_cell_length_a   6.35710287
_cell_length_b   6.35710287
_cell_length_c   7.68317366
_cell_angle_alpha   114.43766022
_cell_angle_beta   114.43766785
_cell_angle_gamma   90.00000000
_symmetry_Int_Tables_number   1
_chemical_formula_structural   CdGaCuAgTe4
_chemical_formula_sum   'Cd1 Ga1 Cu1 Ag1 Te4'
_cell_volume   251.80998153
_cell_formula_units_Z   1
loop_
 _symmetry_equiv_pos_site_id
 _symmetry_equiv_pos_as_xyz
  1  'x, y, z'
loop_
 _atom_site_type_symbol
 _atom_site_label
 _atom_site_symmetry_multiplicity
 _atom_site_fract_x
 _atom_site_fract_y
 _atom_site_fract_z
 _atom_site_occupancy
  Cd  Cd0  1  0.50000005  0.50000003  0.00000005  1
  Ga  Ga1  1  0.25000005  0.75000004  0.50000005  1
  Cu  Cu2  1  0.00000000  0.00000000  0.00000000  1
  Ag  Ag3  1  0.75000004  0.25000001  0.50000003  1
  Te  Te4  1  0.34902803  0.36608602  0.24959203  1
  Te  Te5  1  0.90056408  0.88350505  0.24959209  1
  Te  Te6  1  0.11649404  0.65097204  0.75040803  1
  Te  Te7  1  0.63391303  0.09943601  0.75040801  1
