# generated using pymatgen
data_Zr(Fe2Si)2
_symmetry_space_group_name_H-M   'P 1'
_cell_length_a   3.76711512
_cell_length_b   6.88188314
_cell_length_c   6.88188314
_cell_angle_alpha   90.00000000
_cell_angle_beta   90.00000000
_cell_angle_gamma   90.00000000
_symmetry_Int_Tables_number   1
_chemical_formula_structural   Zr(Fe2Si)2
_chemical_formula_sum   'Zr2 Fe8 Si4'
_cell_volume   178.41176085
_cell_formula_units_Z   2
loop_
 _symmetry_equiv_pos_site_id
 _symmetry_equiv_pos_as_xyz
  1  'x, y, z'
loop_
 _atom_site_type_symbol
 _atom_site_label
 _atom_site_symmetry_multiplicity
 _atom_site_fract_x
 _atom_site_fract_y
 _atom_site_fract_z
 _atom_site_occupancy
  Zr  Zr0  1  0.99999997  0.49999999  0.49999999  1
  Zr  Zr1  1  0.49999998  0.00000000  0.00000000  1
  Fe  Fe2  1  0.49999998  0.59038799  0.14790200  1
  Fe  Fe3  1  0.49999998  0.40961199  0.85209798  1
  Fe  Fe4  1  0.00000000  0.09038800  0.35209799  1
  Fe  Fe5  1  0.99999997  0.90961198  0.64790199  1
  Fe  Fe6  1  0.49999998  0.14790200  0.59038799  1
  Fe  Fe7  1  0.49999998  0.85209798  0.40961199  1
  Fe  Fe8  1  0.00000000  0.35209799  0.09038800  1
  Fe  Fe9  1  0.99999997  0.64790199  0.90961198  1
  Si  Si10  1  0.49999998  0.71733798  0.71733798  1
  Si  Si11  1  0.49999998  0.28266199  0.28266199  1
  Si  Si12  1  0.00000000  0.21733800  0.78266198  1
  Si  Si13  1  0.00000000  0.78266198  0.21733800  1
