# generated using pymatgen
data_Li2Fe3O8
_symmetry_space_group_name_H-M   'P 1'
_cell_length_a   5.68251324
_cell_length_b   5.69120979
_cell_length_c   5.71390867
_cell_angle_alpha   91.12209320
_cell_angle_beta   119.72168732
_cell_angle_gamma   117.60242462
_symmetry_Int_Tables_number   1
_chemical_formula_structural   Li2Fe3O8
_chemical_formula_sum   'Li2 Fe3 O8'
_cell_volume   134.54641990
_cell_formula_units_Z   1
loop_
 _symmetry_equiv_pos_site_id
 _symmetry_equiv_pos_as_xyz
  1  'x, y, z'
loop_
 _atom_site_type_symbol
 _atom_site_label
 _atom_site_symmetry_multiplicity
 _atom_site_fract_x
 _atom_site_fract_y
 _atom_site_fract_z
 _atom_site_occupancy
  Li  Li0  1  0.49999999  0.00000000  0.50000002  1
  Li  Li1  1  0.00000005  0.50000001  0.50000002  1
  Fe  Fe2  1  0.00000000  0.00000000  0.00000000  1
  Fe  Fe3  1  0.49999999  0.00000000  0.00000001  1
  Fe  Fe4  1  0.00000000  0.00000000  0.50000001  1
  O  O5  1  0.54397506  0.80222602  0.26654403  1
  O  O6  1  0.03666507  0.78985202  0.27306902  1
  O  O7  1  0.52613406  0.79058202  0.76245704  1
  O  O8  1  0.04538707  0.79357602  0.76261303  1
  O  O9  1  0.95461299  0.20642401  0.23738703  1
  O  O10  1  0.47386601  0.20941801  0.23754302  1
  O  O11  1  0.96333499  0.21014801  0.72693104  1
  O  O12  1  0.45602500  0.19777401  0.73345603  1
