# generated using pymatgen
data_SmGa2
_symmetry_space_group_name_H-M   'P 1'
_cell_length_a   4.54514217
_cell_length_b   5.69908285
_cell_length_c   5.76637745
_cell_angle_alpha   76.42009735
_cell_angle_beta   66.78969574
_cell_angle_gamma   66.49926758
_symmetry_Int_Tables_number   1
_chemical_formula_structural   SmGa2
_chemical_formula_sum   'Sm2 Ga4'
_cell_volume   125.35626136
_cell_formula_units_Z   2
loop_
 _symmetry_equiv_pos_site_id
 _symmetry_equiv_pos_as_xyz
  1  'x, y, z'
loop_
 _atom_site_type_symbol
 _atom_site_label
 _atom_site_symmetry_multiplicity
 _atom_site_fract_x
 _atom_site_fract_y
 _atom_site_fract_z
 _atom_site_occupancy
  Sm  Sm0  1  0.53701498  0.21607499  0.70989501  1
  Sm  Sm1  1  0.46298502  0.78392495  0.29010505  1
  Ga  Ga2  1  0.83970897  0.20560199  0.11498003  1
  Ga  Ga3  1  0.16029103  0.79439795  0.88502003  1
  Ga  Ga4  1  0.17206901  0.37723698  0.27862502  1
  Ga  Ga5  1  0.82793099  0.62276296  0.72137504  1
