# generated using pymatgen
data_K7Li
_symmetry_space_group_name_H-M   'P 1'
_cell_length_a   4.26133585
_cell_length_b   8.48364067
_cell_length_c   10.05404282
_cell_angle_alpha   84.32247925
_cell_angle_beta   77.76502228
_cell_angle_gamma   75.45441437
_symmetry_Int_Tables_number   1
_chemical_formula_structural   K7Li
_chemical_formula_sum   'K7 Li1'
_cell_volume   343.42770075
_cell_formula_units_Z   1
loop_
 _symmetry_equiv_pos_site_id
 _symmetry_equiv_pos_as_xyz
  1  'x, y, z'
loop_
 _atom_site_type_symbol
 _atom_site_label
 _atom_site_symmetry_multiplicity
 _atom_site_fract_x
 _atom_site_fract_y
 _atom_site_fract_z
 _atom_site_occupancy
  K  K0  1  0.87755800  0.42123599  0.82364807  1
  K  K1  1  0.24595198  0.67110899  0.83698706  1
  K  K2  1  0.75404800  0.32889100  0.16301304  1
  K  K3  1  0.12244198  0.57876399  0.17635204  1
  K  K4  1  0.47720798  0.85786199  0.18772206  1
  K  K5  1  0.66455901  0.23163300  0.43924904  1
  K  K6  1  0.33544098  0.76836699  0.56075106  1
  Li  Li7  1  0.52279201  0.14213800  0.81227804  1
