# generated using pymatgen
data_Cs2TlO3
_symmetry_space_group_name_H-M   'P 1'
_cell_length_a   6.41180611
_cell_length_b   7.05675077
_cell_length_c   7.05675077
_cell_angle_alpha   113.51626587
_cell_angle_beta   90.00000000
_cell_angle_gamma   90.00000000
_symmetry_Int_Tables_number   1
_chemical_formula_structural   Cs2TlO3
_chemical_formula_sum   'Cs4 Tl2 O6'
_cell_volume   292.77507165
_cell_formula_units_Z   2
loop_
 _symmetry_equiv_pos_site_id
 _symmetry_equiv_pos_as_xyz
  1  'x, y, z'
loop_
 _atom_site_type_symbol
 _atom_site_label
 _atom_site_symmetry_multiplicity
 _atom_site_fract_x
 _atom_site_fract_y
 _atom_site_fract_z
 _atom_site_occupancy
  Cs  Cs0  1  0.74368899  0.48194700  0.80585801  1
  Cs  Cs1  1  0.24368900  0.19414200  0.51805300  1
  Cs  Cs2  1  0.24368900  0.51805300  0.19414202  1
  Cs  Cs3  1  0.74368899  0.80585800  0.48194703  1
  Tl  Tl4  1  0.76053899  0.08553400  0.08553400  1
  Tl  Tl5  1  0.26053900  0.91446600  0.91446602  1
  O  O6  1  0.00528000  0.10992000  0.87703099  1
  O  O7  1  0.50527999  0.12296900  0.89008000  1
  O  O8  1  0.30152499  0.65298400  0.65298402  1
  O  O9  1  0.80152499  0.34701600  0.34701601  1
  O  O10  1  0.00528000  0.87703100  0.10992003  1
  O  O11  1  0.50527999  0.89008000  0.12296903  1
