# generated using pymatgen
data_MgZn
_symmetry_space_group_name_H-M   'P 1'
_cell_length_a   3.17925406
_cell_length_b   5.61054945
_cell_length_c   7.22768927
_cell_angle_alpha   108.66427612
_cell_angle_beta   90.00000000
_cell_angle_gamma   106.45894623
_symmetry_Int_Tables_number   1
_chemical_formula_structural   MgZn
_chemical_formula_sum   'Mg3 Zn3'
_cell_volume   116.55307078
_cell_formula_units_Z   3
loop_
 _symmetry_equiv_pos_site_id
 _symmetry_equiv_pos_as_xyz
  1  'x, y, z'
loop_
 _atom_site_type_symbol
 _atom_site_label
 _atom_site_symmetry_multiplicity
 _atom_site_fract_x
 _atom_site_fract_y
 _atom_site_fract_z
 _atom_site_occupancy
  Mg  Mg0  1  0.18880502  0.37761000  0.64747700  1
  Mg  Mg1  1  0.81119502  0.62239000  0.35252298  1
  Mg  Mg2  1  0.86590003  0.73180000  0.97404600  1
  Zn  Zn3  1  0.47320004  0.94640000  0.70386798  1
  Zn  Zn4  1  0.52679999  0.05360000  0.29613201  1
  Zn  Zn5  1  0.13410001  0.26820000  0.02595399  1
