# generated using pymatgen
data_CaPb2
_symmetry_space_group_name_H-M   'P 1'
_cell_length_a   4.62742996
_cell_length_b   4.80980015
_cell_length_c   9.06931591
_cell_angle_alpha   74.62301636
_cell_angle_beta   90.00000000
_cell_angle_gamma   90.00000000
_symmetry_Int_Tables_number   1
_chemical_formula_structural   CaPb2
_chemical_formula_sum   'Ca2 Pb4'
_cell_volume   194.62984869
_cell_formula_units_Z   2
loop_
 _symmetry_equiv_pos_site_id
 _symmetry_equiv_pos_as_xyz
  1  'x, y, z'
loop_
 _atom_site_type_symbol
 _atom_site_label
 _atom_site_symmetry_multiplicity
 _atom_site_fract_x
 _atom_site_fract_y
 _atom_site_fract_z
 _atom_site_occupancy
  Ca  Ca0  1  0.75000001  0.89909796  0.20180401  1
  Ca  Ca1  1  0.25000000  0.10090200  0.79819596  1
  Pb  Pb2  1  0.75000001  0.56250497  0.87498997  1
  Pb  Pb3  1  0.25000000  0.43749498  0.12501001  1
  Pb  Pb4  1  0.75000001  0.25265999  0.49467998  1
  Pb  Pb5  1  0.25000000  0.74733997  0.50531999  1
