# generated using pymatgen
data_ErCdAu
_symmetry_space_group_name_H-M   'P 1'
_cell_length_a   3.85120893
_cell_length_b   7.93150616
_cell_length_c   7.93150616
_cell_angle_alpha   120.00000000
_cell_angle_beta   90.00000000
_cell_angle_gamma   90.00000000
_symmetry_Int_Tables_number   1
_chemical_formula_structural   ErCdAu
_chemical_formula_sum   'Er3 Cd3 Au3'
_cell_volume   209.81621222
_cell_formula_units_Z   3
loop_
 _symmetry_equiv_pos_site_id
 _symmetry_equiv_pos_as_xyz
  1  'x, y, z'
loop_
 _atom_site_type_symbol
 _atom_site_label
 _atom_site_symmetry_multiplicity
 _atom_site_fract_x
 _atom_site_fract_y
 _atom_site_fract_z
 _atom_site_occupancy
  Er  Er0  1  -0.00000000  0.40460000  0.40460002  1
  Er  Er1  1  0.00000000  0.00000000  0.59540001  1
  Er  Er2  1  -0.00000000  0.59539999  0.00000001  1
  Cd  Cd3  1  0.50000001  0.73532299  0.73532303  1
  Cd  Cd4  1  0.50000001  0.00000000  0.26467700  1
  Cd  Cd5  1  0.50000001  0.26467700  0.00000001  1
  Au  Au6  1  0.50000001  0.66666666  0.33333335  1
  Au  Au7  1  0.50000001  0.33333333  0.66666668  1
  Au  Au8  1  0.00000000  0.00000000  0.00000000  1
