# generated using pymatgen
data_RbBiTe3
_symmetry_space_group_name_H-M   'P 1'
_cell_length_a   6.17685223
_cell_length_b   6.18011808
_cell_length_c   6.18701792
_cell_angle_alpha   89.96640015
_cell_angle_beta   90.00000000
_cell_angle_gamma   90.00000000
_symmetry_Int_Tables_number   1
_chemical_formula_structural   RbBiTe3
_chemical_formula_sum   'Rb1 Bi1 Te3'
_cell_volume   236.18117768
_cell_formula_units_Z   1
loop_
 _symmetry_equiv_pos_site_id
 _symmetry_equiv_pos_as_xyz
  1  'x, y, z'
loop_
 _atom_site_type_symbol
 _atom_site_label
 _atom_site_symmetry_multiplicity
 _atom_site_fract_x
 _atom_site_fract_y
 _atom_site_fract_z
 _atom_site_occupancy
  Rb  Rb0  1  0.49999998  0.99712599  0.00011896  1
  Bi  Bi1  1  0.00000000  0.47900099  0.48965099  1
  Te  Te2  1  0.49999998  0.48893799  0.49685899  1
  Te  Te3  1  0.00000000  0.98405399  0.50773197  1
  Te  Te4  1  0.00000000  0.49087799  0.99564200  1
