# generated using pymatgen
data_YCo2
_symmetry_space_group_name_H-M   'P 1'
_cell_length_a   5.13787317
_cell_length_b   5.13787317
_cell_length_c   5.13787317
_cell_angle_alpha   60.00000000
_cell_angle_beta   60.00000000
_cell_angle_gamma   60.00000000
_symmetry_Int_Tables_number   1
_chemical_formula_structural   YCo2
_chemical_formula_sum   'Y2 Co4'
_cell_volume   95.90365103
_cell_formula_units_Z   2
loop_
 _symmetry_equiv_pos_site_id
 _symmetry_equiv_pos_as_xyz
  1  'x, y, z'
loop_
 _atom_site_type_symbol
 _atom_site_label
 _atom_site_symmetry_multiplicity
 _atom_site_fract_x
 _atom_site_fract_y
 _atom_site_fract_z
 _atom_site_occupancy
  Y  Y0  1  0.75000001  0.75000001  0.75000001  1
  Y  Y1  1  0.50000001  0.50000001  0.50000001  1
  Co  Co2  1  0.12450900  0.62647501  0.12450800  1
  Co  Co3  1  0.12450900  0.12450800  0.12450800  1
  Co  Co4  1  0.62647601  0.12450800  0.12450800  1
  Co  Co5  1  0.12450900  0.12450800  0.62647501  1
