# generated using pymatgen
data_Tb7Al11
_symmetry_space_group_name_H-M   'P 1'
_cell_length_a   4.09667015
_cell_length_b   7.68478823
_cell_length_c   13.13872051
_cell_angle_alpha   89.98915100
_cell_angle_beta   90.00000000
_cell_angle_gamma   90.00000000
_symmetry_Int_Tables_number   1
_chemical_formula_structural   Tb7Al11
_chemical_formula_sum   'Tb7 Al11'
_cell_volume   413.63375074
_cell_formula_units_Z   1
loop_
 _symmetry_equiv_pos_site_id
 _symmetry_equiv_pos_as_xyz
  1  'x, y, z'
loop_
 _atom_site_type_symbol
 _atom_site_label
 _atom_site_symmetry_multiplicity
 _atom_site_fract_x
 _atom_site_fract_y
 _atom_site_fract_z
 _atom_site_occupancy
  Tb  Tb0  1  0.49999998  0.40760799  0.00126600  1
  Tb  Tb1  1  0.49999998  0.90988197  0.49391500  1
  Tb  Tb2  1  0.49999998  0.79824698  0.79712699  1
  Tb  Tb3  1  0.49999998  0.28797799  0.29904200  1
  Tb  Tb4  1  0.49999998  0.29737599  0.70187099  1
  Tb  Tb5  1  0.49999998  0.80503298  0.20704300  1
  Al  Al6  1  0.00000000  0.74959898  0.00140301  1
  Tb  Tb7  1  0.00000000  0.24791699  0.49919699  1
  Al  Al8  1  0.00000000  0.62785398  0.62385299  1
  Al  Al9  1  0.00000000  0.12580300  0.12521200  1
  Al  Al10  1  0.00000000  0.12627700  0.87536598  1
  Al  Al11  1  0.00000000  0.62503198  0.37491000  1
  Al  Al12  1  0.00000000  0.00017900  0.66645899  1
  Al  Al13  1  0.00000000  0.49981199  0.16625600  1
  Al  Al14  1  0.00000000  0.49971699  0.83361099  1
  Al  Al15  1  0.00000000  0.99989197  0.33343000  1
  Al  Al16  1  0.49999998  0.99657897  0.99981199  1
  Al  Al17  1  0.49999998  0.49541499  0.50022799  1
