# generated using pymatgen
data_K2Se2SF7
_symmetry_space_group_name_H-M   'P 1'
_cell_length_a   5.31308889
_cell_length_b   7.17891598
_cell_length_c   7.17891598
_cell_angle_alpha   104.29431152
_cell_angle_beta   90.00000000
_cell_angle_gamma   90.00000000
_symmetry_Int_Tables_number   1
_chemical_formula_structural   K2Se2SF7
_chemical_formula_sum   'K2 Se2 S1 F7'
_cell_volume   265.34239138
_cell_formula_units_Z   1
loop_
 _symmetry_equiv_pos_site_id
 _symmetry_equiv_pos_as_xyz
  1  'x, y, z'
loop_
 _atom_site_type_symbol
 _atom_site_label
 _atom_site_symmetry_multiplicity
 _atom_site_fract_x
 _atom_site_fract_y
 _atom_site_fract_z
 _atom_site_occupancy
  K  K0  1  0.25000000  0.10874300  0.89125700  1
  K  K1  1  0.75000001  0.89125699  0.10874296  1
  F  F2  1  0.25000000  0.59207500  0.81472998  1
  F  F3  1  0.75000001  0.40792500  0.18526998  1
  F  F4  1  0.25000000  0.18527000  0.40792499  1
  F  F5  1  0.75000001  0.81472999  0.59207497  1
  S  S6  1  0.50000001  0.15083600  0.15083599  1
  Se  Se7  1  0.50000001  0.84916399  0.84916396  1
  F  F8  1  -0.00000000  0.84916399  0.84916396  1
  Se  Se9  1  -0.00000000  0.15083600  0.15083599  1
  F  F10  1  0.25000000  0.69232200  0.30767797  1
  F  F11  1  0.75000001  0.30767800  0.69232199  1
