# generated using pymatgen
data_Er2Co3Si
_symmetry_space_group_name_H-M   'P 1'
_cell_length_a   4.90668774
_cell_length_b   4.90668774
_cell_length_c   4.90668821
_cell_angle_alpha   64.77364349
_cell_angle_beta   64.77364349
_cell_angle_gamma   64.77365112
_symmetry_Int_Tables_number   1
_chemical_formula_structural   Er2Co3Si
_chemical_formula_sum   'Er2 Co3 Si1'
_cell_volume   92.25621192
_cell_formula_units_Z   1
loop_
 _symmetry_equiv_pos_site_id
 _symmetry_equiv_pos_as_xyz
  1  'x, y, z'
loop_
 _atom_site_type_symbol
 _atom_site_label
 _atom_site_symmetry_multiplicity
 _atom_site_fract_x
 _atom_site_fract_y
 _atom_site_fract_z
 _atom_site_occupancy
  Er  Er0  1  0.37322304  0.37322300  0.37322294  1
  Er  Er1  1  0.62677707  0.62677700  0.62677690  1
  Co  Co2  1  0.50000001  0.00000000  -0.00000002  1
  Si  Si3  1  0.00000005  0.50000000  -0.00000004  1
  Co  Co4  1  0.00000000  0.00000000  0.49999998  1
  Co  Co5  1  0.00000000  0.00000000  0.00000000  1
