# generated using pymatgen
data_Mo2W(SeS)3
_symmetry_space_group_name_H-M   'P 1'
_cell_length_a   3.23216200
_cell_length_b   3.23216248
_cell_length_c   29.69453621
_cell_angle_alpha   90.00000000
_cell_angle_beta   90.00000000
_cell_angle_gamma   119.99999237
_symmetry_Int_Tables_number   1
_chemical_formula_structural   Mo2W(SeS)3
_chemical_formula_sum   'Mo2 W1 Se3 S3'
_cell_volume   268.65412634
_cell_formula_units_Z   1
loop_
 _symmetry_equiv_pos_site_id
 _symmetry_equiv_pos_as_xyz
  1  'x, y, z'
loop_
 _atom_site_type_symbol
 _atom_site_label
 _atom_site_symmetry_multiplicity
 _atom_site_fract_x
 _atom_site_fract_y
 _atom_site_fract_z
 _atom_site_occupancy
  Mo  Mo0  1  0.00000000  0.00000000  0.23136200  1
  Mo  Mo1  1  0.00000000  0.00000000  0.76863799  1
  Se  Se2  1  0.66666665  0.33333333  0.99999999  1
  W  W3  1  0.00000000  0.00000000  0.94223599  1
  Se  Se4  1  0.00000000  0.00000000  0.05776400  1
  Se  Se5  1  0.66666665  0.33333333  0.28377200  1
  S  S6  1  0.66666665  0.33333333  0.82105199  1
  S  S7  1  0.66666665  0.33333333  0.17894800  1
  S  S8  1  0.66666665  0.33333333  0.71622799  1
