# generated using pymatgen
data_SrP
_symmetry_space_group_name_H-M   'P 1'
_cell_length_a   5.72137308
_cell_length_b   7.66208220
_cell_length_c   7.66208220
_cell_angle_alpha   120.00000000
_cell_angle_beta   90.00000000
_cell_angle_gamma   90.00000000
_symmetry_Int_Tables_number   1
_chemical_formula_structural   SrP
_chemical_formula_sum   'Sr6 P6'
_cell_volume   290.88713429
_cell_formula_units_Z   6
loop_
 _symmetry_equiv_pos_site_id
 _symmetry_equiv_pos_as_xyz
  1  'x, y, z'
loop_
 _atom_site_type_symbol
 _atom_site_label
 _atom_site_symmetry_multiplicity
 _atom_site_fract_x
 _atom_site_fract_y
 _atom_site_fract_z
 _atom_site_occupancy
  Sr  Sr0  1  0.49999999  0.00000000  0.64326601  1
  Sr  Sr1  1  0.49999999  0.64326599  1.00000003  1
  Sr  Sr2  1  0.49999999  0.35673400  0.35673401  1
  Sr  Sr3  1  -0.00000000  0.00000000  0.30878600  1
  Sr  Sr4  1  -0.00000000  0.30878600  1.00000002  1
  Sr  Sr5  1  -0.00000000  0.69121399  0.69121403  1
  P  P6  1  0.79833299  0.33333333  0.66666668  1
  P  P7  1  0.20166700  0.33333333  0.66666668  1
  P  P8  1  0.20166700  0.66666666  0.33333336  1
  P  P9  1  0.79833299  0.66666666  0.33333336  1
  P  P10  1  0.30326500  0.00000000  -0.00000000  1
  P  P11  1  0.69673499  0.00000000  -0.00000000  1
