# generated using pymatgen
data_V2NiS7
_symmetry_space_group_name_H-M   'P 1'
_cell_length_a   5.12313223
_cell_length_b   5.88903332
_cell_length_c   11.08526802
_cell_angle_alpha   88.73074341
_cell_angle_beta   87.08096313
_cell_angle_gamma   64.21647644
_symmetry_Int_Tables_number   1
_chemical_formula_structural   V2NiS7
_chemical_formula_sum   'V4 Ni2 S14'
_cell_volume   300.75895355
_cell_formula_units_Z   2
loop_
 _symmetry_equiv_pos_site_id
 _symmetry_equiv_pos_as_xyz
  1  'x, y, z'
loop_
 _atom_site_type_symbol
 _atom_site_label
 _atom_site_symmetry_multiplicity
 _atom_site_fract_x
 _atom_site_fract_y
 _atom_site_fract_z
 _atom_site_occupancy
  V  V0  1  0.50000002  0.49999999  -0.00000000  1
  V  V1  1  0.90596897  0.18806200  0.75000002  1
  V  V2  1  0.00000004  0.49999999  0.50000000  1
  V  V3  1  0.09403106  0.81193799  0.24999999  1
  Ni  Ni4  1  0.55721501  0.49495199  0.21048000  1
  Ni  Ni5  1  0.36061005  0.88200099  0.71696901  1
  S  S6  1  0.54541804  0.79484899  0.52551901  1
  S  S7  1  0.86219397  0.18129800  0.54547802  1
  S  S8  1  0.95650797  0.18129800  0.95452203  1
  S  S9  1  0.65973303  0.79484899  0.97448102  1
  S  S10  1  0.94783299  0.49495199  0.28952001  1
  S  S11  1  0.75738903  0.88200099  0.78303101  1
  S  S12  1  0.24261100  0.11799900  0.21696901  1
  S  S13  1  0.05216704  0.50504799  0.71048001  1
  S  S14  1  0.34026700  0.20515100  0.02551900  1
  S  S15  1  0.04349206  0.81870199  0.04547799  1
  S  S16  1  0.13780606  0.81870199  0.45452200  1
  S  S17  1  0.45458199  0.20515100  0.47448101  1
  S  S18  1  0.63938998  0.11799900  0.28303101  1
  S  S19  1  0.44278502  0.50504799  0.78952001  1
