# generated using pymatgen
data_SrEuGe2
_symmetry_space_group_name_H-M   'P 1'
_cell_length_a   4.80200195
_cell_length_b   4.81311178
_cell_length_c   9.51312065
_cell_angle_alpha   90.00000000
_cell_angle_beta   90.00000000
_cell_angle_gamma   90.00000000
_symmetry_Int_Tables_number   1
_chemical_formula_structural   SrEuGe2
_chemical_formula_sum   'Sr2 Eu2 Ge4'
_cell_volume   219.87268769
_cell_formula_units_Z   2
loop_
 _symmetry_equiv_pos_site_id
 _symmetry_equiv_pos_as_xyz
  1  'x, y, z'
loop_
 _atom_site_type_symbol
 _atom_site_label
 _atom_site_symmetry_multiplicity
 _atom_site_fract_x
 _atom_site_fract_y
 _atom_site_fract_z
 _atom_site_occupancy
  Sr  Sr0  1  0.00000000  0.00000000  0.24930701  1
  Sr  Sr1  1  0.00000000  0.00000000  0.75069303  1
  Eu  Eu2  1  0.50000000  0.50000002  0.25257301  1
  Eu  Eu3  1  0.50000000  0.50000002  0.74742703  1
  Ge  Ge4  1  0.00000000  0.50000002  0.50000002  1
  Ge  Ge5  1  0.00000000  0.50000002  0.00000000  1
  Ge  Ge6  1  0.50000000  0.00000000  0.50000002  1
  Ge  Ge7  1  0.50000000  0.00000000  0.00000000  1
