# generated using pymatgen
data_Ce2UPtC2
_symmetry_space_group_name_H-M   'P 1'
_cell_length_a   3.97504592
_cell_length_b   3.98215294
_cell_length_c   10.54883575
_cell_angle_alpha   90.00000000
_cell_angle_beta   100.86009979
_cell_angle_gamma   90.00000000
_symmetry_Int_Tables_number   1
_chemical_formula_structural   Ce2UPtC2
_chemical_formula_sum   'Ce2 U1 Pt1 C2'
_cell_volume   163.98947482
_cell_formula_units_Z   1
loop_
 _symmetry_equiv_pos_site_id
 _symmetry_equiv_pos_as_xyz
  1  'x, y, z'
loop_
 _atom_site_type_symbol
 _atom_site_label
 _atom_site_symmetry_multiplicity
 _atom_site_fract_x
 _atom_site_fract_y
 _atom_site_fract_z
 _atom_site_occupancy
  Ce  Ce0  1  0.58937101  0.50000001  0.17874200  1
  Ce  Ce1  1  0.41062901  0.50000001  0.82125802  1
  U  U2  1  0.84226301  0.00000000  0.68452601  1
  Pt  Pt3  1  0.15773700  0.00000000  0.31547401  1
  C  C4  1  0.50000001  0.00000000  -0.00000000  1
  C  C5  1  0.00000000  0.50000001  -0.00000000  1
