# generated using pymatgen
data_Ba2Sr(TlSe)2
_symmetry_space_group_name_H-M   'P 1'
_cell_length_a   5.81182575
_cell_length_b   5.81182575
_cell_length_c   10.00616741
_cell_angle_alpha   73.11735535
_cell_angle_beta   73.11735535
_cell_angle_gamma   60.00000000
_symmetry_Int_Tables_number   1
_chemical_formula_structural   Ba2Sr(TlSe)2
_chemical_formula_sum   'Ba2 Sr1 Tl2 Se2'
_cell_volume   275.75245136
_cell_formula_units_Z   1
loop_
 _symmetry_equiv_pos_site_id
 _symmetry_equiv_pos_as_xyz
  1  'x, y, z'
loop_
 _atom_site_type_symbol
 _atom_site_label
 _atom_site_symmetry_multiplicity
 _atom_site_fract_x
 _atom_site_fract_y
 _atom_site_fract_z
 _atom_site_occupancy
  Ba  Ba0  1  0.20785501  0.20785501  0.37643500  1
  Ba  Ba1  1  0.79214502  0.79214503  0.62356501  1
  Sr  Sr2  1  0.38888801  0.38888802  0.83333600  1
  Tl  Tl3  1  0.61111202  0.61111202  0.16666401  1
  Tl  Tl4  1  0.00000000  0.00000000  0.00000000  1
  Se  Se5  1  0.91063103  0.91063104  0.26810701  1
  Se  Se6  1  0.08936900  0.08936900  0.73189300  1
