# generated using pymatgen
data_MnO2
_symmetry_space_group_name_H-M   'P 1'
_cell_length_a   5.89093351
_cell_length_b   5.89093351
_cell_length_c   5.96920681
_cell_angle_alpha   60.43283463
_cell_angle_beta   60.43283463
_cell_angle_gamma   60.00000381
_symmetry_Int_Tables_number   1
_chemical_formula_structural   MnO2
_chemical_formula_sum   'Mn4 O8'
_cell_volume   147.42814389
_cell_formula_units_Z   4
loop_
 _symmetry_equiv_pos_site_id
 _symmetry_equiv_pos_as_xyz
  1  'x, y, z'
loop_
 _atom_site_type_symbol
 _atom_site_label
 _atom_site_symmetry_multiplicity
 _atom_site_fract_x
 _atom_site_fract_y
 _atom_site_fract_z
 _atom_site_occupancy
  Mn  Mn0  1  0.00000000  0.00000000  0.00000000  1
  Mn  Mn1  1  0.50000003  0.50000002  -0.00000001  1
  Mn  Mn2  1  0.00000001  0.50000002  -0.00000001  1
  Mn  Mn3  1  0.50000004  1.00000003  -0.00000001  1
  O  O4  1  0.73188105  0.73188102  0.80435696  1
  O  O5  1  0.23472101  0.23472101  0.80400897  1
  O  O6  1  0.72654903  0.23472101  0.80400896  1
  O  O7  1  0.26811902  0.26811901  0.19564299  1
  O  O8  1  0.23472103  0.72654902  0.80400896  1
  O  O9  1  0.76527905  0.76527902  0.19599098  1
  O  O10  1  0.27345103  0.76527902  0.19599098  1
  O  O11  1  0.76527904  0.27345101  0.19599099  1
