# generated using pymatgen
data_Cu2S4O
_symmetry_space_group_name_H-M   'P 1'
_cell_length_a   4.84604979
_cell_length_b   6.42865419
_cell_length_c   8.86581326
_cell_angle_alpha   92.25812531
_cell_angle_beta   90.00000000
_cell_angle_gamma   90.00000000
_symmetry_Int_Tables_number   1
_chemical_formula_structural   Cu2S4O
_chemical_formula_sum   'Cu4 S8 O2'
_cell_volume   275.98732512
_cell_formula_units_Z   2
loop_
 _symmetry_equiv_pos_site_id
 _symmetry_equiv_pos_as_xyz
  1  'x, y, z'
loop_
 _atom_site_type_symbol
 _atom_site_label
 _atom_site_symmetry_multiplicity
 _atom_site_fract_x
 _atom_site_fract_y
 _atom_site_fract_z
 _atom_site_occupancy
  Cu  Cu0  1  0.92767004  0.80973297  0.52178799  1
  Cu  Cu1  1  0.92767004  0.19026699  0.97821204  1
  Cu  Cu2  1  0.07233000  0.19026699  0.47821202  1
  Cu  Cu3  1  0.07233000  0.80973297  0.02178797  1
  S  S4  1  0.55700802  0.49999998  0.75000002  1
  S  S5  1  0.44299202  0.49999998  0.24999999  1
  S  S6  1  0.22873201  0.49462998  0.40437000  1
  S  S7  1  0.22873201  0.50536998  0.09562999  1
  O  O8  1  0.77126803  0.50536998  0.59563001  1
  S  S9  1  0.77126803  0.49462998  0.90437003  1
  S  S10  1  0.62055603  0.27997599  0.23614500  1
  O  O11  1  0.62055603  0.72002398  0.26385499  1
  S  S12  1  0.37944402  0.27997599  0.73614503  1
  S  S13  1  0.37944402  0.72002398  0.76385501  1
