# generated using pymatgen
data_Cs2CF6
_symmetry_space_group_name_H-M   'P 1'
_cell_length_a   4.76619482
_cell_length_b   6.29812384
_cell_length_c   6.29812431
_cell_angle_alpha   60.00000381
_cell_angle_beta   90.00000000
_cell_angle_gamma   90.00000000
_symmetry_Int_Tables_number   1
_chemical_formula_structural   Cs2CF6
_chemical_formula_sum   'Cs2 C1 F6'
_cell_volume   163.72871863
_cell_formula_units_Z   1
loop_
 _symmetry_equiv_pos_site_id
 _symmetry_equiv_pos_as_xyz
  1  'x, y, z'
loop_
 _atom_site_type_symbol
 _atom_site_label
 _atom_site_symmetry_multiplicity
 _atom_site_fract_x
 _atom_site_fract_y
 _atom_site_fract_z
 _atom_site_occupancy
  Cs  Cs0  1  0.30120801  0.33333334  0.33333335  1
  Cs  Cs1  1  0.69879203  0.66666668  0.66666670  1
  C  C2  1  0.00000000  0.00000000  0.00000000  1
  F  F3  1  0.21693901  0.84093901  0.31812203  1
  F  F4  1  0.21693901  0.31812201  0.84093904  1
  F  F5  1  0.21693901  0.84093901  0.84093905  1
  F  F6  1  0.78306103  0.15906100  0.68187803  1
  F  F7  1  0.78306103  0.68187801  0.15906102  1
  F  F8  1  0.78306103  0.15906100  0.15906101  1
