# generated using pymatgen
data_KPbBr3
_symmetry_space_group_name_H-M   'P 1'
_cell_length_a   4.33427191
_cell_length_b   7.54561377
_cell_length_c   10.75373745
_cell_angle_alpha   90.00000000
_cell_angle_beta   90.00000000
_cell_angle_gamma   106.69068146
_symmetry_Int_Tables_number   1
_chemical_formula_structural   KPbBr3
_chemical_formula_sum   'K2 Pb2 Br6'
_cell_volume   336.88088601
_cell_formula_units_Z   2
loop_
 _symmetry_equiv_pos_site_id
 _symmetry_equiv_pos_as_xyz
  1  'x, y, z'
loop_
 _atom_site_type_symbol
 _atom_site_label
 _atom_site_symmetry_multiplicity
 _atom_site_fract_x
 _atom_site_fract_y
 _atom_site_fract_z
 _atom_site_occupancy
  K  K0  1  0.25219200  0.50438399  0.24999999  1
  K  K1  1  0.74780801  0.49561599  0.74999997  1
  Pb  Pb2  1  0.00000000  0.00000000  0.49999998  1
  Pb  Pb3  1  0.00000000  0.00000000  0.00000000  1
  Br  Br4  1  0.36749700  0.73499398  0.55606898  1
  Br  Br5  1  0.63250301  0.26500599  0.05606900  1
  Br  Br6  1  0.36749700  0.73499398  0.94393096  1
  Br  Br7  1  0.63250301  0.26500599  0.44393098  1
  Br  Br8  1  0.92509201  0.85018398  0.24999999  1
  Br  Br9  1  0.07490800  0.14981600  0.74999997  1
