# generated using pymatgen
data_Y(CoS2)3
_symmetry_space_group_name_H-M   'P 1'
_cell_length_a   4.34966516
_cell_length_b   6.03297806
_cell_length_c   6.93421602
_cell_angle_alpha   113.12152863
_cell_angle_beta   90.00000000
_cell_angle_gamma   90.00000000
_symmetry_Int_Tables_number   1
_chemical_formula_structural   Y(CoS2)3
_chemical_formula_sum   'Y1 Co3 S6'
_cell_volume   167.34735578
_cell_formula_units_Z   1
loop_
 _symmetry_equiv_pos_site_id
 _symmetry_equiv_pos_as_xyz
  1  'x, y, z'
loop_
 _atom_site_type_symbol
 _atom_site_label
 _atom_site_symmetry_multiplicity
 _atom_site_fract_x
 _atom_site_fract_y
 _atom_site_fract_z
 _atom_site_occupancy
  Y  Y0  1  0.50355198  0.00000000  0.49999999  1
  Co  Co1  1  0.00868600  0.29418499  0.20745498  1
  Co  Co2  1  0.00868600  0.70581498  0.79254495  1
  Co  Co3  1  0.00520200  0.89686897  0.15179095  1
  S  S4  1  0.00340800  0.32615899  0.54767197  1
  S  S5  1  0.50867298  0.73344598  0.76722195  1
  S  S6  1  0.00520200  0.10313100  0.84820898  1
  S  S7  1  0.00340800  0.67384098  0.45232796  1
  S  S8  1  0.05171000  0.49999998  -0.00000002  1
  S  S9  1  0.50867298  0.26655399  0.23277798  1
