# generated using pymatgen
data_Ce4BiO9
_symmetry_space_group_name_H-M   'P 1'
_cell_length_a   5.60736179
_cell_length_b   6.79341221
_cell_length_c   6.79341221
_cell_angle_alpha   80.19322205
_cell_angle_beta   65.62507629
_cell_angle_gamma   65.62507629
_symmetry_Int_Tables_number   1
_chemical_formula_structural   Ce4BiO9
_chemical_formula_sum   'Ce4 Bi1 O9'
_cell_volume   214.70489489
_cell_formula_units_Z   1
loop_
 _symmetry_equiv_pos_site_id
 _symmetry_equiv_pos_as_xyz
  1  'x, y, z'
loop_
 _atom_site_type_symbol
 _atom_site_label
 _atom_site_symmetry_multiplicity
 _atom_site_fract_x
 _atom_site_fract_y
 _atom_site_fract_z
 _atom_site_occupancy
  Ce  Ce0  1  0.83543202  0.10068700  0.67912205  1
  Ce  Ce1  1  0.48544602  0.67912201  0.89931307  1
  Ce  Ce2  1  0.61524103  0.89931302  0.32087806  1
  Ce  Ce3  1  0.06388101  0.32087801  0.10068702  1
  Bi  Bi4  1  0.25000001  0.50000001  0.50000004  1
  O  O5  1  0.50000003  1.00000002  0.00000005  1
  O  O6  1  0.80242103  0.78225602  0.60057107  1
  O  O7  1  0.41532302  0.39942901  0.78225705  1
  O  O8  1  0.09928101  0.63128801  0.17939703  1
  O  O9  1  0.90996603  0.36871201  0.82060306  1
  O  O10  1  0.59700902  0.60057101  0.21774305  1
  O  O11  1  0.26943102  0.82060302  0.63128806  1
  O  O12  1  0.72132202  0.17939700  0.36871204  1
  O  O13  1  0.18524701  0.21774400  0.39942903  1
