# generated using pymatgen
data_Y5VWO12
_symmetry_space_group_name_H-M   'P 1'
_cell_length_a   5.95082188
_cell_length_b   6.89701509
_cell_length_c   7.37877798
_cell_angle_alpha   105.53471375
_cell_angle_beta   90.00000000
_cell_angle_gamma   115.55679321
_symmetry_Int_Tables_number   1
_chemical_formula_structural   Y5VWO12
_chemical_formula_sum   'Y5 V1 W1 O12'
_cell_volume   260.89845054
_cell_formula_units_Z   1
loop_
 _symmetry_equiv_pos_site_id
 _symmetry_equiv_pos_as_xyz
  1  'x, y, z'
loop_
 _atom_site_type_symbol
 _atom_site_label
 _atom_site_symmetry_multiplicity
 _atom_site_fract_x
 _atom_site_fract_y
 _atom_site_fract_z
 _atom_site_occupancy
  Y  Y0  1  0.30305896  0.60611798  0.63980797  1
  Y  Y1  1  0.30422796  0.60845598  0.16588796  1
  Y  Y2  1  0.00000000  0.00000000  0.50000001  1
  Y  Y3  1  0.69577198  0.39154399  0.83411199  1
  Y  Y4  1  0.69694098  0.39388199  0.36019198  1
  V  V5  1  0.75731702  0.00000000  -0.00000000  1
  W  W6  1  0.24268292  0.99999996  -0.00000007  1
  O  O7  1  0.00060500  0.00121000  0.17289600  1
  O  O8  1  0.10372395  0.68322497  0.92113997  1
  O  O9  1  0.57950096  0.68322497  0.92113997  1
  O  O10  1  0.09619894  0.69413097  0.42402496  1
  O  O11  1  0.59793195  0.69413097  0.42402496  1
  O  O12  1  0.50037901  0.00075800  0.82408801  1
  O  O13  1  0.49962093  0.99924196  0.17591193  1
  O  O14  1  0.90380099  0.30586899  0.57597499  1
  O  O15  1  0.40206798  0.30586899  0.57597499  1
  O  O16  1  0.89627599  0.31677499  0.07885998  1
  O  O17  1  0.42049898  0.31677499  0.07885998  1
  O  O18  1  0.99939494  0.99878996  0.82710395  1
