# generated using pymatgen
data_Sr2Mn2O5
_symmetry_space_group_name_H-M   'P 1'
_cell_length_a   5.54823208
_cell_length_b   5.57045603
_cell_length_c   8.74100971
_cell_angle_alpha   108.58065033
_cell_angle_beta   108.50382233
_cell_angle_gamma   90.00000000
_symmetry_Int_Tables_number   1
_chemical_formula_structural   Sr2Mn2O5
_chemical_formula_sum   'Sr4 Mn4 O10'
_cell_volume   241.29008016
_cell_formula_units_Z   2
loop_
 _symmetry_equiv_pos_site_id
 _symmetry_equiv_pos_as_xyz
  1  'x, y, z'
loop_
 _atom_site_type_symbol
 _atom_site_label
 _atom_site_symmetry_multiplicity
 _atom_site_fract_x
 _atom_site_fract_y
 _atom_site_fract_z
 _atom_site_occupancy
  Sr  Sr0  1  0.62004399  0.12548200  0.23868999  1
  Sr  Sr1  1  0.38135400  0.87451801  0.76130998  1
  Sr  Sr2  1  0.12004401  0.61320801  0.23869001  1
  Sr  Sr3  1  0.88135399  0.38679200  0.76130997  1
  Mn  Mn4  1  0.00245700  0.00000000  -0.00000000  1
  Mn  Mn5  1  0.50245700  0.50000000  0.00000001  1
  Mn  Mn6  1  0.26599800  0.24118400  0.49999998  1
  Mn  Mn7  1  0.76599800  0.75881601  0.49999999  1
  O  O8  1  0.74325099  0.23932800  0.97936995  1
  O  O9  1  0.76388100  0.76067201  0.02063002  1
  O  O10  1  0.24325100  0.24004200  0.97936996  1
  O  O11  1  0.26388100  0.75995801  0.02063002  1
  O  O12  1  0.13556300  0.17274200  0.25575899  1
  O  O13  1  0.87980399  0.82725801  0.74424098  1
  O  O14  1  0.63556300  0.58301701  0.25575900  1
  O  O15  1  0.37980400  0.41698300  0.74424097  1
  O  O16  1  0.54364799  0.02651000  0.49999897  1
  O  O17  1  0.04364901  0.97349001  0.50000000  1
