# generated using pymatgen
data_V(WF3)2
_symmetry_space_group_name_H-M   'P 1'
_cell_length_a   6.20499897
_cell_length_b   8.26401615
_cell_length_c   8.34727287
_cell_angle_alpha   77.93623352
_cell_angle_beta   81.16379547
_cell_angle_gamma   82.54993439
_symmetry_Int_Tables_number   1
_chemical_formula_structural   V(WF3)2
_chemical_formula_sum   'V2 W4 F12'
_cell_volume   411.49914235
_cell_formula_units_Z   2
loop_
 _symmetry_equiv_pos_site_id
 _symmetry_equiv_pos_as_xyz
  1  'x, y, z'
loop_
 _atom_site_type_symbol
 _atom_site_label
 _atom_site_symmetry_multiplicity
 _atom_site_fract_x
 _atom_site_fract_y
 _atom_site_fract_z
 _atom_site_occupancy
  V  V0  1  0.56284093  0.69939996  0.68598303  1
  V  V1  1  0.43715897  0.30059998  0.31401702  1
  W  W2  1  0.10624591  0.91549695  0.23249605  1
  W  W3  1  0.89375399  0.08450300  0.76750399  1
  W  W4  1  0.89943092  0.75899896  0.06877608  1
  W  W5  1  0.10056898  0.24100099  0.93122397  1
  F  F6  1  0.73206995  0.53233097  0.58096803  1
  F  F7  1  0.26792995  0.46766898  0.41903202  1
  F  F8  1  0.43066392  0.79843296  0.49162504  1
  F  F9  1  0.56933598  0.20156699  0.50837501  1
  F  F10  1  0.41146691  0.86680496  0.80312903  1
  F  F11  1  0.58853299  0.13319499  0.19687102  1
  F  F12  1  0.20184798  0.15723099  0.38758900  1
  F  F13  1  0.79815191  0.84276896  0.61241105  1
  F  F14  1  0.66933396  0.43886298  0.22978104  1
  F  F15  1  0.33066594  0.56113697  0.77021901  1
  F  F16  1  0.29127496  0.39090898  0.11839503  1
  F  F17  1  0.70872494  0.60909097  0.88160502  1
