# generated using pymatgen
data_LiMn2NiO8
_symmetry_space_group_name_H-M   'P 1'
_cell_length_a   5.05757618
_cell_length_b   5.05757618
_cell_length_c   6.22070885
_cell_angle_alpha   113.98586273
_cell_angle_beta   113.98586273
_cell_angle_gamma   90.00000000
_symmetry_Int_Tables_number   1
_chemical_formula_structural   LiMn2NiO8
_chemical_formula_sum   'Li1 Mn2 Ni1 O8'
_cell_volume   130.19644964
_cell_formula_units_Z   1
loop_
 _symmetry_equiv_pos_site_id
 _symmetry_equiv_pos_as_xyz
  1  'x, y, z'
loop_
 _atom_site_type_symbol
 _atom_site_label
 _atom_site_symmetry_multiplicity
 _atom_site_fract_x
 _atom_site_fract_y
 _atom_site_fract_z
 _atom_site_occupancy
  Li  Li0  1  0.00000000  0.00000000  0.00000000  1
  Mn  Mn1  1  0.74999997  0.24999999  0.50000001  1
  Mn  Mn2  1  0.24999999  0.74999997  0.50000001  1
  Ni  Ni3  1  0.49999998  0.49999998  -0.00000000  1
  O  O4  1  0.25868599  0.79086297  0.16094800  1
  O  O5  1  0.90226197  0.37008499  0.16094800  1
  O  O6  1  0.12008500  0.50868698  0.66094901  1
  O  O7  1  0.62991498  0.74131297  0.83905102  1
  O  O8  1  0.20913699  0.09773900  0.83905302  1
  O  O9  1  0.84773797  0.87991497  0.33905201  1
  O  O10  1  0.54086298  0.15226099  0.66094701  1
  O  O11  1  0.49131398  0.45913698  0.33905201  1
