# generated using pymatgen
data_ErZn2
_symmetry_space_group_name_H-M   'P 1'
_cell_length_a   4.63385391
_cell_length_b   4.63385439
_cell_length_c   7.39628077
_cell_angle_alpha   90.00000000
_cell_angle_beta   90.00000000
_cell_angle_gamma   119.99999237
_symmetry_Int_Tables_number   1
_chemical_formula_structural   ErZn2
_chemical_formula_sum   'Er2 Zn4'
_cell_volume   137.53992228
_cell_formula_units_Z   2
loop_
 _symmetry_equiv_pos_site_id
 _symmetry_equiv_pos_as_xyz
  1  'x, y, z'
loop_
 _atom_site_type_symbol
 _atom_site_label
 _atom_site_symmetry_multiplicity
 _atom_site_fract_x
 _atom_site_fract_y
 _atom_site_fract_z
 _atom_site_occupancy
  Er  Er0  1  0.00000000  0.00000000  0.00075900  1
  Er  Er1  1  0.00000000  0.00000000  0.50075902  1
  Zn  Zn2  1  0.33333330  0.66666668  0.67670602  1
  Zn  Zn3  1  0.66666666  0.33333334  0.17670601  1
  Zn  Zn4  1  0.66666666  0.33333334  0.77073502  1
  Zn  Zn5  1  0.33333330  0.66666668  0.27073501  1
