# generated using pymatgen
data_CeGa3Pt
_symmetry_space_group_name_H-M   'P 1'
_cell_length_a   4.36942005
_cell_length_b   4.36942005
_cell_length_c   10.45672321
_cell_angle_alpha   90.00000000
_cell_angle_beta   90.00000000
_cell_angle_gamma   90.00000000
_symmetry_Int_Tables_number   1
_chemical_formula_structural   CeGa3Pt
_chemical_formula_sum   'Ce2 Ga6 Pt2'
_cell_volume   199.63799854
_cell_formula_units_Z   2
loop_
 _symmetry_equiv_pos_site_id
 _symmetry_equiv_pos_as_xyz
  1  'x, y, z'
loop_
 _atom_site_type_symbol
 _atom_site_label
 _atom_site_symmetry_multiplicity
 _atom_site_fract_x
 _atom_site_fract_y
 _atom_site_fract_z
 _atom_site_occupancy
  Ce  Ce0  1  0.00000000  0.00000000  0.99776398  1
  Ce  Ce1  1  0.49999999  0.49999999  0.49133999  1
  Ga  Ga2  1  0.00000000  0.49999999  0.24419500  1
  Ga  Ga3  1  0.49999999  0.00000000  0.75003798  1
  Ga  Ga4  1  0.49999999  0.00000000  0.24419500  1
  Ga  Ga5  1  0.00000000  0.49999999  0.75003798  1
  Ga  Ga6  1  0.00000000  0.00000000  0.61773599  1
  Ga  Ga7  1  0.00000000  0.00000000  0.38463399  1
  Pt  Pt8  1  0.49999999  0.49999999  0.89350198  1
  Pt  Pt9  1  0.49999999  0.49999999  0.12655600  1
