# generated using pymatgen
data_CeZr4Co5Ge3
_symmetry_space_group_name_H-M   'P 1'
_cell_length_a   5.57006216
_cell_length_b   7.05438471
_cell_length_c   7.05438471
_cell_angle_alpha   81.24785614
_cell_angle_beta   66.74684906
_cell_angle_gamma   66.74684906
_symmetry_Int_Tables_number   1
_chemical_formula_structural   CeZr4Co5Ge3
_chemical_formula_sum   'Ce1 Zr4 Co5 Ge3'
_cell_volume   233.98460526
_cell_formula_units_Z   1
loop_
 _symmetry_equiv_pos_site_id
 _symmetry_equiv_pos_as_xyz
  1  'x, y, z'
loop_
 _atom_site_type_symbol
 _atom_site_label
 _atom_site_symmetry_multiplicity
 _atom_site_fract_x
 _atom_site_fract_y
 _atom_site_fract_z
 _atom_site_occupancy
  Ce  Ce0  1  0.00000000  0.00000000  0.00000000  1
  Zr  Zr1  1  0.33564693  0.66435300  0.66435299  1
  Zr  Zr2  1  0.66435296  0.33564700  0.33564697  1
  Zr  Zr3  1  0.99999996  0.34181400  0.65818595  1
  Zr  Zr4  1  -0.00000007  0.65818600  0.34181402  1
  Co  Co5  1  0.49999991  0.81421400  0.18578600  1
  Co  Co6  1  0.49999998  0.18578600  0.81421396  1
  Co  Co7  1  0.99999994  0.50000000  -0.00000003  1
  Co  Co8  1  0.49999995  0.50000000  -0.00000000  1
  Co  Co9  1  0.00000000  0.00000000  0.49999999  1
  Ge  Ge10  1  0.49999989  1.00000000  0.50000000  1
  Ge  Ge11  1  0.26518297  0.23481700  0.23481699  1
  Ge  Ge12  1  0.73481692  0.76518300  0.76518297  1
