# generated using pymatgen
data_Li2CoO4
_symmetry_space_group_name_H-M   'P 1'
_cell_length_a   4.04730177
_cell_length_b   6.44141579
_cell_length_c   6.58281422
_cell_angle_alpha   106.75139618
_cell_angle_beta   90.00000000
_cell_angle_gamma   108.31025696
_symmetry_Int_Tables_number   1
_chemical_formula_structural   Li2CoO4
_chemical_formula_sum   'Li4 Co2 O8'
_cell_volume   155.23748550
_cell_formula_units_Z   2
loop_
 _symmetry_equiv_pos_site_id
 _symmetry_equiv_pos_as_xyz
  1  'x, y, z'
loop_
 _atom_site_type_symbol
 _atom_site_label
 _atom_site_symmetry_multiplicity
 _atom_site_fract_x
 _atom_site_fract_y
 _atom_site_fract_z
 _atom_site_occupancy
  Li  Li0  1  0.05905399  0.11810800  0.35641898  1
  Li  Li1  1  0.94310098  0.88620197  0.65156393  1
  Li  Li2  1  0.70422801  0.40845599  0.28200597  1
  Li  Li3  1  0.38971596  0.77943197  0.30434494  1
  Co  Co4  1  0.61136002  0.22271999  0.69980097  1
  Co  Co5  1  0.29167797  0.58335598  0.71713495  1
  O  O6  1  0.12558899  0.25117799  0.67643997  1
  O  O7  1  0.22616198  0.45232398  0.34510396  1
  O  O8  1  0.34985996  0.69971998  0.98887093  1
  O  O9  1  0.43782595  0.87565197  0.62831093  1
  O  O10  1  0.56506702  0.13013400  0.36046898  1
  O  O11  1  0.64715201  0.29430399  0.00665998  1
  O  O12  1  0.77173100  0.54346198  0.66255095  1
  O  O13  1  0.87747399  0.75494797  0.32032495  1
