# generated using pymatgen
data_LiMgO2
_symmetry_space_group_name_H-M   'P 1'
_cell_length_a   4.31863213
_cell_length_b   4.31863213
_cell_length_c   5.39255619
_cell_angle_alpha   113.60476685
_cell_angle_beta   113.60476685
_cell_angle_gamma   90.00000000
_symmetry_Int_Tables_number   1
_chemical_formula_structural   LiMgO2
_chemical_formula_sum   'Li2 Mg2 O4'
_cell_volume   82.89418159
_cell_formula_units_Z   2
loop_
 _symmetry_equiv_pos_site_id
 _symmetry_equiv_pos_as_xyz
  1  'x, y, z'
loop_
 _atom_site_type_symbol
 _atom_site_label
 _atom_site_symmetry_multiplicity
 _atom_site_fract_x
 _atom_site_fract_y
 _atom_site_fract_z
 _atom_site_occupancy
  Li  Li0  1  0.49999995  0.49999997  -0.00000005  1
  Li  Li1  1  0.24999995  0.74999996  0.49999995  1
  Mg  Mg2  1  0.00000000  0.00000000  0.00000000  1
  Mg  Mg3  1  0.74999995  0.24999999  0.49999996  1
  O  O4  1  0.74800893  0.74800896  0.49601793  1
  O  O5  1  0.25199098  0.25199099  0.50398198  1
  O  O6  1  0.00199098  0.50199097  0.00398197  1
  O  O7  1  0.49800893  0.99800894  0.99601793  1
