# generated using pymatgen
data_LiBO3
_symmetry_space_group_name_H-M   'P 1'
_cell_length_a   4.91317463
_cell_length_b   4.91317463
_cell_length_c   6.12398672
_cell_angle_alpha   66.35041046
_cell_angle_beta   66.35041046
_cell_angle_gamma   59.99998856
_symmetry_Int_Tables_number   1
_chemical_formula_structural   LiBO3
_chemical_formula_sum   'Li2 B2 O6'
_cell_volume   113.46126392
_cell_formula_units_Z   2
loop_
 _symmetry_equiv_pos_site_id
 _symmetry_equiv_pos_as_xyz
  1  'x, y, z'
loop_
 _atom_site_type_symbol
 _atom_site_label
 _atom_site_symmetry_multiplicity
 _atom_site_fract_x
 _atom_site_fract_y
 _atom_site_fract_z
 _atom_site_occupancy
  Li  Li0  1  0.00000000  0.00000000  0.00000000  1
  Li  Li1  1  0.50000002  0.50000002  0.49999997  1
  B  B2  1  0.75546203  0.75546203  0.73361395  1
  B  B3  1  0.24453801  0.24453801  0.26638599  1
  O  O4  1  0.72826503  0.48843102  0.73637296  1
  O  O5  1  0.04693100  0.72826503  0.73637297  1
  O  O6  1  0.48843102  0.04693100  0.73637298  1
  O  O7  1  0.95306904  0.27173501  0.26362697  1
  O  O8  1  0.51156902  0.95306904  0.26362696  1
  O  O9  1  0.27173501  0.51156902  0.26362698  1
