# generated using pymatgen
data_LaGe6
_symmetry_space_group_name_H-M   'P 1'
_cell_length_a   4.38883209
_cell_length_b   5.97070742
_cell_length_c   13.02686501
_cell_angle_alpha   90.00000000
_cell_angle_beta   90.00000000
_cell_angle_gamma   111.56338501
_symmetry_Int_Tables_number   1
_chemical_formula_structural   LaGe6
_chemical_formula_sum   'La2 Ge12'
_cell_volume   317.47023189
_cell_formula_units_Z   2
loop_
 _symmetry_equiv_pos_site_id
 _symmetry_equiv_pos_as_xyz
  1  'x, y, z'
loop_
 _atom_site_type_symbol
 _atom_site_label
 _atom_site_symmetry_multiplicity
 _atom_site_fract_x
 _atom_site_fract_y
 _atom_site_fract_z
 _atom_site_occupancy
  La  La0  1  0.20773599  0.41547201  0.75000000  1
  La  La1  1  0.79226398  0.58452802  0.25000000  1
  Ge  Ge2  1  0.93694197  0.87388402  0.84557900  1
  Ge  Ge3  1  0.06305800  0.12611600  0.15442100  1
  Ge  Ge4  1  0.93694197  0.87388402  0.65442100  1
  Ge  Ge5  1  0.06305800  0.12611600  0.34557900  1
  Ge  Ge6  1  0.74804398  0.49608801  0.95015700  1
  Ge  Ge7  1  0.25195599  0.50391201  0.04984300  1
  Ge  Ge8  1  0.74804398  0.49608801  0.54984300  1
  Ge  Ge9  1  0.25195599  0.50391201  0.45015700  1
  Ge  Ge10  1  0.52592999  0.05186000  0.90540500  1
  Ge  Ge11  1  0.47406998  0.94814003  0.09459500  1
  Ge  Ge12  1  0.52592999  0.05186000  0.59459500  1
  Ge  Ge13  1  0.47406998  0.94814003  0.40540500  1
