# generated using pymatgen
data_Ce5Bi3
_symmetry_space_group_name_H-M   'P 1'
_cell_length_a   6.46138287
_cell_length_b   9.43807030
_cell_length_c   9.43806934
_cell_angle_alpha   120.00000000
_cell_angle_beta   90.00000000
_cell_angle_gamma   90.00000000
_symmetry_Int_Tables_number   1
_chemical_formula_structural   Ce5Bi3
_chemical_formula_sum   'Ce10 Bi6'
_cell_volume   498.45100850
_cell_formula_units_Z   2
loop_
 _symmetry_equiv_pos_site_id
 _symmetry_equiv_pos_as_xyz
  1  'x, y, z'
loop_
 _atom_site_type_symbol
 _atom_site_label
 _atom_site_symmetry_multiplicity
 _atom_site_fract_x
 _atom_site_fract_y
 _atom_site_fract_z
 _atom_site_occupancy
  Ce  Ce0  1  -0.00000000  0.66666664  0.33333333  1
  Ce  Ce1  1  0.50000001  0.33333332  0.66666668  1
  Ce  Ce2  1  1.00000002  0.33333332  0.66666668  1
  Ce  Ce3  1  0.50000001  0.66666664  0.33333333  1
  Ce  Ce4  1  0.75000002  0.74741497  0.74741501  1
  Ce  Ce5  1  0.25000001  0.74741497  1.00000002  1
  Ce  Ce6  1  0.25000001  0.99999996  0.74741500  1
  Ce  Ce7  1  0.75000002  0.99999996  0.25258499  1
  Ce  Ce8  1  0.75000002  0.25258499  -0.00000001  1
  Ce  Ce9  1  0.25000001  0.25258499  0.25258500  1
  Bi  Bi10  1  0.75000002  0.38868498  0.38868500  1
  Bi  Bi11  1  0.25000001  0.38868498  -0.00000001  1
  Bi  Bi12  1  0.25000001  0.99999996  0.38868499  1
  Bi  Bi13  1  0.75000002  0.99999996  0.61131500  1
  Bi  Bi14  1  0.75000002  0.61131497  -0.00000001  1
  Bi  Bi15  1  0.25000001  0.61131497  0.61131501  1
