# generated using pymatgen
data_SrMgIn2
_symmetry_space_group_name_H-M   'P 1'
_cell_length_a   3.33668995
_cell_length_b   3.33668971
_cell_length_c   10.87817764
_cell_angle_alpha   90.00000000
_cell_angle_beta   90.00000000
_cell_angle_gamma   120.00000000
_symmetry_Int_Tables_number   1
_chemical_formula_structural   SrMgIn2
_chemical_formula_sum   'Sr1 Mg1 In2'
_cell_volume   104.88622470
_cell_formula_units_Z   1
loop_
 _symmetry_equiv_pos_site_id
 _symmetry_equiv_pos_as_xyz
  1  'x, y, z'
loop_
 _atom_site_type_symbol
 _atom_site_label
 _atom_site_symmetry_multiplicity
 _atom_site_fract_x
 _atom_site_fract_y
 _atom_site_fract_z
 _atom_site_occupancy
  Mg  Mg0  1  0.00000000  0.00000000  0.50000002  1
  Sr  Sr1  1  0.00000000  0.00000000  0.00000000  1
  In  In2  1  0.33333330  0.66666665  0.26650701  1
  In  In3  1  0.33333330  0.66666665  0.73349302  1
