# generated using pymatgen
data_CaSnPd
_symmetry_space_group_name_H-M   'P 1'
_cell_length_a   4.39299297
_cell_length_b   7.48171806
_cell_length_c   8.79733562
_cell_angle_alpha   90.00000000
_cell_angle_beta   90.00000000
_cell_angle_gamma   90.00000000
_symmetry_Int_Tables_number   1
_chemical_formula_structural   CaSnPd
_chemical_formula_sum   'Ca4 Sn4 Pd4'
_cell_volume   289.14321657
_cell_formula_units_Z   4
loop_
 _symmetry_equiv_pos_site_id
 _symmetry_equiv_pos_as_xyz
  1  'x, y, z'
loop_
 _atom_site_type_symbol
 _atom_site_label
 _atom_site_symmetry_multiplicity
 _atom_site_fract_x
 _atom_site_fract_y
 _atom_site_fract_z
 _atom_site_occupancy
  Ca  Ca0  1  0.25000000  0.53589600  0.18075001  1
  Ca  Ca1  1  0.75000000  0.46410400  0.81925003  1
  Ca  Ca2  1  0.25000000  0.03589600  0.31925001  1
  Ca  Ca3  1  0.75000000  0.96410399  0.68075003  1
  Sn  Sn4  1  0.25000000  0.14068100  0.93789804  1
  Sn  Sn5  1  0.75000000  0.35931900  0.43789802  1
  Sn  Sn6  1  0.25000000  0.64068099  0.56210202  1
  Sn  Sn7  1  0.75000000  0.85931899  0.06210200  1
  Pd  Pd8  1  0.75000000  0.24048800  0.12894401  1
  Pd  Pd9  1  0.25000000  0.25951200  0.62894403  1
  Pd  Pd10  1  0.75000000  0.74048799  0.37105602  1
  Pd  Pd11  1  0.25000000  0.75951199  0.87105604  1
