# generated using pymatgen
data_LaCoC2
_symmetry_space_group_name_H-M   'P 1'
_cell_length_a   3.79772496
_cell_length_b   3.79772496
_cell_length_c   7.40485954
_cell_angle_alpha   98.21482849
_cell_angle_beta   98.21482849
_cell_angle_gamma   90.02871704
_symmetry_Int_Tables_number   1
_chemical_formula_structural   LaCoC2
_chemical_formula_sum   'La2 Co2 C4'
_cell_volume   104.59391683
_cell_formula_units_Z   2
loop_
 _symmetry_equiv_pos_site_id
 _symmetry_equiv_pos_as_xyz
  1  'x, y, z'
loop_
 _atom_site_type_symbol
 _atom_site_label
 _atom_site_symmetry_multiplicity
 _atom_site_fract_x
 _atom_site_fract_y
 _atom_site_fract_z
 _atom_site_occupancy
  La  La0  1  0.93084201  0.07631100  0.45201402  1
  La  La1  1  0.07631099  0.93084201  0.95201403  1
  Co  Co2  1  0.37466400  0.51691000  0.25755802  1
  Co  Co3  1  0.51691000  0.37466400  0.75755802  1
  C  C4  1  0.59645100  0.44507500  0.02520202  1
  C  C5  1  0.44507500  0.59645101  0.52520102  1
  C  C6  1  0.49311199  0.85463501  0.67822703  1
  C  C7  1  0.85463500  0.49311200  0.17822703  1
