# generated using pymatgen
data_NaVCuF7
_symmetry_space_group_name_H-M   'P 1'
_cell_length_a   7.27616024
_cell_length_b   7.38045406
_cell_length_c   7.38045406
_cell_angle_alpha   60.37194824
_cell_angle_beta   60.46636200
_cell_angle_gamma   60.46636200
_symmetry_Int_Tables_number   1
_chemical_formula_structural   NaVCuF7
_chemical_formula_sum   'Na2 V2 Cu2 F14'
_cell_volume   283.01017811
_cell_formula_units_Z   2
loop_
 _symmetry_equiv_pos_site_id
 _symmetry_equiv_pos_as_xyz
  1  'x, y, z'
loop_
 _atom_site_type_symbol
 _atom_site_label
 _atom_site_symmetry_multiplicity
 _atom_site_fract_x
 _atom_site_fract_y
 _atom_site_fract_z
 _atom_site_occupancy
  Na  Na0  1  -0.00000002  1.00000001  0.50000002  1
  Na  Na1  1  0.49999997  1.00000001  0.50000000  1
  V  V2  1  0.00000000  0.00000000  0.00000000  1
  V  V3  1  -0.00000001  0.50000000  0.50000001  1
  Cu  Cu4  1  0.49999998  0.50000000  -0.00000000  1
  Cu  Cu5  1  -0.00000001  0.50000000  1.00000001  1
  F  F6  1  0.66895198  0.08104800  0.58104799  1
  F  F7  1  0.33104797  0.91895201  0.41895201  1
  F  F8  1  0.07631999  0.17368000  0.67368000  1
  F  F9  1  0.69308197  0.55691801  0.05691799  1
  F  F10  1  0.06574099  0.56408001  0.68943401  1
  F  F11  1  0.68074598  0.18943400  0.06407899  1
  F  F12  1  0.68074497  0.56408001  0.68943400  1
  F  F13  1  0.06574199  0.18943400  0.06407900  1
  F  F14  1  0.92367996  0.82632001  0.32631999  1
  F  F15  1  0.30691798  0.44308200  0.94308200  1
  F  F16  1  0.93425897  0.43592000  0.31056599  1
  F  F17  1  0.31925398  0.81056601  0.93592101  1
  F  F18  1  0.31925498  0.43592000  0.31056600  1
  F  F19  1  0.93425796  0.81056601  0.93592100  1
