# generated using pymatgen
data_Ho2NiGe5
_symmetry_space_group_name_H-M   'P 1'
_cell_length_a   4.04267597
_cell_length_b   4.08240509
_cell_length_c   8.23494530
_cell_angle_alpha   90.00000000
_cell_angle_beta   90.00000000
_cell_angle_gamma   90.00000000
_symmetry_Int_Tables_number   1
_chemical_formula_structural   Ho2NiGe5
_chemical_formula_sum   'Ho2 Ni1 Ge5'
_cell_volume   135.90822755
_cell_formula_units_Z   1
loop_
 _symmetry_equiv_pos_site_id
 _symmetry_equiv_pos_as_xyz
  1  'x, y, z'
loop_
 _atom_site_type_symbol
 _atom_site_label
 _atom_site_symmetry_multiplicity
 _atom_site_fract_x
 _atom_site_fract_y
 _atom_site_fract_z
 _atom_site_occupancy
  Ho  Ho0  1  0.00000000  0.00000000  0.75438597  1
  Ho  Ho1  1  0.00000000  0.00000000  0.24561399  1
  Ge  Ge2  1  0.50000000  0.00000000  0.49999998  1
  Ge  Ge3  1  0.00000000  0.49999999  0.00000000  1
  Ge  Ge4  1  0.00000000  0.49999999  0.49999998  1
  Ge  Ge5  1  0.50000000  0.49999999  0.74327597  1
  Ge  Ge6  1  0.50000000  0.49999999  0.25672399  1
  Ni  Ni7  1  0.50000000  0.00000000  0.00000000  1
