# generated using pymatgen
data_K5Tl2S2Cl11
_symmetry_space_group_name_H-M   'P 1'
_cell_length_a   7.39531183
_cell_length_b   10.50532246
_cell_length_c   10.51399803
_cell_angle_alpha   119.97270966
_cell_angle_beta   110.59064484
_cell_angle_gamma   90.00000000
_symmetry_Int_Tables_number   1
_chemical_formula_structural   K5Tl2S2Cl11
_chemical_formula_sum   'K5 Tl2 S2 Cl11'
_cell_volume   646.65568308
_cell_formula_units_Z   1
loop_
 _symmetry_equiv_pos_site_id
 _symmetry_equiv_pos_as_xyz
  1  'x, y, z'
loop_
 _atom_site_type_symbol
 _atom_site_label
 _atom_site_symmetry_multiplicity
 _atom_site_fract_x
 _atom_site_fract_y
 _atom_site_fract_z
 _atom_site_occupancy
  K  K0  1  0.33580900  0.55608400  0.67161804  1
  K  K1  1  0.33580900  0.11553400  0.67161801  1
  K  K2  1  -0.00000000  0.50000000  0.00000004  1
  K  K3  1  0.66419100  0.44391600  0.32838201  1
  K  K4  1  0.66419100  0.88446599  0.32838204  1
  Tl  Tl5  1  0.91139900  0.91139899  0.82279805  1
  Tl  Tl6  1  0.08860100  0.08860100  0.17720201  1
  S  S7  1  0.75890900  0.90521799  0.00000003  1
  Cl  Cl8  1  0.75891000  0.09478200  0.00000098  1
  Cl  Cl9  1  0.24109100  0.09478200  -0.00000000  1
  S  S10  1  0.24109000  0.90521799  0.99999908  1
  Cl  Cl11  1  0.56235900  0.79870799  0.59741505  1
  Cl  Cl12  1  0.12848600  0.37277000  0.25697103  1
  Cl  Cl13  1  0.43764100  0.20129200  0.40258501  1
  Cl  Cl14  1  0.87151400  0.62723000  0.74302903  1
  Cl  Cl15  1  0.12848500  0.88420099  0.25697006  1
  Cl  Cl16  1  0.03505700  0.79870799  0.59741607  1
  Cl  Cl17  1  0.96494300  0.20129200  0.40258398  1
  Cl  Cl18  1  0.87151500  0.11579900  0.74302999  1
  Cl  Cl19  1  0.50000000  0.50000000  0.00000002  1
