# generated using pymatgen
data_Zr5Pt4
_symmetry_space_group_name_H-M   'P 1'
_cell_length_a   6.05415392
_cell_length_b   8.54586983
_cell_length_c   8.54587078
_cell_angle_alpha   120.00000000
_cell_angle_beta   90.00000000
_cell_angle_gamma   90.00000000
_symmetry_Int_Tables_number   1
_chemical_formula_structural   Zr5Pt4
_chemical_formula_sum   'Zr10 Pt8'
_cell_volume   382.90997917
_cell_formula_units_Z   2
loop_
 _symmetry_equiv_pos_site_id
 _symmetry_equiv_pos_as_xyz
  1  'x, y, z'
loop_
 _atom_site_type_symbol
 _atom_site_label
 _atom_site_symmetry_multiplicity
 _atom_site_fract_x
 _atom_site_fract_y
 _atom_site_fract_z
 _atom_site_occupancy
  Zr  Zr0  1  -0.00000000  0.33333335  0.66666665  1
  Zr  Zr1  1  -0.00000000  0.66666669  0.33333334  1
  Zr  Zr2  1  0.50000001  0.66666669  0.33333334  1
  Zr  Zr3  1  0.50000001  0.33333335  0.66666665  1
  Zr  Zr4  1  0.25000000  0.24858401  0.99999997  1
  Zr  Zr5  1  0.25000000  0.75141603  0.75141599  1
  Zr  Zr6  1  0.25000000  0.00000000  0.24858399  1
  Zr  Zr7  1  0.75000001  0.75141603  0.00000002  1
  Zr  Zr8  1  0.75000001  0.24858401  0.24858400  1
  Zr  Zr9  1  0.75000001  0.00000000  0.75141597  1
  Pt  Pt10  1  0.25000000  0.59940202  0.99999998  1
  Pt  Pt11  1  0.25000000  0.40059801  0.40059800  1
  Pt  Pt12  1  0.25000000  0.00000000  0.59940197  1
  Pt  Pt13  1  0.75000001  0.40059801  0.99999997  1
  Pt  Pt14  1  0.75000001  0.59940202  0.59940199  1
  Pt  Pt15  1  0.75000001  0.00000000  0.40059798  1
  Pt  Pt16  1  0.00000000  0.00000000  0.00000000  1
  Pt  Pt17  1  0.50000001  0.00000000  -0.00000000  1
