# generated using pymatgen
data_Sc2SiB2Rh5
_symmetry_space_group_name_H-M   'P 1'
_cell_length_a   3.14289999
_cell_length_b   9.33016777
_cell_length_c   9.33016777
_cell_angle_alpha   90.00000000
_cell_angle_beta   90.00000000
_cell_angle_gamma   90.00000000
_symmetry_Int_Tables_number   1
_chemical_formula_structural   Sc2SiB2Rh5
_chemical_formula_sum   'Sc4 Si2 B4 Rh10'
_cell_volume   273.59582618
_cell_formula_units_Z   2
loop_
 _symmetry_equiv_pos_site_id
 _symmetry_equiv_pos_as_xyz
  1  'x, y, z'
loop_
 _atom_site_type_symbol
 _atom_site_label
 _atom_site_symmetry_multiplicity
 _atom_site_fract_x
 _atom_site_fract_y
 _atom_site_fract_z
 _atom_site_occupancy
  Sc  Sc0  1  1.00000000  0.82441702  0.32441701  1
  Sc  Sc1  1  0.00000000  0.17558300  0.67558302  1
  Sc  Sc2  1  1.00000000  0.32441701  0.17558300  1
  Sc  Sc3  1  0.00000000  0.67558302  0.82441702  1
  Si  Si4  1  0.00000000  0.50000001  0.50000001  1
  Si  Si5  1  0.00000000  0.00000000  0.00000000  1
  B  B6  1  0.00000000  0.62245402  0.12245400  1
  B  B7  1  0.00000000  0.37754601  0.87754602  1
  B  B8  1  0.00000000  0.12245400  0.37754601  1
  B  B9  1  0.00000000  0.87754602  0.62245402  1
  Rh  Rh10  1  0.50000000  0.71664102  0.57124601  1
  Rh  Rh11  1  0.50000000  0.28335901  0.42875401  1
  Rh  Rh12  1  0.50000000  0.21664101  0.92875402  1
  Rh  Rh13  1  0.50000000  0.78335902  0.07124600  1
  Rh  Rh14  1  0.50000000  0.42875401  0.71664102  1
  Rh  Rh15  1  0.50000000  0.57124601  0.28335901  1
  Rh  Rh16  1  0.50000000  0.07124600  0.21664101  1
  Rh  Rh17  1  0.50000000  0.92875402  0.78335902  1
  Rh  Rh18  1  0.50000000  0.50000001  0.00000000  1
  Rh  Rh19  1  0.50000000  0.00000000  0.50000001  1
