# generated using pymatgen
data_Li3Ag
_symmetry_space_group_name_H-M   'P 1'
_cell_length_a   4.18152809
_cell_length_b   4.18152809
_cell_length_c   4.85438633
_cell_angle_alpha   115.51172638
_cell_angle_beta   115.51172638
_cell_angle_gamma   90.00000000
_symmetry_Int_Tables_number   1
_chemical_formula_structural   Li3Ag
_chemical_formula_sum   'Li3 Ag1'
_cell_volume   67.31788556
_cell_formula_units_Z   1
loop_
 _symmetry_equiv_pos_site_id
 _symmetry_equiv_pos_as_xyz
  1  'x, y, z'
loop_
 _atom_site_type_symbol
 _atom_site_label
 _atom_site_symmetry_multiplicity
 _atom_site_fract_x
 _atom_site_fract_y
 _atom_site_fract_z
 _atom_site_occupancy
  Li  Li0  1  0.00000000  0.00000000  0.00000000  1
  Li  Li1  1  0.74999795  0.24999899  0.49999894  1
  Li  Li2  1  0.24999995  0.75000096  0.49999892  1
  Ag  Ag3  1  0.49999895  0.49999897  0.99999791  1
