# generated using pymatgen
data_YbInPt
_symmetry_space_group_name_H-M   'P 1'
_cell_length_a   4.68892813
_cell_length_b   7.01589298
_cell_length_c   8.63389778
_cell_angle_alpha   90.00000000
_cell_angle_beta   90.00000000
_cell_angle_gamma   90.00000000
_symmetry_Int_Tables_number   1
_chemical_formula_structural   YbInPt
_chemical_formula_sum   'Yb4 In4 Pt4'
_cell_volume   284.02949024
_cell_formula_units_Z   4
loop_
 _symmetry_equiv_pos_site_id
 _symmetry_equiv_pos_as_xyz
  1  'x, y, z'
loop_
 _atom_site_type_symbol
 _atom_site_label
 _atom_site_symmetry_multiplicity
 _atom_site_fract_x
 _atom_site_fract_y
 _atom_site_fract_z
 _atom_site_occupancy
  Yb  Yb0  1  0.24999999  0.85501900  0.92068602  1
  Yb  Yb1  1  0.24999999  0.35501900  0.57931401  1
  Yb  Yb2  1  0.74999998  0.14498100  0.07931400  1
  Yb  Yb3  1  0.74999998  0.64498100  0.42068601  1
  In  In4  1  0.24999999  0.98851600  0.33164001  1
  In  In5  1  0.24999999  0.48851600  0.16836000  1
  In  In6  1  0.74999998  0.01148400  0.66836002  1
  In  In7  1  0.74999998  0.51148400  0.83164002  1
  Pt  Pt8  1  0.24999999  0.25795300  0.90554802  1
  Pt  Pt9  1  0.24999999  0.75795300  0.59445202  1
  Pt  Pt10  1  0.74999998  0.74204700  0.09445200  1
  Pt  Pt11  1  0.74999998  0.24204700  0.40554801  1
