# generated using pymatgen
data_LiMgSn
_symmetry_space_group_name_H-M   'P 1'
_cell_length_a   4.44173384
_cell_length_b   7.29884005
_cell_length_c   7.29884005
_cell_angle_alpha   120.00000000
_cell_angle_beta   90.00000000
_cell_angle_gamma   90.00000000
_symmetry_Int_Tables_number   1
_chemical_formula_structural   LiMgSn
_chemical_formula_sum   'Li3 Mg3 Sn3'
_cell_volume   204.92307059
_cell_formula_units_Z   3
loop_
 _symmetry_equiv_pos_site_id
 _symmetry_equiv_pos_as_xyz
  1  'x, y, z'
loop_
 _atom_site_type_symbol
 _atom_site_label
 _atom_site_symmetry_multiplicity
 _atom_site_fract_x
 _atom_site_fract_y
 _atom_site_fract_z
 _atom_site_occupancy
  Li  Li0  1  0.50000002  0.00000000  0.57393801  1
  Li  Li1  1  0.50000002  0.57393800  0.00000001  1
  Li  Li2  1  0.50000002  0.42606200  0.42606201  1
  Mg  Mg3  1  1.00000004  0.00000000  0.24355800  1
  Mg  Mg4  1  1.00000004  0.24355800  0.00000000  1
  Mg  Mg5  1  1.00000004  0.75644200  0.75644202  1
  Sn  Sn6  1  1.00000004  0.66666667  0.33333334  1
  Sn  Sn7  1  1.00000004  0.33333333  0.66666668  1
  Sn  Sn8  1  0.50000002  0.00000000  -0.00000000  1
