# generated using pymatgen
data_TiCo
_symmetry_space_group_name_H-M   'P 1'
_cell_length_a   4.27672291
_cell_length_b   5.32192183
_cell_length_c   5.32192230
_cell_angle_alpha   60.00000000
_cell_angle_beta   90.00000000
_cell_angle_gamma   90.00000000
_symmetry_Int_Tables_number   1
_chemical_formula_structural   TiCo
_chemical_formula_sum   'Ti4 Co4'
_cell_volume   104.90079153
_cell_formula_units_Z   4
loop_
 _symmetry_equiv_pos_site_id
 _symmetry_equiv_pos_as_xyz
  1  'x, y, z'
loop_
 _atom_site_type_symbol
 _atom_site_label
 _atom_site_symmetry_multiplicity
 _atom_site_fract_x
 _atom_site_fract_y
 _atom_site_fract_z
 _atom_site_occupancy
  Ti  Ti0  1  0.75000002  0.65789903  0.17105097  1
  Ti  Ti1  1  0.75000002  0.17105001  0.17105099  1
  Ti  Ti2  1  0.75000002  0.17105001  0.65789999  1
  Ti  Ti3  1  0.25000001  0.34210102  0.82894899  1
  Co  Co4  1  0.25000001  0.82895004  0.82894897  1
  Co  Co5  1  0.25000001  0.82895004  0.34209997  1
  Co  Co6  1  0.25000001  0.33333335  0.33333332  1
  Co  Co7  1  0.75000002  0.66666670  0.66666664  1
