# generated using pymatgen
data_SmFe12
_symmetry_space_group_name_H-M   'P 1'
_cell_length_a   4.67705202
_cell_length_b   6.49151421
_cell_length_c   6.49151421
_cell_angle_alpha   82.35208130
_cell_angle_beta   68.88484955
_cell_angle_gamma   68.88484955
_symmetry_Int_Tables_number   1
_chemical_formula_structural   SmFe12
_chemical_formula_sum   'Sm1 Fe12'
_cell_volume   171.51118667
_cell_formula_units_Z   1
loop_
 _symmetry_equiv_pos_site_id
 _symmetry_equiv_pos_as_xyz
  1  'x, y, z'
loop_
 _atom_site_type_symbol
 _atom_site_label
 _atom_site_symmetry_multiplicity
 _atom_site_fract_x
 _atom_site_fract_y
 _atom_site_fract_z
 _atom_site_occupancy
  Sm  Sm0  1  0.00000000  0.00000000  0.00000000  1
  Fe  Fe1  1  0.64043600  0.35956399  0.35956403  1
  Fe  Fe2  1  0.35956402  0.64043598  0.64043603  1
  Fe  Fe3  1  0.50000003  0.77054598  0.22945404  1
  Fe  Fe4  1  0.50000000  0.22945399  0.77054602  1
  Fe  Fe5  1  0.73173702  0.76826298  0.76826305  1
  Fe  Fe6  1  0.26826301  0.23173699  0.23173702  1
  Fe  Fe7  1  0.00000000  0.00000000  0.50000000  1
  Fe  Fe8  1  0.49999999  0.00000000  0.50000001  1
  Fe  Fe9  1  0.50000001  0.49999999  1.00000003  1
  Fe  Fe10  1  0.00000002  0.49999999  1.00000001  1
  Fe  Fe11  1  0.00000002  0.35994499  0.64005501  1
  Fe  Fe12  1  0.00000003  0.64005498  0.35994502  1
