# generated using pymatgen
data_ZrAlFe8Ru3
_symmetry_space_group_name_H-M   'P 1'
_cell_length_a   4.95155382
_cell_length_b   6.66139936
_cell_length_c   6.66139936
_cell_angle_alpha   82.46333313
_cell_angle_beta   68.18195343
_cell_angle_gamma   68.18195343
_symmetry_Int_Tables_number   1
_chemical_formula_structural   ZrAlFe8Ru3
_chemical_formula_sum   'Zr1 Al1 Fe8 Ru3'
_cell_volume   189.36483091
_cell_formula_units_Z   1
loop_
 _symmetry_equiv_pos_site_id
 _symmetry_equiv_pos_as_xyz
  1  'x, y, z'
loop_
 _atom_site_type_symbol
 _atom_site_label
 _atom_site_symmetry_multiplicity
 _atom_site_fract_x
 _atom_site_fract_y
 _atom_site_fract_z
 _atom_site_occupancy
  Zr  Zr0  1  0.01138693  0.98861299  0.98861294  1
  Fe  Fe1  1  0.48302599  0.50383400  0.00198096  1
  Fe  Fe2  1  0.01115896  0.50383400  0.00198098  1
  Fe  Fe3  1  0.01115900  0.00198100  0.50383398  1
  Fe  Fe4  1  0.48302603  0.00198100  0.50383396  1
  Fe  Fe5  1  0.72533999  0.77465999  0.77465992  1
  Al  Al6  1  0.66219002  0.33781000  0.33780995  1
  Fe  Fe7  1  0.34827697  0.65172299  0.65172294  1
  Fe  Fe8  1  0.98817803  0.35628100  0.66736392  1
  Fe  Fe9  1  0.98817801  0.66736299  0.35628092  1
  Ru  Ru10  1  0.27737400  0.22262600  0.22262597  1
  Ru  Ru11  1  0.50535297  0.78378199  0.20551294  1
  Ru  Ru12  1  0.50535302  0.20551200  0.78378194  1
