# generated using pymatgen
data_Sr4Co3O10
_symmetry_space_group_name_H-M   'P 1'
_cell_length_a   3.86331606
_cell_length_b   3.86331606
_cell_length_c   14.28364468
_cell_angle_alpha   97.77224731
_cell_angle_beta   97.77224731
_cell_angle_gamma   90.00000000
_symmetry_Int_Tables_number   1
_chemical_formula_structural   Sr4Co3O10
_chemical_formula_sum   'Sr4 Co3 O10'
_cell_volume   209.25119107
_cell_formula_units_Z   1
loop_
 _symmetry_equiv_pos_site_id
 _symmetry_equiv_pos_as_xyz
  1  'x, y, z'
loop_
 _atom_site_type_symbol
 _atom_site_label
 _atom_site_symmetry_multiplicity
 _atom_site_fract_x
 _atom_site_fract_y
 _atom_site_fract_z
 _atom_site_occupancy
  Sr  Sr0  1  0.29801100  0.29801100  0.59602199  1
  Sr  Sr1  1  0.70130799  0.70130799  0.40261600  1
  Sr  Sr2  1  0.43117699  0.43117699  0.86235399  1
  Sr  Sr3  1  0.56926299  0.56926299  0.13852600  1
  Co  Co4  1  0.85965199  0.85965199  0.71930400  1
  Co  Co5  1  0.13958700  0.13958700  0.27917400  1
  Co  Co6  1  0.00100600  0.00100600  0.00201200  1
  O  O7  1  0.86141399  0.36141399  0.72282799  1
  O  O8  1  0.36141400  0.86141399  0.72282799  1
  O  O9  1  0.13662700  0.63662699  0.27325400  1
  O  O10  1  0.63662699  0.13662700  0.27325400  1
  O  O11  1  0.50210499  0.00210500  0.00421000  1
  O  O12  1  0.00210500  0.50210499  0.00421000  1
  O  O13  1  0.79058899  0.79058899  0.58117800  1
  O  O14  1  0.20843500  0.20843500  0.41687000  1
  O  O15  1  0.93027799  0.93027799  0.86055599  1
  O  O16  1  0.07040500  0.07040500  0.14081000  1
