# generated using pymatgen
data_LaNdPd2
_symmetry_space_group_name_H-M   'P 1'
_cell_length_a   3.89720988
_cell_length_b   4.49493790
_cell_length_c   5.94493818
_cell_angle_alpha   90.00000000
_cell_angle_beta   109.13381195
_cell_angle_gamma   90.00000000
_symmetry_Int_Tables_number   1
_chemical_formula_structural   LaNdPd2
_chemical_formula_sum   'La1 Nd1 Pd2'
_cell_volume   98.38849791
_cell_formula_units_Z   1
loop_
 _symmetry_equiv_pos_site_id
 _symmetry_equiv_pos_as_xyz
  1  'x, y, z'
loop_
 _atom_site_type_symbol
 _atom_site_label
 _atom_site_symmetry_multiplicity
 _atom_site_fract_x
 _atom_site_fract_y
 _atom_site_fract_z
 _atom_site_occupancy
  La  La0  1  0.86257603  0.50000001  0.72515201  1
  Nd  Nd1  1  0.13308700  0.00000000  0.26617400  1
  Pd  Pd2  1  0.40893901  0.00000000  0.81787801  1
  Pd  Pd3  1  0.59539902  0.50000001  0.19079800  1
