# generated using pymatgen
data_BaGe3Rh
_symmetry_space_group_name_H-M   'P 1'
_cell_length_a   4.57653379
_cell_length_b   4.57653379
_cell_length_c   6.13219738
_cell_angle_alpha   111.91039276
_cell_angle_beta   111.91039276
_cell_angle_gamma   90.00000000
_symmetry_Int_Tables_number   1
_chemical_formula_structural   BaGe3Rh
_chemical_formula_sum   'Ba1 Ge3 Rh1'
_cell_volume   109.09638884
_cell_formula_units_Z   1
loop_
 _symmetry_equiv_pos_site_id
 _symmetry_equiv_pos_as_xyz
  1  'x, y, z'
loop_
 _atom_site_type_symbol
 _atom_site_label
 _atom_site_symmetry_multiplicity
 _atom_site_fract_x
 _atom_site_fract_y
 _atom_site_fract_z
 _atom_site_occupancy
  Ba  Ba0  1  0.59073999  0.59074001  0.18147995  1
  Ge  Ge1  1  0.99921598  0.99921602  0.99843193  1
  Ge  Ge2  1  0.34319697  0.84319702  0.68639395  1
  Ge  Ge3  1  0.84319701  0.34319701  0.68639396  1
  Rh  Rh4  1  0.24095000  0.24095000  0.48189999  1
