# generated using pymatgen
data_SmGa2
_symmetry_space_group_name_H-M   'P 1'
_cell_length_a   4.49230194
_cell_length_b   5.68209791
_cell_length_c   5.68209791
_cell_angle_alpha   78.29829407
_cell_angle_beta   66.71511841
_cell_angle_gamma   66.71511841
_symmetry_Int_Tables_number   1
_chemical_formula_structural   SmGa2
_chemical_formula_sum   'Sm2 Ga4'
_cell_volume   122.18858025
_cell_formula_units_Z   2
loop_
 _symmetry_equiv_pos_site_id
 _symmetry_equiv_pos_as_xyz
  1  'x, y, z'
loop_
 _atom_site_type_symbol
 _atom_site_label
 _atom_site_symmetry_multiplicity
 _atom_site_fract_x
 _atom_site_fract_y
 _atom_site_fract_z
 _atom_site_occupancy
  Sm  Sm0  1  0.47011500  0.27988501  0.77988500  1
  Sm  Sm1  1  0.52988499  0.72011504  0.22011497  1
  Ga  Ga2  1  0.16586297  0.87789304  0.79038099  1
  Ga  Ga3  1  0.83413702  0.12210701  0.20961897  1
  Ga  Ga4  1  0.16586299  0.29038101  0.37789300  1
  Ga  Ga5  1  0.83413700  0.70961904  0.62210697  1
