# generated using pymatgen
data_La2CO4
_symmetry_space_group_name_H-M   'P 1'
_cell_length_a   3.68609691
_cell_length_b   4.76061916
_cell_length_c   12.19638443
_cell_angle_alpha   90.00000000
_cell_angle_beta   90.00000000
_cell_angle_gamma   90.00000000
_symmetry_Int_Tables_number   1
_chemical_formula_structural   La2CO4
_chemical_formula_sum   'La4 C2 O8'
_cell_volume   214.02341719
_cell_formula_units_Z   2
loop_
 _symmetry_equiv_pos_site_id
 _symmetry_equiv_pos_as_xyz
  1  'x, y, z'
loop_
 _atom_site_type_symbol
 _atom_site_label
 _atom_site_symmetry_multiplicity
 _atom_site_fract_x
 _atom_site_fract_y
 _atom_site_fract_z
 _atom_site_occupancy
  La  La0  1  0.00000000  0.00000000  0.60579298  1
  La  La1  1  0.50000001  0.49999998  0.39420699  1
  La  La2  1  0.00000000  0.00000000  0.90216197  1
  La  La3  1  0.50000001  0.49999998  0.09783800  1
  C  C4  1  0.00000000  0.00000000  0.28497699  1
  C  C5  1  0.50000001  0.49999998  0.71502297  1
  O  O6  1  0.00000000  0.00000000  0.39203399  1
  O  O7  1  0.50000001  0.49999998  0.60796598  1
  O  O8  1  0.50000001  0.00000000  0.01423900  1
  O  O9  1  0.00000000  0.49999998  0.98576097  1
  O  O10  1  0.00000000  0.76290797  0.23252799  1
  O  O11  1  0.00000000  0.23709199  0.23252799  1
  O  O12  1  0.50000001  0.73709197  0.76747197  1
  O  O13  1  0.50000001  0.26290799  0.76747197  1
