# generated using pymatgen
data_KCuF3
_symmetry_space_group_name_H-M   'P 1'
_cell_length_a   4.72037315
_cell_length_b   4.73178101
_cell_length_c   4.85976124
_cell_angle_alpha   101.85564423
_cell_angle_beta   93.83098602
_cell_angle_gamma   90.37063599
_symmetry_Int_Tables_number   1
_chemical_formula_structural   KCuF3
_chemical_formula_sum   'K1 Cu1 F3'
_cell_volume   105.97099376
_cell_formula_units_Z   1
loop_
 _symmetry_equiv_pos_site_id
 _symmetry_equiv_pos_as_xyz
  1  'x, y, z'
loop_
 _atom_site_type_symbol
 _atom_site_label
 _atom_site_symmetry_multiplicity
 _atom_site_fract_x
 _atom_site_fract_y
 _atom_site_fract_z
 _atom_site_occupancy
  K  K0  1  0.10462899  0.03340000  0.96217899  1
  Cu  Cu1  1  0.51815595  0.49888799  0.49456695  1
  F  F2  1  0.91956494  0.53305599  0.55151192  1
  F  F3  1  0.47793495  0.53709299  0.88655795  1
  F  F4  1  0.47971493  0.90755999  0.54518193  1
