# generated using pymatgen
data_DyTaMoN2
_symmetry_space_group_name_H-M   'P 1'
_cell_length_a   5.03640604
_cell_length_b   6.51670408
_cell_length_c   9.72898102
_cell_angle_alpha   90.00000000
_cell_angle_beta   90.00000000
_cell_angle_gamma   90.00000000
_symmetry_Int_Tables_number   1
_chemical_formula_structural   DyTaMoN2
_chemical_formula_sum   'Dy4 Ta4 Mo4 N8'
_cell_volume   319.31262696
_cell_formula_units_Z   4
loop_
 _symmetry_equiv_pos_site_id
 _symmetry_equiv_pos_as_xyz
  1  'x, y, z'
loop_
 _atom_site_type_symbol
 _atom_site_label
 _atom_site_symmetry_multiplicity
 _atom_site_fract_x
 _atom_site_fract_y
 _atom_site_fract_z
 _atom_site_occupancy
  Dy  Dy0  1  0.25000000  0.81782299  0.94396800  1
  Dy  Dy1  1  0.25000000  0.31782300  0.55603200  1
  Dy  Dy2  1  0.74999999  0.18217700  0.05603200  1
  Dy  Dy3  1  0.74999999  0.68217699  0.44396800  1
  Ta  Ta4  1  0.25000000  0.46876999  0.21813300  1
  Ta  Ta5  1  0.25000000  0.96876999  0.28186700  1
  Ta  Ta6  1  0.74999999  0.53122999  0.78186700  1
  Ta  Ta7  1  0.74999999  0.03123000  0.71813300  1
  Mo  Mo8  1  0.25000000  0.27616300  0.86751500  1
  Mo  Mo9  1  0.25000000  0.77616299  0.63248500  1
  Mo  Mo10  1  0.74999999  0.72383699  0.13248500  1
  Mo  Mo11  1  0.74999999  0.22383700  0.36751500  1
  N  N12  1  0.25000000  0.04203800  0.74021100  1
  N  N13  1  0.25000000  0.54203799  0.75978900  1
  N  N14  1  0.74999999  0.95796199  0.25978900  1
  N  N15  1  0.74999999  0.45796199  0.24021100  1
  N  N16  1  0.25000000  0.67314499  0.44596600  1
  N  N17  1  0.25000000  0.17314500  0.05403400  1
  N  N18  1  0.74999999  0.32685500  0.55403400  1
  N  N19  1  0.74999999  0.82685499  0.94596600  1
