# generated using pymatgen
data_Zr10(SnSb)3
_symmetry_space_group_name_H-M   'P 1'
_cell_length_a   5.58295584
_cell_length_b   8.24550819
_cell_length_c   8.24550819
_cell_angle_alpha   83.41870117
_cell_angle_beta   70.21173096
_cell_angle_gamma   70.21173096
_symmetry_Int_Tables_number   1
_chemical_formula_structural   Zr10(SnSb)3
_chemical_formula_sum   'Zr10 Sn3 Sb3'
_cell_volume   336.07192733
_cell_formula_units_Z   1
loop_
 _symmetry_equiv_pos_site_id
 _symmetry_equiv_pos_as_xyz
  1  'x, y, z'
loop_
 _atom_site_type_symbol
 _atom_site_label
 _atom_site_symmetry_multiplicity
 _atom_site_fract_x
 _atom_site_fract_y
 _atom_site_fract_z
 _atom_site_occupancy
  Zr  Zr0  1  0.19921903  0.87047200  0.73109101  1
  Zr  Zr1  1  0.80078102  0.12952800  0.26890901  1
  Zr  Zr2  1  0.06969103  0.73109100  0.12952800  1
  Zr  Zr3  1  0.69921804  0.73109100  0.87047201  1
  Zr  Zr4  1  0.93030903  0.26890900  0.87047202  1
  Zr  Zr5  1  0.30078202  0.26890900  0.12952800  1
  Zr  Zr6  1  0.56969002  0.12952800  0.73109101  1
  Zr  Zr7  1  0.43031004  0.87047200  0.26890901  1
  Zr  Zr8  1  0.25000002  0.50000000  0.50000001  1
  Zr  Zr9  1  0.75000003  0.50000000  0.50000001  1
  Sn  Sn10  1  0.75000002  0.00000000  1.00000002  1
  Sn  Sn11  1  0.25000001  0.00000000  1.00000001  1
  Sn  Sn12  1  0.66428603  0.50000000  0.17142901  1
  Sb  Sb13  1  0.33571402  0.50000000  0.82857101  1
  Sb  Sb14  1  0.16428501  0.17142900  0.50000000  1
  Sb  Sb15  1  0.83571505  0.82857100  0.50000001  1
