# generated using pymatgen
data_Ca3MgNi14
_symmetry_space_group_name_H-M   'P 1'
_cell_length_a   4.98552513
_cell_length_b   4.98552513
_cell_length_c   12.40133762
_cell_angle_alpha   78.40412140
_cell_angle_beta   78.40412140
_cell_angle_gamma   60.00001526
_symmetry_Int_Tables_number   1
_chemical_formula_structural   Ca3MgNi14
_chemical_formula_sum   'Ca3 Mg1 Ni14'
_cell_volume   259.65458491
_cell_formula_units_Z   1
loop_
 _symmetry_equiv_pos_site_id
 _symmetry_equiv_pos_as_xyz
  1  'x, y, z'
loop_
 _atom_site_type_symbol
 _atom_site_label
 _atom_site_symmetry_multiplicity
 _atom_site_fract_x
 _atom_site_fract_y
 _atom_site_fract_z
 _atom_site_occupancy
  Ca  Ca0  1  0.05167900  0.05167900  0.84496303  1
  Ca  Ca1  1  0.94378297  0.94378295  0.16865104  1
  Ca  Ca2  1  0.15039499  0.15039499  0.54881502  1
  Mg  Mg3  1  0.85316797  0.85316795  0.44049604  1
  Ni  Ni4  1  0.10895200  0.61151297  0.66802203  1
  Ni  Ni5  1  0.61151297  0.10895199  0.66802203  1
  Ni  Ni6  1  0.61151298  0.61151297  0.66802204  1
  Ni  Ni7  1  0.88910896  0.38921298  0.33246503  1
  Ni  Ni8  1  0.38921299  0.88910895  0.33246503  1
  Ni  Ni9  1  0.38921299  0.38921298  0.33246502  1
  Ni  Ni10  1  0.38889399  0.38889498  0.83331604  1
  Ni  Ni11  1  0.61201298  0.61201297  0.16396103  1
  Ni  Ni12  1  0.27796699  0.27796699  0.16609901  1
  Ni  Ni13  1  0.72207697  0.72207696  0.83376905  1
  Ni  Ni14  1  0.50083498  0.50083497  0.49749503  1
  Ni  Ni15  1  0.49955098  0.00057300  0.00032501  1
  Ni  Ni16  1  0.49955098  0.49955097  0.00032502  1
  Ni  Ni17  1  0.00057301  0.49955097  0.00032501  1
