# generated using pymatgen
data_BaCo4Ge3
_symmetry_space_group_name_H-M   'P 1'
_cell_length_a   4.05360603
_cell_length_b   4.05360603
_cell_length_c   10.05035782
_cell_angle_alpha   90.00000000
_cell_angle_beta   90.00000000
_cell_angle_gamma   90.00000000
_symmetry_Int_Tables_number   1
_chemical_formula_structural   BaCo4Ge3
_chemical_formula_sum   'Ba1 Co4 Ge3'
_cell_volume   165.14468440
_cell_formula_units_Z   1
loop_
 _symmetry_equiv_pos_site_id
 _symmetry_equiv_pos_as_xyz
  1  'x, y, z'
loop_
 _atom_site_type_symbol
 _atom_site_label
 _atom_site_symmetry_multiplicity
 _atom_site_fract_x
 _atom_site_fract_y
 _atom_site_fract_z
 _atom_site_occupancy
  Ba  Ba0  1  0.00000000  0.00000000  0.50000001  1
  Co  Co1  1  0.00000000  0.50000000  0.84660202  1
  Co  Co2  1  0.50000000  0.00000000  0.84660202  1
  Co  Co3  1  0.00000000  0.50000000  0.15339800  1
  Co  Co4  1  0.50000000  0.00000000  0.15339800  1
  Ge  Ge5  1  0.00000000  0.00000000  0.00000000  1
  Ge  Ge6  1  0.50000000  0.50000000  0.71271301  1
  Ge  Ge7  1  0.50000000  0.50000000  0.28728701  1
