# generated using pymatgen
data_MgTi5Se8
_symmetry_space_group_name_H-M   'P 1'
_cell_length_a   7.68790054
_cell_length_b   7.68790054
_cell_length_c   7.76363707
_cell_angle_alpha   60.32218552
_cell_angle_beta   60.32218552
_cell_angle_gamma   59.99999619
_symmetry_Int_Tables_number   1
_chemical_formula_structural   MgTi5Se8
_chemical_formula_sum   'Mg1 Ti5 Se8'
_cell_volume   326.03452463
_cell_formula_units_Z   1
loop_
 _symmetry_equiv_pos_site_id
 _symmetry_equiv_pos_as_xyz
  1  'x, y, z'
loop_
 _atom_site_type_symbol
 _atom_site_label
 _atom_site_symmetry_multiplicity
 _atom_site_fract_x
 _atom_site_fract_y
 _atom_site_fract_z
 _atom_site_occupancy
  Mg  Mg0  1  0.49999997  0.49999999  0.50000001  1
  Ti  Ti1  1  0.11947699  0.11947700  0.64156900  1
  Ti  Ti2  1  0.88052294  0.88052298  0.35843102  1
  Ti  Ti3  1  0.49999998  0.00000000  1.00000000  1
  Ti  Ti4  1  0.49999997  0.49999999  0.00000001  1
  Ti  Ti5  1  -0.00000001  0.49999999  1.00000000  1
  Se  Se6  1  0.25569798  0.25569799  0.23290601  1
  Se  Se7  1  0.25419397  0.71873398  0.77287801  1
  Se  Se8  1  0.25419398  0.25419399  0.77287800  1
  Se  Se9  1  0.71873397  0.25419399  0.77287801  1
  Se  Se10  1  0.74430195  0.74430198  0.76709401  1
  Se  Se11  1  0.74580597  0.28126599  0.22712201  1
  Se  Se12  1  0.74580595  0.74580598  0.22712202  1
  Se  Se13  1  0.28126597  0.74580598  0.22712201  1
