# generated using pymatgen
data_DyMoC2
_symmetry_space_group_name_H-M   'P 1'
_cell_length_a   3.41601110
_cell_length_b   5.71835423
_cell_length_c   10.81560707
_cell_angle_alpha   90.00000000
_cell_angle_beta   90.00000000
_cell_angle_gamma   90.00000000
_symmetry_Int_Tables_number   1
_chemical_formula_structural   DyMoC2
_chemical_formula_sum   'Dy4 Mo4 C8'
_cell_volume   211.27165189
_cell_formula_units_Z   4
loop_
 _symmetry_equiv_pos_site_id
 _symmetry_equiv_pos_as_xyz
  1  'x, y, z'
loop_
 _atom_site_type_symbol
 _atom_site_label
 _atom_site_symmetry_multiplicity
 _atom_site_fract_x
 _atom_site_fract_y
 _atom_site_fract_z
 _atom_site_occupancy
  Dy  Dy0  1  0.24999999  0.08552600  0.86257899  1
  Dy  Dy1  1  0.24999999  0.58552598  0.63742100  1
  Dy  Dy2  1  0.74999998  0.91447396  0.13742100  1
  Dy  Dy3  1  0.74999998  0.41447398  0.36257900  1
  Mo  Mo4  1  0.24999999  0.40353998  0.10925600  1
  Mo  Mo5  1  0.24999999  0.90353996  0.39074400  1
  Mo  Mo6  1  0.74999998  0.59645998  0.89074399  1
  Mo  Mo7  1  0.74999998  0.09646000  0.60925600  1
  C  C8  1  0.24999999  0.15940099  0.24714100  1
  C  C9  1  0.24999999  0.65940097  0.25285900  1
  C  C10  1  0.74999998  0.84059897  0.75285900  1
  C  C11  1  0.74999998  0.34059899  0.74714100  1
  C  C12  1  0.24999999  0.72113297  0.98331099  1
  C  C13  1  0.24999999  0.22113299  0.51668900  1
  C  C14  1  0.74999998  0.27886699  0.01668900  1
  C  C15  1  0.74999998  0.77886697  0.48331100  1
