# generated using pymatgen
data_CdCu4As3Se8
_symmetry_space_group_name_H-M   'P 1'
_cell_length_a   6.61595678
_cell_length_b   6.91611195
_cell_length_c   8.36035728
_cell_angle_alpha   90.00000000
_cell_angle_beta   90.00000000
_cell_angle_gamma   90.00000000
_symmetry_Int_Tables_number   1
_chemical_formula_structural   CdCu4As3Se8
_chemical_formula_sum   'Cd1 Cu4 As3 Se8'
_cell_volume   382.54234130
_cell_formula_units_Z   1
loop_
 _symmetry_equiv_pos_site_id
 _symmetry_equiv_pos_as_xyz
  1  'x, y, z'
loop_
 _atom_site_type_symbol
 _atom_site_label
 _atom_site_symmetry_multiplicity
 _atom_site_fract_x
 _atom_site_fract_y
 _atom_site_fract_z
 _atom_site_occupancy
  Cu  Cu0  1  0.00320700  0.58785500  0.87838097  1
  Cd  Cd1  1  0.50320702  0.41214500  0.12161900  1
  Cu  Cu2  1  0.50320702  0.91214501  0.37838099  1
  Cu  Cu3  1  0.00320700  0.08785500  0.62161898  1
  As  As4  1  0.99979403  0.57309300  0.37399299  1
  Cu  Cu5  1  0.49979402  0.42690700  0.62600698  1
  As  As6  1  0.49979402  0.92690701  0.87399297  1
  As  As7  1  0.99979403  0.07309300  0.12600700  1
  Se  Se8  1  0.11305500  0.90588701  0.36349199  1
  Se  Se9  1  0.61305502  0.09411300  0.63650798  1
  Se  Se10  1  0.61305502  0.59411300  0.86349197  1
  Se  Se11  1  0.11305500  0.40588700  0.13650800  1
  Se  Se12  1  0.63374402  0.56340800  0.38340199  1
  Se  Se13  1  0.13374400  0.43659200  0.61659798  1
  Se  Se14  1  0.13374400  0.93659201  0.88340197  1
  Se  Se15  1  0.63374402  0.06340800  0.11659800  1
