# generated using pymatgen
data_MgSn5
_symmetry_space_group_name_H-M   'P 1'
_cell_length_a   4.43667412
_cell_length_b   4.45063591
_cell_length_c   14.27533627
_cell_angle_alpha   90.00000000
_cell_angle_beta   98.93978882
_cell_angle_gamma   90.00000000
_symmetry_Int_Tables_number   1
_chemical_formula_structural   MgSn5
_chemical_formula_sum   'Mg2 Sn10'
_cell_volume   278.45685377
_cell_formula_units_Z   2
loop_
 _symmetry_equiv_pos_site_id
 _symmetry_equiv_pos_as_xyz
  1  'x, y, z'
loop_
 _atom_site_type_symbol
 _atom_site_label
 _atom_site_symmetry_multiplicity
 _atom_site_fract_x
 _atom_site_fract_y
 _atom_site_fract_z
 _atom_site_occupancy
  Mg  Mg0  1  0.69433398  1.00000002  0.38866799  1
  Mg  Mg1  1  0.30566599  1.00000002  0.61133199  1
  Sn  Sn2  1  0.94725997  0.50000001  0.89451998  1
  Sn  Sn3  1  0.05274000  0.50000001  0.10548000  1
  Sn  Sn4  1  0.49999998  0.50000001  -0.00000001  1
  Sn  Sn5  1  0.00000000  0.00000000  0.00000000  1
  Sn  Sn6  1  0.78664797  0.50000001  0.57329598  1
  Sn  Sn7  1  0.21335199  0.50000001  0.42670399  1
  Sn  Sn8  1  0.38909399  0.50000001  0.77818799  1
  Sn  Sn9  1  0.61090598  0.50000001  0.22181199  1
  Sn  Sn10  1  0.88932797  1.00000002  0.77865598  1
  Sn  Sn11  1  0.11067200  0.00000000  0.22134400  1
