# generated using pymatgen
data_Nd2C3
_symmetry_space_group_name_H-M   'P 1'
_cell_length_a   7.34163523
_cell_length_b   7.34163523
_cell_length_c   7.34163523
_cell_angle_alpha   109.47122192
_cell_angle_beta   109.47122192
_cell_angle_gamma   109.47122192
_symmetry_Int_Tables_number   1
_chemical_formula_structural   Nd2C3
_chemical_formula_sum   'Nd8 C12'
_cell_volume   304.61865499
_cell_formula_units_Z   4
loop_
 _symmetry_equiv_pos_site_id
 _symmetry_equiv_pos_as_xyz
  1  'x, y, z'
loop_
 _atom_site_type_symbol
 _atom_site_label
 _atom_site_symmetry_multiplicity
 _atom_site_fract_x
 _atom_site_fract_y
 _atom_site_fract_z
 _atom_site_occupancy
  Nd  Nd0  1  1.00000002  0.50000001  0.10271805  1
  Nd  Nd1  1  0.50000003  0.60271801  0.50000004  1
  Nd  Nd2  1  0.60271806  1.00000002  0.00000007  1
  Nd  Nd3  1  0.00000003  0.50000001  0.60271802  1
  Nd  Nd4  1  0.89728205  0.89728202  0.39728206  1
  Nd  Nd5  1  0.50000000  0.10271800  0.50000001  1
  Nd  Nd6  1  0.39728202  0.39728201  0.89728202  1
  Nd  Nd7  1  0.10271806  1.00000002  1.00000004  1
  C  C8  1  0.75000003  0.54638501  0.79638503  1
  C  C9  1  0.95361500  0.20361500  0.75000002  1
  C  C10  1  0.75000004  0.70361502  0.95361504  1
  C  C11  1  0.70361502  0.45361501  0.25000004  1
  C  C12  1  0.25000005  0.79638502  0.54638504  1
  C  C13  1  0.79638500  0.04638500  0.75000001  1
  C  C14  1  0.25000006  0.95361502  0.70361505  1
  C  C15  1  0.04638502  0.25000001  0.29638501  1
  C  C16  1  0.20361501  0.25000001  0.45361501  1
  C  C17  1  0.29638504  0.75000002  0.04638505  1
  C  C18  1  0.54638501  0.29638501  0.25000003  1
  C  C19  1  0.45361504  0.75000002  0.20361505  1
