# generated using pymatgen
data_Hf3Zn2Sn3
_symmetry_space_group_name_H-M   'P 1'
_cell_length_a   5.34068012
_cell_length_b   8.10871887
_cell_length_c   8.10871887
_cell_angle_alpha   83.77404022
_cell_angle_beta   70.77266693
_cell_angle_gamma   70.77266693
_symmetry_Int_Tables_number   1
_chemical_formula_structural   Hf3Zn2Sn3
_chemical_formula_sum   'Hf6 Zn4 Sn6'
_cell_volume   313.07390555
_cell_formula_units_Z   2
loop_
 _symmetry_equiv_pos_site_id
 _symmetry_equiv_pos_as_xyz
  1  'x, y, z'
loop_
 _atom_site_type_symbol
 _atom_site_label
 _atom_site_symmetry_multiplicity
 _atom_site_fract_x
 _atom_site_fract_y
 _atom_site_fract_z
 _atom_site_occupancy
  Hf  Hf0  1  0.28014400  0.30106800  0.13864400  1
  Hf  Hf1  1  0.71985599  0.69893199  0.86135599  1
  Hf  Hf2  1  0.21985500  0.86135699  0.69893199  1
  Hf  Hf3  1  0.78014498  0.13864300  0.30106800  1
  Hf  Hf4  1  0.41878700  0.86135699  0.30106799  1
  Hf  Hf5  1  0.58121299  0.13864300  0.69893199  1
  Zn  Zn6  1  0.91878798  0.30106800  0.86135599  1
  Zn  Zn7  1  0.08121201  0.69893199  0.13864399  1
  Zn  Zn8  1  0.74999999  0.49999999  0.49999999  1
  Zn  Zn9  1  0.25000000  0.49999999  0.49999999  1
  Sn  Sn10  1  0.84159099  0.81681799  0.49999999  1
  Sn  Sn11  1  0.15840900  0.18318200  0.49999999  1
  Sn  Sn12  1  0.65840899  0.49999999  0.18318200  1
  Sn  Sn13  1  0.34159100  0.49999999  0.81681799  1
  Sn  Sn14  1  0.25000000  0.99999999  -0.00000001  1
  Sn  Sn15  1  0.74999999  0.99999999  -0.00000001  1
