# generated using pymatgen
data_LiCdGe
_symmetry_space_group_name_H-M   'P 1'
_cell_length_a   4.13422680
_cell_length_b   7.10481787
_cell_length_c   7.10481834
_cell_angle_alpha   120.00000000
_cell_angle_beta   90.00000000
_cell_angle_gamma   90.00000000
_symmetry_Int_Tables_number   1
_chemical_formula_structural   LiCdGe
_chemical_formula_sum   'Li3 Cd3 Ge3'
_cell_volume   180.73025324
_cell_formula_units_Z   3
loop_
 _symmetry_equiv_pos_site_id
 _symmetry_equiv_pos_as_xyz
  1  'x, y, z'
loop_
 _atom_site_type_symbol
 _atom_site_label
 _atom_site_symmetry_multiplicity
 _atom_site_fract_x
 _atom_site_fract_y
 _atom_site_fract_z
 _atom_site_occupancy
  Li  Li0  1  -0.00000000  0.41358801  0.41358799  1
  Li  Li1  1  1.00000005  0.00000000  0.58641198  1
  Li  Li2  1  -0.00000000  0.58641201  0.00000001  1
  Cd  Cd3  1  0.50000002  0.74601802  0.74601798  1
  Cd  Cd4  1  0.50000002  0.00000000  0.25398199  1
  Cd  Cd5  1  0.50000002  0.25398201  0.00000000  1
  Ge  Ge6  1  0.50000002  0.66666668  0.33333333  1
  Ge  Ge7  1  0.50000002  0.33333334  0.66666665  1
  Ge  Ge8  1  0.00000000  0.00000000  0.00000000  1
