# generated using pymatgen
data_RbHfO3
_symmetry_space_group_name_H-M   'P 1'
_cell_length_a   6.75029612
_cell_length_b   6.76218939
_cell_length_c   7.20177698
_cell_angle_alpha   81.07238770
_cell_angle_beta   71.88532257
_cell_angle_gamma   60.05816269
_symmetry_Int_Tables_number   1
_chemical_formula_structural   RbHfO3
_chemical_formula_sum   'Rb2 Hf2 O6'
_cell_volume   270.74323902
_cell_formula_units_Z   2
loop_
 _symmetry_equiv_pos_site_id
 _symmetry_equiv_pos_as_xyz
  1  'x, y, z'
loop_
 _atom_site_type_symbol
 _atom_site_label
 _atom_site_symmetry_multiplicity
 _atom_site_fract_x
 _atom_site_fract_y
 _atom_site_fract_z
 _atom_site_occupancy
  Rb  Rb0  1  0.66692696  0.66614600  0.00000005  1
  Rb  Rb1  1  0.33307298  0.33385400  0.00000002  1
  Hf  Hf2  1  0.94529295  0.99999999  0.16480407  1
  Hf  Hf3  1  0.05470697  0.99999999  0.83519607  1
  O  O4  1  0.20839896  0.99999999  0.24959606  1
  O  O5  1  0.79160098  0.00000000  0.75040402  1
  O  O6  1  0.62674098  0.28953000  0.25342203  1
  O  O7  1  0.91627096  0.71047000  0.25342206  1
  O  O8  1  0.37325897  0.71047000  0.74657806  1
  O  O9  1  0.08372899  0.28953000  0.74657803  1
