# generated using pymatgen
data_KNa2Cr3O3
_symmetry_space_group_name_H-M   'P 1'
_cell_length_a   5.76287222
_cell_length_b   5.76287222
_cell_length_c   8.41620255
_cell_angle_alpha   90.00000000
_cell_angle_beta   90.00000000
_cell_angle_gamma   90.00000000
_symmetry_Int_Tables_number   1
_chemical_formula_structural   KNa2Cr3O3
_chemical_formula_sum   'K2 Na4 Cr6 O6'
_cell_volume   279.50794600
_cell_formula_units_Z   2
loop_
 _symmetry_equiv_pos_site_id
 _symmetry_equiv_pos_as_xyz
  1  'x, y, z'
loop_
 _atom_site_type_symbol
 _atom_site_label
 _atom_site_symmetry_multiplicity
 _atom_site_fract_x
 _atom_site_fract_y
 _atom_site_fract_z
 _atom_site_occupancy
  K  K0  1  0.00000000  0.00000000  0.00000000  1
  K  K1  1  0.49999998  0.49999998  0.00000000  1
  Na  Na2  1  0.00000000  0.49999998  0.24177001  1
  Na  Na3  1  0.49999998  0.00000000  0.75823004  1
  Na  Na4  1  0.00000000  0.00000000  0.50000003  1
  Na  Na5  1  0.49999998  0.49999998  0.50000003  1
  Cr  Cr6  1  0.00000000  0.49999998  0.73809404  1
  Cr  Cr7  1  0.49999998  0.00000000  0.26190601  1
  Cr  Cr8  1  0.76994997  0.26994999  0.66776904  1
  Cr  Cr9  1  0.23004999  0.26994999  0.66776904  1
  Cr  Cr10  1  0.76994997  0.73004997  0.66776904  1
  Cr  Cr11  1  0.23004999  0.73004997  0.66776904  1
  O  O12  1  0.73004997  0.23004999  0.33223102  1
  O  O13  1  0.26994999  0.23004999  0.33223102  1
  O  O14  1  0.73004997  0.76994997  0.33223102  1
  O  O15  1  0.26994999  0.76994997  0.33223102  1
  O  O16  1  0.00000000  0.49999998  0.95994005  1
  O  O17  1  0.49999998  0.00000000  0.04006000  1
