# generated using pymatgen
data_Ti2Sn3
_symmetry_space_group_name_H-M   'P 1'
_cell_length_a   5.99211979
_cell_length_b   7.05846024
_cell_length_c   10.48788357
_cell_angle_alpha   90.00000000
_cell_angle_beta   106.59882355
_cell_angle_gamma   90.00000000
_symmetry_Int_Tables_number   1
_chemical_formula_structural   Ti2Sn3
_chemical_formula_sum   'Ti8 Sn12'
_cell_volume   425.10155487
_cell_formula_units_Z   4
loop_
 _symmetry_equiv_pos_site_id
 _symmetry_equiv_pos_as_xyz
  1  'x, y, z'
loop_
 _atom_site_type_symbol
 _atom_site_label
 _atom_site_symmetry_multiplicity
 _atom_site_fract_x
 _atom_site_fract_y
 _atom_site_fract_z
 _atom_site_occupancy
  Ti  Ti0  1  0.08080600  0.95194697  0.16161200  1
  Ti  Ti1  1  0.58669802  0.74999997  0.67339599  1
  Ti  Ti2  1  0.91330203  0.24999999  0.32660399  1
  Ti  Ti3  1  0.41330201  0.24999999  0.32660400  1
  Ti  Ti4  1  0.58080602  0.54805298  0.16161200  1
  Ti  Ti5  1  0.08669800  0.74999997  0.67339599  1
  Ti  Ti6  1  0.91919403  0.04805300  0.83838799  1
  Ti  Ti7  1  0.41919401  0.45194698  0.83838799  1
  Sn  Sn8  1  0.22460501  0.92705097  0.44921000  1
  Sn  Sn9  1  0.87797103  0.42595399  0.75594199  1
  Sn  Sn10  1  0.72460502  0.57294898  0.44920999  1
  Sn  Sn11  1  0.27539501  0.42705099  0.55078999  1
  Sn  Sn12  1  0.77069503  0.24999999  0.04139000  1
  Sn  Sn13  1  0.12202900  0.57404598  0.24405800  1
  Sn  Sn14  1  0.37797101  0.07404600  0.75594199  1
  Sn  Sn15  1  0.72930502  0.74999997  0.95860999  1
  Sn  Sn16  1  0.77539503  0.07294900  0.55078999  1
  Sn  Sn17  1  0.27069501  0.24999999  0.04139000  1
  Sn  Sn18  1  0.22930501  0.74999997  0.95860999  1
  Sn  Sn19  1  0.62202902  0.92595397  0.24405800  1
