# generated using pymatgen
data_TmSi2
_symmetry_space_group_name_H-M   'P 1'
_cell_length_a   4.03332186
_cell_length_b   4.08461380
_cell_length_c   4.08461380
_cell_angle_alpha   120.00000000
_cell_angle_beta   90.00000000
_cell_angle_gamma   90.00000000
_symmetry_Int_Tables_number   1
_chemical_formula_structural   TmSi2
_chemical_formula_sum   'Tm1 Si2'
_cell_volume   58.27677527
_cell_formula_units_Z   1
loop_
 _symmetry_equiv_pos_site_id
 _symmetry_equiv_pos_as_xyz
  1  'x, y, z'
loop_
 _atom_site_type_symbol
 _atom_site_label
 _atom_site_symmetry_multiplicity
 _atom_site_fract_x
 _atom_site_fract_y
 _atom_site_fract_z
 _atom_site_occupancy
  Tm  Tm0  1  -0.00000000  0.33333334  0.66666661  1
  Si  Si1  1  0.50000002  0.00000000  -0.00000000  1
  Si  Si2  1  0.50000002  0.66666668  0.33333327  1
