# generated using pymatgen
data_NaLaO2
_symmetry_space_group_name_H-M   'P 1'
_cell_length_a   3.57709813
_cell_length_b   3.57709813
_cell_length_c   6.17371750
_cell_angle_alpha   73.15978241
_cell_angle_beta   73.15978241
_cell_angle_gamma   60.00000000
_symmetry_Int_Tables_number   1
_chemical_formula_structural   NaLaO2
_chemical_formula_sum   'Na1 La1 O2'
_cell_volume   64.47167816
_cell_formula_units_Z   1
loop_
 _symmetry_equiv_pos_site_id
 _symmetry_equiv_pos_as_xyz
  1  'x, y, z'
loop_
 _atom_site_type_symbol
 _atom_site_label
 _atom_site_symmetry_multiplicity
 _atom_site_fract_x
 _atom_site_fract_y
 _atom_site_fract_z
 _atom_site_occupancy
  Na  Na0  1  0.00000000  0.00000000  0.00000000  1
  La  La1  1  0.49999998  0.49999998  0.50000003  1
  O  O2  1  0.25106999  0.25106999  0.24679002  1
  O  O3  1  0.74892996  0.74892997  0.75321005  1
