# generated using pymatgen
data_Y2SnSe5
_symmetry_space_group_name_H-M   'P 1'
_cell_length_a   5.66313219
_cell_length_b   5.66313219
_cell_length_c   7.45213270
_cell_angle_alpha   112.33164978
_cell_angle_beta   112.33164978
_cell_angle_gamma   90.00000000
_symmetry_Int_Tables_number   1
_chemical_formula_structural   Y2SnSe5
_chemical_formula_sum   'Y2 Sn1 Se5'
_cell_volume   201.56033998
_cell_formula_units_Z   1
loop_
 _symmetry_equiv_pos_site_id
 _symmetry_equiv_pos_as_xyz
  1  'x, y, z'
loop_
 _atom_site_type_symbol
 _atom_site_label
 _atom_site_symmetry_multiplicity
 _atom_site_fract_x
 _atom_site_fract_y
 _atom_site_fract_z
 _atom_site_occupancy
  Y  Y0  1  0.75103196  0.25103199  0.50206397  1
  Y  Y1  1  0.00103200  0.00103200  0.00206400  1
  Sn  Sn2  1  0.29113397  0.79113396  0.58226797  1
  Se  Se3  1  0.54113396  0.54113397  0.08226797  1
  Se  Se4  1  0.97768194  0.47768198  0.95536396  1
  Se  Se5  1  0.22768198  0.22768199  0.45536398  1
  Se  Se6  1  0.52015098  0.02015100  0.04030199  1
  Se  Se7  1  0.77015095  0.77015096  0.54030196  1
