# generated using pymatgen
data_KWF6
_symmetry_space_group_name_H-M   'P 1'
_cell_length_a   5.03579712
_cell_length_b   5.03579712
_cell_length_c   5.03579712
_cell_angle_alpha   97.98375702
_cell_angle_beta   97.98375702
_cell_angle_gamma   97.98375702
_symmetry_Int_Tables_number   1
_chemical_formula_structural   KWF6
_chemical_formula_sum   'K1 W1 F6'
_cell_volume   123.60063184
_cell_formula_units_Z   1
loop_
 _symmetry_equiv_pos_site_id
 _symmetry_equiv_pos_as_xyz
  1  'x, y, z'
loop_
 _atom_site_type_symbol
 _atom_site_label
 _atom_site_symmetry_multiplicity
 _atom_site_fract_x
 _atom_site_fract_y
 _atom_site_fract_z
 _atom_site_occupancy
  K  K0  1  0.50000004  0.50000002  0.50000001  1
  W  W1  1  0.00000000  0.00000000  0.00000000  1
  F  F2  1  0.24959905  0.92172403  0.24959903  1
  F  F3  1  0.92172403  0.24959901  0.24959902  1
  F  F4  1  0.75040106  0.75040102  0.07827604  1
  F  F5  1  0.07827604  0.75040102  0.75040100  1
  F  F6  1  0.75040102  0.07827600  0.75040099  1
  F  F7  1  0.24959902  0.24959901  0.92172398  1
