# generated using pymatgen
data_Zr2TiO4
_symmetry_space_group_name_H-M   'P 1'
_cell_length_a   5.53087091
_cell_length_b   5.53462219
_cell_length_c   6.45042467
_cell_angle_alpha   64.59510803
_cell_angle_beta   90.00000000
_cell_angle_gamma   90.00000000
_symmetry_Int_Tables_number   1
_chemical_formula_structural   Zr2TiO4
_chemical_formula_sum   'Zr4 Ti2 O8'
_cell_volume   178.36152616
_cell_formula_units_Z   2
loop_
 _symmetry_equiv_pos_site_id
 _symmetry_equiv_pos_as_xyz
  1  'x, y, z'
loop_
 _atom_site_type_symbol
 _atom_site_label
 _atom_site_symmetry_multiplicity
 _atom_site_fract_x
 _atom_site_fract_y
 _atom_site_fract_z
 _atom_site_occupancy
  Zr  Zr0  1  0.00000000  0.66156699  0.67686596  1
  Zr  Zr1  1  0.50000001  0.83843298  0.32313396  1
  Zr  Zr2  1  0.00000000  0.33843299  0.32313398  1
  Zr  Zr3  1  0.50000001  0.16156700  0.67686598  1
  Ti  Ti4  1  0.00000000  0.00000000  0.00000000  1
  Ti  Ti5  1  0.50000001  0.49999999  -0.00000002  1
  O  O6  1  0.75000001  0.00939000  0.49999999  1
  O  O7  1  0.25000000  0.49060999  0.49999997  1
  O  O8  1  0.25000000  0.99060998  0.49999996  1
  O  O9  1  0.75000001  0.50938999  0.49999997  1
  O  O10  1  0.66845701  0.16844300  -0.00000001  1
  O  O11  1  0.83154301  0.66844299  -0.00000002  1
  O  O12  1  0.16845700  0.33155699  -0.00000001  1
  O  O13  1  0.33154301  0.83155698  0.99999995  1
