# generated using pymatgen
data_MgGaCuO4
_symmetry_space_group_name_H-M   'P 1'
_cell_length_a   3.42441630
_cell_length_b   3.42441630
_cell_length_c   8.66734982
_cell_angle_alpha   78.60645294
_cell_angle_beta   78.60645294
_cell_angle_gamma   59.99999619
_symmetry_Int_Tables_number   1
_chemical_formula_structural   MgGaCuO4
_chemical_formula_sum   'Mg1 Ga1 Cu1 O4'
_cell_volume   85.70114997
_cell_formula_units_Z   1
loop_
 _symmetry_equiv_pos_site_id
 _symmetry_equiv_pos_as_xyz
  1  'x, y, z'
loop_
 _atom_site_type_symbol
 _atom_site_label
 _atom_site_symmetry_multiplicity
 _atom_site_fract_x
 _atom_site_fract_y
 _atom_site_fract_z
 _atom_site_occupancy
  Mg  Mg0  1  0.99851602  0.99851598  0.00445199  1
  Ga  Ga1  1  0.21371900  0.21371900  0.35884299  1
  Cu  Cu2  1  0.78423402  0.78423398  0.64729798  1
  O  O3  1  0.70523602  0.70523598  0.88429198  1
  O  O4  1  0.28998201  0.28998199  0.13005399  1
  O  O5  1  0.87825802  0.87825798  0.36522598  1
  O  O6  1  0.13645400  0.13645400  0.59063799  1
