# generated using pymatgen
data_AlPd3
_symmetry_space_group_name_H-M   'P 1'
_cell_length_a   3.92643905
_cell_length_b   4.03388500
_cell_length_c   7.66279507
_cell_angle_alpha   90.00000000
_cell_angle_beta   90.00000000
_cell_angle_gamma   90.00000000
_symmetry_Int_Tables_number   1
_chemical_formula_structural   AlPd3
_chemical_formula_sum   'Al2 Pd6'
_cell_volume   121.36950596
_cell_formula_units_Z   2
loop_
 _symmetry_equiv_pos_site_id
 _symmetry_equiv_pos_as_xyz
  1  'x, y, z'
loop_
 _atom_site_type_symbol
 _atom_site_label
 _atom_site_symmetry_multiplicity
 _atom_site_fract_x
 _atom_site_fract_y
 _atom_site_fract_z
 _atom_site_occupancy
  Al  Al0  1  0.00000000  0.00000000  0.24402600  1
  Al  Al1  1  0.00000000  0.00000000  0.75597399  1
  Pd  Pd2  1  0.49999999  0.50000000  0.24945800  1
  Pd  Pd3  1  0.49999999  0.50000000  0.75054199  1
  Pd  Pd4  1  0.00000000  0.50000000  0.50000000  1
  Pd  Pd5  1  0.00000000  0.50000000  0.00000000  1
  Pd  Pd6  1  0.49999999  0.00000000  0.50000000  1
  Pd  Pd7  1  0.49999999  0.00000000  0.00000000  1
