# generated using pymatgen
data_V2CuSe4
_symmetry_space_group_name_H-M   'P 1'
_cell_length_a   3.68197799
_cell_length_b   6.33193827
_cell_length_c   6.96960735
_cell_angle_alpha   115.43457794
_cell_angle_beta   105.31616974
_cell_angle_gamma   90.00000000
_symmetry_Int_Tables_number   1
_chemical_formula_structural   V2CuSe4
_chemical_formula_sum   'V2 Cu1 Se4'
_cell_volume   140.32330318
_cell_formula_units_Z   1
loop_
 _symmetry_equiv_pos_site_id
 _symmetry_equiv_pos_as_xyz
  1  'x, y, z'
loop_
 _atom_site_type_symbol
 _atom_site_label
 _atom_site_symmetry_multiplicity
 _atom_site_fract_x
 _atom_site_fract_y
 _atom_site_fract_z
 _atom_site_occupancy
  V  V0  1  0.00172394  0.98594798  0.00344795  1
  V  V1  1  0.25423398  0.23902700  0.50846797  1
  Cu  Cu2  1  0.74048194  0.76119199  0.48096393  1
  Se  Se3  1  0.87152598  0.20037600  0.74305195  1
  Se  Se4  1  0.36276695  0.69394599  0.72553394  1
  Se  Se5  1  0.63077097  0.30075300  0.26154196  1
  Se  Se6  1  0.13849495  0.81875799  0.27698995  1
