# generated using pymatgen
data_KLiNbCN5
_symmetry_space_group_name_H-M   'P 1'
_cell_length_a   4.94555998
_cell_length_b   4.94555998
_cell_length_c   4.94555998
_cell_angle_alpha   83.33584595
_cell_angle_beta   83.33584595
_cell_angle_gamma   83.33585358
_symmetry_Int_Tables_number   1
_chemical_formula_structural   KLiNbCN5
_chemical_formula_sum   'K1 Li1 Nb1 C1 N5'
_cell_volume   118.68537164
_cell_formula_units_Z   1
loop_
 _symmetry_equiv_pos_site_id
 _symmetry_equiv_pos_as_xyz
  1  'x, y, z'
loop_
 _atom_site_type_symbol
 _atom_site_label
 _atom_site_symmetry_multiplicity
 _atom_site_fract_x
 _atom_site_fract_y
 _atom_site_fract_z
 _atom_site_occupancy
  K  K0  1  0.65135702  0.65135700  0.65135694  1
  Li  Li1  1  0.34864301  0.34864300  0.34864297  1
  Nb  Nb2  1  0.00000000  0.00000000  0.00000000  1
  C  C3  1  0.09881703  0.92610999  0.59334895  1
  N  N4  1  0.92611002  0.59334900  0.09881695  1
  N  N5  1  0.59334900  0.09881700  0.92610996  1
  N  N6  1  0.90118300  0.07389000  0.40665096  1
  N  N7  1  0.07389001  0.40665100  0.90118297  1
  N  N8  1  0.40665103  0.90118299  0.07388995  1
