# generated using pymatgen
data_CaAlPN
_symmetry_space_group_name_H-M   'P 1'
_cell_length_a   4.22939014
_cell_length_b   4.22939062
_cell_length_c   4.96478415
_cell_angle_alpha   90.00000000
_cell_angle_beta   90.00000000
_cell_angle_gamma   119.99999237
_symmetry_Int_Tables_number   1
_chemical_formula_structural   CaAlPN
_chemical_formula_sum   'Ca1 Al1 P1 N1'
_cell_volume   76.91066798
_cell_formula_units_Z   1
loop_
 _symmetry_equiv_pos_site_id
 _symmetry_equiv_pos_as_xyz
  1  'x, y, z'
loop_
 _atom_site_type_symbol
 _atom_site_label
 _atom_site_symmetry_multiplicity
 _atom_site_fract_x
 _atom_site_fract_y
 _atom_site_fract_z
 _atom_site_occupancy
  Ca  Ca0  1  0.00000000  0.00000000  0.00018500  1
  Al  Al1  1  0.33333329  0.66666667  0.46042599  1
  P  P2  1  0.66666663  0.33333333  0.55473498  1
  N  N3  1  0.33333329  0.66666667  0.10765400  1
