# generated using pymatgen
data_Ba4CN9
_symmetry_space_group_name_H-M   'P 1'
_cell_length_a   6.27847481
_cell_length_b   6.27847481
_cell_length_c   6.27847481
_cell_angle_alpha   109.47122192
_cell_angle_beta   109.47122192
_cell_angle_gamma   109.47122192
_symmetry_Int_Tables_number   1
_chemical_formula_structural   Ba4CN9
_chemical_formula_sum   'Ba4 C1 N9'
_cell_volume   190.51999283
_cell_formula_units_Z   1
loop_
 _symmetry_equiv_pos_site_id
 _symmetry_equiv_pos_as_xyz
  1  'x, y, z'
loop_
 _atom_site_type_symbol
 _atom_site_label
 _atom_site_symmetry_multiplicity
 _atom_site_fract_x
 _atom_site_fract_y
 _atom_site_fract_z
 _atom_site_occupancy
  Ba  Ba0  1  0.00000000  0.00000000  0.00000000  1
  Ba  Ba1  1  0.50000002  0.50000000  0.50000002  1
  Ba  Ba2  1  0.00000003  0.50000000  0.00000003  1
  Ba  Ba3  1  0.00000000  0.00000000  0.49999998  1
  C  C4  1  0.49999999  0.00000000  0.99999998  1
  N  N5  1  0.00000003  0.50000000  0.50000001  1
  N  N6  1  0.50000002  0.50000000  1.00000001  1
  N  N7  1  0.49999999  0.00000000  0.50000000  1
  N  N8  1  0.00000004  0.67092100  0.67092102  1
  N  N9  1  0.67092103  0.67092100  1.00000002  1
  N  N10  1  0.67092098  0.00000000  0.67092099  1
  N  N11  1  0.00000002  0.32907900  0.32907901  1
  N  N12  1  0.32907901  0.32907900  0.99999999  1
  N  N13  1  0.32907899  0.00000000  0.32907900  1
