# generated using pymatgen
data_Al(HO2)3
_symmetry_space_group_name_H-M   'P 1'
_cell_length_a   5.20448923
_cell_length_b   6.40849018
_cell_length_c   8.03465080
_cell_angle_alpha   113.50338745
_cell_angle_beta   107.85711670
_cell_angle_gamma   90.00000000
_symmetry_Int_Tables_number   1
_chemical_formula_structural   Al(HO2)3
_chemical_formula_sum   'Al2 H6 O12'
_cell_volume   231.60045178
_cell_formula_units_Z   2
loop_
 _symmetry_equiv_pos_site_id
 _symmetry_equiv_pos_as_xyz
  1  'x, y, z'
loop_
 _atom_site_type_symbol
 _atom_site_label
 _atom_site_symmetry_multiplicity
 _atom_site_fract_x
 _atom_site_fract_y
 _atom_site_fract_z
 _atom_site_occupancy
  Al  Al0  1  1.00000006  0.99879498  0.00000004  1
  Al  Al1  1  0.19922503  0.82483798  0.62294501  1
  H  H2  1  0.80077503  0.20189300  0.37705502  1
  H  H3  1  0.42969103  0.73402299  0.44786902  1
  H  H4  1  0.57030903  0.28615399  0.55213101  1
  H  H5  1  0.64195204  0.63298899  0.26509002  1
  H  H6  1  0.35804802  0.36789899  0.73491001  1
  H  H7  1  0.50000003  0.49944699  0.00000002  1
  O  O8  1  0.20803803  0.90867198  0.82185601  1
  O  O9  1  0.79196203  0.08681600  0.17814402  1
  O  O10  1  0.69030404  0.56753599  0.13680702  1
  O  O11  1  0.30969602  0.43072899  0.86319300  1
  O  O12  1  0.61549704  0.71527699  0.43133602  1
  O  O13  1  0.38450302  0.28394099  0.56866401  1
  O  O14  1  0.23534102  0.28399199  0.15254401  1
  O  O15  1  0.76465903  0.13144800  0.84745601  1
  O  O16  1  0.76287505  0.71458499  0.84795202  1
  O  O17  1  0.23712503  0.86663298  0.15204802  1
  O  O18  1  0.19057403  0.76518799  0.48604101  1
  O  O19  1  0.80942604  0.27914699  0.51395902  1
