# generated using pymatgen
data_LiVO2
_symmetry_space_group_name_H-M   'P 1'
_cell_length_a   5.09262896
_cell_length_b   5.09707165
_cell_length_c   5.90023422
_cell_angle_alpha   90.00000000
_cell_angle_beta   90.00000000
_cell_angle_gamma   109.78555298
_symmetry_Int_Tables_number   1
_chemical_formula_structural   LiVO2
_chemical_formula_sum   'Li4 V4 O8'
_cell_volume   144.11395161
_cell_formula_units_Z   4
loop_
 _symmetry_equiv_pos_site_id
 _symmetry_equiv_pos_as_xyz
  1  'x, y, z'
loop_
 _atom_site_type_symbol
 _atom_site_label
 _atom_site_symmetry_multiplicity
 _atom_site_fract_x
 _atom_site_fract_y
 _atom_site_fract_z
 _atom_site_occupancy
  Li  Li0  1  0.00000002  0.50000001  -0.00000000  1
  Li  Li1  1  0.00000002  0.50000001  0.49999998  1
  Li  Li2  1  0.50000002  0.50000001  0.24266199  1
  Li  Li3  1  0.50000002  0.50000001  0.75733797  1
  V  V4  1  0.00000000  0.00000000  0.24967799  1
  V  V5  1  0.00000000  0.00000000  0.75032197  1
  V  V6  1  0.50000000  0.00000000  0.49999998  1
  V  V7  1  0.50000000  0.00000000  0.00000000  1
  O  O8  1  0.23452001  0.23302501  -0.00000000  1
  O  O9  1  0.24790801  0.22554301  0.49999998  1
  O  O10  1  0.25810103  0.77510602  0.26612999  1
  O  O11  1  0.74189902  0.22489401  0.26612999  1
  O  O12  1  0.25810103  0.77510602  0.73386997  1
  O  O13  1  0.76548004  0.76697502  -0.00000000  1
  O  O14  1  0.74189902  0.22489401  0.73386997  1
  O  O15  1  0.75209204  0.77445702  0.49999998  1
