# generated using pymatgen
data_Li4VO8
_symmetry_space_group_name_H-M   'P 1'
_cell_length_a   3.82730103
_cell_length_b   6.49341917
_cell_length_c   6.60498905
_cell_angle_alpha   107.04891968
_cell_angle_beta   106.84166718
_cell_angle_gamma   90.00000000
_symmetry_Int_Tables_number   1
_chemical_formula_structural   Li4VO8
_chemical_formula_sum   'Li4 V1 O8'
_cell_volume   149.55570030
_cell_formula_units_Z   1
loop_
 _symmetry_equiv_pos_site_id
 _symmetry_equiv_pos_as_xyz
  1  'x, y, z'
loop_
 _atom_site_type_symbol
 _atom_site_label
 _atom_site_symmetry_multiplicity
 _atom_site_fract_x
 _atom_site_fract_y
 _atom_site_fract_z
 _atom_site_occupancy
  Li  Li0  1  0.32443899  0.00000000  0.99999996  1
  Li  Li1  1  0.71055497  0.29258000  0.40610596  1
  Li  Li2  1  0.30444897  0.70742000  0.59389398  1
  Li  Li3  1  0.61272297  0.68913300  0.20228698  1
  V  V4  1  0.41043598  0.31086700  0.79771296  1
  O  O5  1  0.86535397  0.31183600  0.73130595  1
  O  O6  1  0.13404698  0.68816400  0.26869399  1
  O  O7  1  0.63675298  0.00140200  0.28191397  1
  O  O8  1  0.35483796  0.99859801  0.71808597  1
  O  O9  1  0.76627996  0.65143100  0.52724696  1
  O  O10  1  0.23903398  0.34856900  0.47275298  1
  O  O11  1  0.54061398  0.34374400  0.11013598  1
  O  O12  1  0.43047797  0.65625600  0.88986396  1
