# generated using pymatgen
data_La2AlSi2
_symmetry_space_group_name_H-M   'P 1'
_cell_length_a   4.33008623
_cell_length_b   5.80493689
_cell_length_c   5.80493689
_cell_angle_alpha   61.46446609
_cell_angle_beta   68.10135651
_cell_angle_gamma   68.10135651
_symmetry_Int_Tables_number   1
_chemical_formula_structural   La2AlSi2
_chemical_formula_sum   'La2 Al1 Si2'
_cell_volume   115.49137556
_cell_formula_units_Z   1
loop_
 _symmetry_equiv_pos_site_id
 _symmetry_equiv_pos_as_xyz
  1  'x, y, z'
loop_
 _atom_site_type_symbol
 _atom_site_label
 _atom_site_symmetry_multiplicity
 _atom_site_fract_x
 _atom_site_fract_y
 _atom_site_fract_z
 _atom_site_occupancy
  La  La0  1  0.19904098  0.30095901  0.30095902  1
  La  La1  1  0.80095894  0.69904102  0.69904104  1
  Al  Al2  1  0.00000000  0.00000000  0.00000000  1
  Si  Si3  1  0.49999996  0.73588002  0.26412003  1
  Si  Si4  1  0.49999997  0.26412001  0.73588003  1
