# generated using pymatgen
data_Nd(Al2Cu)4
_symmetry_space_group_name_H-M   'P 1'
_cell_length_a   5.02549791
_cell_length_b   6.85313272
_cell_length_c   6.85313272
_cell_angle_alpha   82.27391815
_cell_angle_beta   68.49040985
_cell_angle_gamma   68.49040985
_symmetry_Int_Tables_number   1
_chemical_formula_structural   Nd(Al2Cu)4
_chemical_formula_sum   'Nd1 Al8 Cu4'
_cell_volume   204.29413768
_cell_formula_units_Z   1
loop_
 _symmetry_equiv_pos_site_id
 _symmetry_equiv_pos_as_xyz
  1  'x, y, z'
loop_
 _atom_site_type_symbol
 _atom_site_label
 _atom_site_symmetry_multiplicity
 _atom_site_fract_x
 _atom_site_fract_y
 _atom_site_fract_z
 _atom_site_occupancy
  Nd  Nd0  1  0.00000000  0.00000000  0.00000000  1
  Al  Al1  1  0.50000002  0.77583200  0.22416806  1
  Al  Al2  1  0.72416802  0.77583200  0.77583207  1
  Al  Al3  1  0.27583201  0.22416800  0.22416802  1
  Al  Al4  1  0.50000001  0.22416800  0.77583203  1
  Al  Al5  1  0.00000001  0.34449700  0.65550303  1
  Al  Al6  1  0.00000001  0.65550300  0.34449704  1
  Al  Al7  1  0.34449701  0.65550300  0.65550305  1
  Al  Al8  1  0.65550301  0.34449700  0.34449704  1
  Cu  Cu9  1  0.50000001  0.50000000  0.00000004  1
  Cu  Cu10  1  0.50000002  1.00000000  0.50000008  1
  Cu  Cu11  1  0.00000000  0.00000000  0.50000000  1
  Cu  Cu12  1  0.00000001  0.50000000  0.00000003  1
