# generated using pymatgen
data_Dy(TiAl3)3
_symmetry_space_group_name_H-M   'P 1'
_cell_length_a   5.40409994
_cell_length_b   6.75189447
_cell_length_c   6.75189447
_cell_angle_alpha   80.78421783
_cell_angle_beta   66.40985870
_cell_angle_gamma   66.40985870
_symmetry_Int_Tables_number   1
_chemical_formula_structural   Dy(TiAl3)3
_chemical_formula_sum   'Dy1 Ti3 Al9'
_cell_volume   206.90680699
_cell_formula_units_Z   1
loop_
 _symmetry_equiv_pos_site_id
 _symmetry_equiv_pos_as_xyz
  1  'x, y, z'
loop_
 _atom_site_type_symbol
 _atom_site_label
 _atom_site_symmetry_multiplicity
 _atom_site_fract_x
 _atom_site_fract_y
 _atom_site_fract_z
 _atom_site_occupancy
  Dy  Dy0  1  0.00000000  0.00000000  0.00000000  1
  Ti  Ti1  1  0.50000000  0.50000001  0.00000003  1
  Al  Al2  1  0.00000000  0.50000001  0.00000002  1
  Ti  Ti3  1  0.00000000  0.00000000  0.50000002  1
  Ti  Ti4  1  0.50000000  0.00000000  0.50000003  1
  Al  Al5  1  0.00000000  0.35258101  0.64741904  1
  Al  Al6  1  0.00000001  0.64741901  0.35258104  1
  Al  Al7  1  0.35258101  0.64741901  0.64741906  1
  Al  Al8  1  0.64741900  0.35258101  0.35258104  1
  Al  Al9  1  0.50000001  0.78189002  0.21811005  1
  Al  Al10  1  0.50000000  0.21811000  0.78189004  1
  Al  Al11  1  0.28189000  0.21811000  0.21811002  1
  Al  Al12  1  0.71811001  0.78189002  0.78189007  1
