# generated using pymatgen
data_CaVO3
_symmetry_space_group_name_H-M   'P 1'
_cell_length_a   6.23939657
_cell_length_b   7.39894056
_cell_length_c   7.39894056
_cell_angle_alpha   84.13079071
_cell_angle_beta   74.76614380
_cell_angle_gamma   74.76614380
_symmetry_Int_Tables_number   1
_chemical_formula_structural   CaVO3
_chemical_formula_sum   'Ca4 V4 O12'
_cell_volume   317.78612403
_cell_formula_units_Z   4
loop_
 _symmetry_equiv_pos_site_id
 _symmetry_equiv_pos_as_xyz
  1  'x, y, z'
loop_
 _atom_site_type_symbol
 _atom_site_label
 _atom_site_symmetry_multiplicity
 _atom_site_fract_x
 _atom_site_fract_y
 _atom_site_fract_z
 _atom_site_occupancy
  Ca  Ca0  1  0.75000000  0.30421999  0.69578000  1
  Ca  Ca1  1  0.25000000  0.08616000  0.91383999  1
  Ca  Ca2  1  0.75000002  0.91383998  0.08616002  1
  Ca  Ca3  1  0.25000002  0.69577998  0.30422000  1
  V  V4  1  0.73039001  0.37810999  0.20013001  1
  V  V5  1  0.23039000  0.20012999  0.37811000  1
  V  V6  1  0.76961002  0.79986998  0.62189001  1
  V  V7  1  0.26961001  0.62188998  0.79986999  1
  O  O8  1  0.44467001  0.35171999  0.34642000  1
  O  O9  1  0.66201002  0.99245997  0.77228000  1
  O  O10  1  0.94467000  0.34641999  0.35172001  1
  O  O11  1  0.05533002  0.65357998  0.64827999  1
  O  O12  1  0.82975002  0.87843998  0.38932001  1
  O  O13  1  0.16201002  0.77227998  0.99245999  1
  O  O14  1  0.55533001  0.64827998  0.65358000  1
  O  O15  1  0.83799000  0.22771999  0.00754002  1
  O  O16  1  0.33799000  0.00754000  0.22772000  1
  O  O17  1  0.32975001  0.38931999  0.87843999  1
  O  O18  1  0.17025000  0.12156000  0.61067999  1
  O  O19  1  0.67025001  0.61067998  0.12156001  1
