# generated using pymatgen
data_NaAgO2
_symmetry_space_group_name_H-M   'P 1'
_cell_length_a   4.79730177
_cell_length_b   4.79730177
_cell_length_c   6.40462637
_cell_angle_alpha   111.99455261
_cell_angle_beta   111.99455261
_cell_angle_gamma   90.00000000
_symmetry_Int_Tables_number   1
_chemical_formula_structural   NaAgO2
_chemical_formula_sum   'Na2 Ag2 O4'
_cell_volume   125.02440220
_cell_formula_units_Z   2
loop_
 _symmetry_equiv_pos_site_id
 _symmetry_equiv_pos_as_xyz
  1  'x, y, z'
loop_
 _atom_site_type_symbol
 _atom_site_label
 _atom_site_symmetry_multiplicity
 _atom_site_fract_x
 _atom_site_fract_y
 _atom_site_fract_z
 _atom_site_occupancy
  Na  Na0  1  0.75000001  0.25000000  0.49999996  1
  Na  Na1  1  0.00000000  0.00000000  0.00000000  1
  Ag  Ag2  1  0.24999997  0.75000001  0.49999995  1
  Ag  Ag3  1  0.49999999  0.50000001  -0.00000005  1
  O  O4  1  0.59487101  0.12500000  0.74999998  1
  O  O5  1  0.37499997  0.84487102  0.24999994  1
  O  O6  1  0.87500000  0.40512901  0.24999994  1
  O  O7  1  0.15512897  0.62500001  0.74999997  1
