# generated using pymatgen
data_LiMnO2
_symmetry_space_group_name_H-M   'P 1'
_cell_length_a   2.87737989
_cell_length_b   5.14186573
_cell_length_c   10.58721161
_cell_angle_alpha   97.15788269
_cell_angle_beta   90.00000000
_cell_angle_gamma   106.24822235
_symmetry_Int_Tables_number   1
_chemical_formula_structural   LiMnO2
_chemical_formula_sum   'Li4 Mn4 O8'
_cell_volume   149.11051349
_cell_formula_units_Z   4
loop_
 _symmetry_equiv_pos_site_id
 _symmetry_equiv_pos_as_xyz
  1  'x, y, z'
loop_
 _atom_site_type_symbol
 _atom_site_label
 _atom_site_symmetry_multiplicity
 _atom_site_fract_x
 _atom_site_fract_y
 _atom_site_fract_z
 _atom_site_occupancy
  Li  Li0  1  0.50000003  0.99999999  0.00000001  1
  Li  Li1  1  0.99840605  0.99681199  0.24482501  1
  Li  Li2  1  0.50000003  0.99999999  0.50000002  1
  Li  Li3  1  0.00159400  0.00318800  0.75517502  1
  Mn  Mn4  1  0.74623903  0.49247799  0.36936601  1
  Mn  Mn5  1  0.25376102  0.50752199  0.63063402  1
  Mn  Mn6  1  0.75583903  0.51167799  0.88066402  1
  Mn  Mn7  1  0.24416102  0.48832199  0.11933601  1
  O  O8  1  0.37250502  0.74500999  0.81952602  1
  O  O9  1  0.86422804  0.72845599  0.06078301  1
  O  O10  1  0.35949402  0.71898799  0.31140601  1
  O  O11  1  0.86563804  0.73127599  0.56991502  1
  O  O12  1  0.62749503  0.25499000  0.18047401  1
  O  O13  1  0.13436201  0.26872400  0.43008501  1
  O  O14  1  0.64050603  0.28101200  0.68859402  1
  O  O15  1  0.13577201  0.27154400  0.93921702  1
