# generated using pymatgen
data_Ce2Sn5Au2
_symmetry_space_group_name_H-M   'P 1'
_cell_length_a   5.56795979
_cell_length_b   5.56795979
_cell_length_c   14.26040173
_cell_angle_alpha   90.00000000
_cell_angle_beta   90.00000000
_cell_angle_gamma   119.89119720
_symmetry_Int_Tables_number   1
_chemical_formula_structural   Ce2Sn5Au2
_chemical_formula_sum   'Ce4 Sn10 Au4'
_cell_volume   383.29192987
_cell_formula_units_Z   2
loop_
 _symmetry_equiv_pos_site_id
 _symmetry_equiv_pos_as_xyz
  1  'x, y, z'
loop_
 _atom_site_type_symbol
 _atom_site_label
 _atom_site_symmetry_multiplicity
 _atom_site_fract_x
 _atom_site_fract_y
 _atom_site_fract_z
 _atom_site_occupancy
  Ce  Ce0  1  0.32108700  0.32108699  0.88519502  1
  Ce  Ce1  1  0.67891299  0.67891299  0.38519501  1
  Ce  Ce2  1  0.32108700  0.32108699  0.61480501  1
  Ce  Ce3  1  0.67891299  0.67891299  0.11480500  1
  Sn  Sn4  1  0.82864399  0.82864399  0.75000001  1
  Sn  Sn5  1  0.17135600  0.17135600  0.25000000  1
  Sn  Sn6  1  0.32930400  0.82717699  0.75000001  1
  Sn  Sn7  1  0.67069599  0.17282300  0.25000000  1
  Sn  Sn8  1  0.82717699  0.32930399  0.75000001  1
  Sn  Sn9  1  0.17282300  0.67069599  0.25000000  1
  Sn  Sn10  1  0.66358099  0.99367198  0.92354202  1
  Sn  Sn11  1  0.33641899  0.00632800  0.42354201  1
  Au  Au12  1  0.99367198  0.66358099  0.57645801  1
  Sn  Sn13  1  0.00632800  0.33641899  0.07645800  1
  Sn  Sn14  1  0.33641899  0.00632800  0.07645800  1
  Au  Au15  1  0.66358099  0.99367198  0.57645801  1
  Au  Au16  1  0.00632800  0.33641899  0.42354201  1
  Au  Au17  1  0.99367198  0.66358099  0.92354202  1
