# generated using pymatgen
data_HoGePd2
_symmetry_space_group_name_H-M   'P 1'
_cell_length_a   5.64078093
_cell_length_b   7.14160490
_cell_length_c   7.36772919
_cell_angle_alpha   90.00000000
_cell_angle_beta   90.00000000
_cell_angle_gamma   90.00000000
_symmetry_Int_Tables_number   1
_chemical_formula_structural   HoGePd2
_chemical_formula_sum   'Ho4 Ge4 Pd8'
_cell_volume   296.80328758
_cell_formula_units_Z   4
loop_
 _symmetry_equiv_pos_site_id
 _symmetry_equiv_pos_as_xyz
  1  'x, y, z'
loop_
 _atom_site_type_symbol
 _atom_site_label
 _atom_site_symmetry_multiplicity
 _atom_site_fract_x
 _atom_site_fract_y
 _atom_site_fract_z
 _atom_site_occupancy
  Ho  Ho0  1  0.35564600  0.75000001  0.02402500  1
  Ho  Ho1  1  0.14435400  0.75000001  0.52402499  1
  Ho  Ho2  1  0.64435401  0.25000000  0.97597498  1
  Ho  Ho3  1  0.85564601  0.25000000  0.47597499  1
  Ge  Ge4  1  0.64103301  0.75000001  0.37902899  1
  Ge  Ge5  1  0.85896701  0.75000001  0.87902898  1
  Ge  Ge6  1  0.35896700  0.25000000  0.62097098  1
  Ge  Ge7  1  0.14103300  0.25000000  0.12097100  1
  Pd  Pd8  1  0.91207401  0.55143401  0.18325800  1
  Pd  Pd9  1  0.58792601  0.94856601  0.68325798  1
  Pd  Pd10  1  0.08792600  0.05143400  0.81674198  1
  Pd  Pd11  1  0.41207401  0.44856601  0.31674199  1
  Pd  Pd12  1  0.08792600  0.44856601  0.81674198  1
  Pd  Pd13  1  0.41207401  0.05143400  0.31674199  1
  Pd  Pd14  1  0.91207401  0.94856601  0.18325800  1
  Pd  Pd15  1  0.58792601  0.55143401  0.68325798  1
