# generated using pymatgen
data_Ce7Co3
_symmetry_space_group_name_H-M   'P 1'
_cell_length_a   6.34759521
_cell_length_b   10.03391361
_cell_length_c   10.03391361
_cell_angle_alpha   120.00000000
_cell_angle_beta   90.00000000
_cell_angle_gamma   90.00000000
_symmetry_Int_Tables_number   1
_chemical_formula_structural   Ce7Co3
_chemical_formula_sum   'Ce14 Co6'
_cell_volume   553.45277714
_cell_formula_units_Z   2
loop_
 _symmetry_equiv_pos_site_id
 _symmetry_equiv_pos_as_xyz
  1  'x, y, z'
loop_
 _atom_site_type_symbol
 _atom_site_label
 _atom_site_symmetry_multiplicity
 _atom_site_fract_x
 _atom_site_fract_y
 _atom_site_fract_z
 _atom_site_occupancy
  Ce  Ce0  1  0.69969898  0.53951201  0.07902399  1
  Ce  Ce1  1  0.69969898  0.92097602  0.46048798  1
  Ce  Ce2  1  0.19969899  0.07902400  0.53951200  1
  Ce  Ce3  1  0.49856898  0.74751402  0.87375698  1
  Ce  Ce4  1  0.19969899  0.46048801  0.53951199  1
  Ce  Ce5  1  0.99856897  0.25248601  0.12624299  1
  Ce  Ce6  1  0.71404598  0.33333334  0.66666666  1
  Ce  Ce7  1  0.99856897  0.87375702  0.74751398  1
  Ce  Ce8  1  0.69969898  0.53951201  0.46048799  1
  Ce  Ce9  1  0.19969899  0.46048801  0.92097599  1
  Ce  Ce10  1  0.49856898  0.12624300  0.25248600  1
  Ce  Ce11  1  0.99856897  0.87375702  0.12624298  1
  Ce  Ce12  1  0.49856898  0.12624300  0.87375700  1
  Ce  Ce13  1  0.21404599  0.66666668  0.33333332  1
  Co  Co14  1  0.94971697  0.18735800  0.81264200  1
  Co  Co15  1  0.94971697  0.18735800  0.37471600  1
  Co  Co16  1  0.44971698  0.37471601  0.18735799  1
  Co  Co17  1  0.94971697  0.62528402  0.81264199  1
  Co  Co18  1  0.44971698  0.81264202  0.18735798  1
  Co  Co19  1  0.44971698  0.81264202  0.62528398  1
