# generated using pymatgen
data_Li2Fe(SiN2)3
_symmetry_space_group_name_H-M   'P 1'
_cell_length_a   5.10168219
_cell_length_b   5.56329966
_cell_length_c   5.56329966
_cell_angle_alpha   119.84624481
_cell_angle_beta   90.00000000
_cell_angle_gamma   90.00000000
_symmetry_Int_Tables_number   1
_chemical_formula_structural   Li2Fe(SiN2)3
_chemical_formula_sum   'Li2 Fe1 Si3 N6'
_cell_volume   136.95557783
_cell_formula_units_Z   1
loop_
 _symmetry_equiv_pos_site_id
 _symmetry_equiv_pos_as_xyz
  1  'x, y, z'
loop_
 _atom_site_type_symbol
 _atom_site_label
 _atom_site_symmetry_multiplicity
 _atom_site_fract_x
 _atom_site_fract_y
 _atom_site_fract_z
 _atom_site_occupancy
  Li  Li0  1  0.51167898  0.65850601  0.65850604  1
  Li  Li1  1  0.01167900  0.34149401  0.34149402  1
  Fe  Fe2  1  0.50734498  0.00328600  0.32993199  1
  Si  Si3  1  0.50734498  0.32993201  0.00328602  1
  Si  Si4  1  0.00734500  0.99671402  0.67006806  1
  Si  Si5  1  0.00734500  0.67006801  0.99671403  1
  N  N6  1  0.13863699  0.96144102  0.33558206  1
  N  N7  1  0.13863699  0.33558201  0.96144101  1
  N  N8  1  0.63863698  0.03855900  0.66441799  1
  N  N9  1  0.63863698  0.66441801  0.03855905  1
  N  N10  1  0.10835400  0.70150901  0.70150904  1
  N  N11  1  0.60835398  0.29849101  0.29849102  1
