# generated using pymatgen
data_NdGePd2
_symmetry_space_group_name_H-M   'P 1'
_cell_length_a   5.92002487
_cell_length_b   7.11245584
_cell_length_c   7.67602491
_cell_angle_alpha   90.00000000
_cell_angle_beta   90.00000000
_cell_angle_gamma   90.00000000
_symmetry_Int_Tables_number   1
_chemical_formula_structural   NdGePd2
_chemical_formula_sum   'Nd4 Ge4 Pd8'
_cell_volume   323.20605641
_cell_formula_units_Z   4
loop_
 _symmetry_equiv_pos_site_id
 _symmetry_equiv_pos_as_xyz
  1  'x, y, z'
loop_
 _atom_site_type_symbol
 _atom_site_label
 _atom_site_symmetry_multiplicity
 _atom_site_fract_x
 _atom_site_fract_y
 _atom_site_fract_z
 _atom_site_occupancy
  Nd  Nd0  1  0.34819301  0.75000002  0.03322500  1
  Nd  Nd1  1  0.15180700  0.75000002  0.53322501  1
  Nd  Nd2  1  0.65180701  0.25000001  0.96677501  1
  Nd  Nd3  1  0.84819302  0.25000001  0.46677501  1
  Ge  Ge4  1  0.65204501  0.75000002  0.37923800  1
  Ge  Ge5  1  0.84795502  0.75000002  0.87923801  1
  Ge  Ge6  1  0.34795501  0.25000001  0.62076201  1
  Ge  Ge7  1  0.15204500  0.25000001  0.12076200  1
  Pd  Pd8  1  0.91221402  0.55305001  0.17675600  1
  Pd  Pd9  1  0.58778601  0.94695002  0.67675601  1
  Pd  Pd10  1  0.08778600  0.05305000  0.82324401  1
  Pd  Pd11  1  0.41221401  0.44695001  0.32324400  1
  Pd  Pd12  1  0.08778600  0.44695001  0.82324401  1
  Pd  Pd13  1  0.41221401  0.05305000  0.32324400  1
  Pd  Pd14  1  0.91221402  0.94695002  0.17675600  1
  Pd  Pd15  1  0.58778601  0.55305001  0.67675601  1
