# generated using pymatgen
data_TmFe12
_symmetry_space_group_name_H-M   'P 1'
_cell_length_a   4.69915199
_cell_length_b   6.46939135
_cell_length_c   6.46939135
_cell_angle_alpha   82.26988220
_cell_angle_beta   68.70417023
_cell_angle_gamma   68.70417023
_symmetry_Int_Tables_number   1
_chemical_formula_structural   TmFe12
_chemical_formula_sum   'Tm1 Fe12'
_cell_volume   170.73125866
_cell_formula_units_Z   1
loop_
 _symmetry_equiv_pos_site_id
 _symmetry_equiv_pos_as_xyz
  1  'x, y, z'
loop_
 _atom_site_type_symbol
 _atom_site_label
 _atom_site_symmetry_multiplicity
 _atom_site_fract_x
 _atom_site_fract_y
 _atom_site_fract_z
 _atom_site_occupancy
  Tm  Tm0  1  0.00000000  0.00000000  0.00000000  1
  Fe  Fe1  1  0.50000010  0.78392496  0.21607495  1
  Fe  Fe2  1  0.50000002  0.21607499  0.78392499  1
  Fe  Fe3  1  0.72475409  0.77524596  0.77524595  1
  Fe  Fe4  1  0.27524603  0.22475399  0.22475399  1
  Fe  Fe5  1  0.99999998  0.00000000  0.50000004  1
  Fe  Fe6  1  0.49999999  0.00000000  0.50000001  1
  Fe  Fe7  1  0.50000006  0.49999998  -0.00000002  1
  Fe  Fe8  1  1.00000005  0.49999998  0.99999998  1
  Fe  Fe9  1  1.00000003  0.36061798  0.63938200  1
  Fe  Fe10  1  0.00000009  0.63938197  0.36061793  1
  Fe  Fe11  1  0.64069004  0.35930998  0.35930999  1
  Fe  Fe12  1  0.35931008  0.64068997  0.64068995  1
