# generated using pymatgen
data_MnCu3(RuO3)4
_symmetry_space_group_name_H-M   'P 1'
_cell_length_a   6.40557957
_cell_length_b   6.40557957
_cell_length_c   6.40557957
_cell_angle_alpha   109.47122192
_cell_angle_beta   109.47122192
_cell_angle_gamma   109.47122192
_symmetry_Int_Tables_number   1
_chemical_formula_structural   MnCu3(RuO3)4
_chemical_formula_sum   'Mn1 Cu3 Ru4 O12'
_cell_volume   202.32678425
_cell_formula_units_Z   1
loop_
 _symmetry_equiv_pos_site_id
 _symmetry_equiv_pos_as_xyz
  1  'x, y, z'
loop_
 _atom_site_type_symbol
 _atom_site_label
 _atom_site_symmetry_multiplicity
 _atom_site_fract_x
 _atom_site_fract_y
 _atom_site_fract_z
 _atom_site_occupancy
  Mn  Mn0  1  0.00000000  0.00000000  0.00000000  1
  Cu  Cu1  1  0.49999999  0.00000000  0.00000001  1
  Cu  Cu2  1  0.00000000  0.00000000  0.49999999  1
  Cu  Cu3  1  1.00000002  0.50000001  0.00000005  1
  Ru  Ru4  1  0.50000002  0.50000001  0.50000003  1
  Ru  Ru5  1  0.00000003  0.50000001  0.50000002  1
  Ru  Ru6  1  0.50000002  0.50000001  1.00000002  1
  Ru  Ru7  1  0.50000006  1.00000002  0.50000006  1
  O  O8  1  0.47077900  0.16896500  0.30181501  1
  O  O9  1  0.52922104  0.83103501  0.69818504  1
  O  O10  1  0.13285005  0.83103601  0.30181404  1
  O  O11  1  0.86715000  0.16896400  0.69818601  1
  O  O12  1  0.16896404  0.69818501  0.86715002  1
  O  O13  1  0.83103601  0.30181501  0.13285003  1
  O  O14  1  0.83103603  0.69818601  0.52922205  1
  O  O15  1  0.16896402  0.30181401  0.47077801  1
  O  O16  1  0.30181400  0.13285000  0.83103500  1
  O  O17  1  0.69818604  0.86715001  0.16896506  1
  O  O18  1  0.69818602  0.52922201  0.83103603  1
  O  O19  1  0.30181403  0.47077801  0.16896403  1
