# generated using pymatgen
data_Nd2S3
_symmetry_space_group_name_H-M   'P 1'
_cell_length_a   4.07603216
_cell_length_b   11.35695934
_cell_length_c   11.40593147
_cell_angle_alpha   90.00000000
_cell_angle_beta   90.00000000
_cell_angle_gamma   90.00000000
_symmetry_Int_Tables_number   1
_chemical_formula_structural   Nd2S3
_chemical_formula_sum   'Nd8 S12'
_cell_volume   527.99575534
_cell_formula_units_Z   4
loop_
 _symmetry_equiv_pos_site_id
 _symmetry_equiv_pos_as_xyz
  1  'x, y, z'
loop_
 _atom_site_type_symbol
 _atom_site_label
 _atom_site_symmetry_multiplicity
 _atom_site_fract_x
 _atom_site_fract_y
 _atom_site_fract_z
 _atom_site_occupancy
  Nd  Nd0  1  0.24999999  0.18509099  0.47960998  1
  Nd  Nd1  1  0.24999999  0.31490899  0.97960996  1
  Nd  Nd2  1  0.74999997  0.81490898  0.52038998  1
  Nd  Nd3  1  0.74999997  0.68509098  0.02039000  1
  Nd  Nd4  1  0.74999997  0.48641399  0.69936397  1
  Nd  Nd5  1  0.74999997  0.01358600  0.19936399  1
  Nd  Nd6  1  0.24999999  0.51358598  0.30063599  1
  Nd  Nd7  1  0.24999999  0.98641397  0.80063597  1
  S  S8  1  0.24999999  0.62094698  0.55108298  1
  S  S9  1  0.24999999  0.87905297  0.05108300  1
  S  S10  1  0.74999997  0.37905299  0.44891698  1
  S  S11  1  0.74999997  0.12094700  0.94891696  1
  S  S12  1  0.74999997  0.05655600  0.62301597  1
  S  S13  1  0.74999997  0.44344399  0.12301599  1
  S  S14  1  0.24999999  0.94344397  0.37698398  1
  S  S15  1  0.24999999  0.55655598  0.87698396  1
  S  S16  1  0.24999999  0.29312899  0.72029897  1
  S  S17  1  0.24999999  0.20687099  0.22029899  1
  S  S18  1  0.74999997  0.70687098  0.27970099  1
  S  S19  1  0.74999997  0.79312898  0.77970097  1
