# generated using pymatgen
data_GdB2Rh3
_symmetry_space_group_name_H-M   'P 1'
_cell_length_a   3.04049206
_cell_length_b   5.51508808
_cell_length_c   5.51508760
_cell_angle_alpha   120.00000000
_cell_angle_beta   90.00000000
_cell_angle_gamma   90.00000000
_symmetry_Int_Tables_number   1
_chemical_formula_structural   GdB2Rh3
_chemical_formula_sum   'Gd1 B2 Rh3'
_cell_volume   80.09019911
_cell_formula_units_Z   1
loop_
 _symmetry_equiv_pos_site_id
 _symmetry_equiv_pos_as_xyz
  1  'x, y, z'
loop_
 _atom_site_type_symbol
 _atom_site_label
 _atom_site_symmetry_multiplicity
 _atom_site_fract_x
 _atom_site_fract_y
 _atom_site_fract_z
 _atom_site_occupancy
  Gd  Gd0  1  0.00000000  0.00000000  0.00000000  1
  B  B1  1  -0.00000000  0.66666665  0.33333332  1
  B  B2  1  -0.00000000  0.33333332  0.66666667  1
  Rh  Rh3  1  0.49999999  0.49999998  0.50000000  1
  Rh  Rh4  1  0.49999999  0.49999998  -0.00000002  1
  Rh  Rh5  1  0.49999999  0.99999997  0.49999998  1
