# generated using pymatgen
data_KU(PS3)2
_symmetry_space_group_name_H-M   'P 1'
_cell_length_a   6.76063395
_cell_length_b   7.87765217
_cell_length_c   9.90608406
_cell_angle_alpha   90.00000000
_cell_angle_beta   92.39244843
_cell_angle_gamma   90.00000000
_symmetry_Int_Tables_number   1
_chemical_formula_structural   KU(PS3)2
_chemical_formula_sum   'K2 U2 P4 S12'
_cell_volume   527.11759092
_cell_formula_units_Z   2
loop_
 _symmetry_equiv_pos_site_id
 _symmetry_equiv_pos_as_xyz
  1  'x, y, z'
loop_
 _atom_site_type_symbol
 _atom_site_label
 _atom_site_symmetry_multiplicity
 _atom_site_fract_x
 _atom_site_fract_y
 _atom_site_fract_z
 _atom_site_occupancy
  K  K0  1  0.69473701  0.44574899  0.50755299  1
  K  K1  1  0.30526300  0.94574898  0.49244699  1
  U  U2  1  0.81460701  0.73689198  0.98196998  1
  U  U3  1  0.18539300  0.23689199  0.01803000  1
  P  P4  1  0.79565201  0.93273998  0.69808499  1
  P  P5  1  0.30640100  0.64907099  0.17135000  1
  P  P6  1  0.69359901  0.14907100  0.82864998  1
  P  P7  1  0.20434800  0.43273999  0.30191499  1
  S  S8  1  0.95004501  0.35913699  0.19256101  1
  S  S9  1  0.67308401  0.03527400  0.01832701  1
  S  S10  1  0.40805000  0.24931499  0.26911600  1
  S  S11  1  0.32691600  0.53527399  0.98167297  1
  S  S12  1  0.09313200  0.83627298  0.17010300  1
  S  S13  1  0.90686801  0.33627299  0.82989699  1
  S  S14  1  0.59195001  0.74931498  0.73088399  1
  S  S15  1  0.04995500  0.85913698  0.80743897  1
  S  S16  1  0.17412600  0.51371699  0.48835899  1
  S  S17  1  0.56670201  0.73498298  0.24722600  1
  S  S18  1  0.82587401  0.01371700  0.51164100  1
  S  S19  1  0.43329800  0.23498299  0.75277398  1
