# generated using pymatgen
data_Sc2PdPt9
_symmetry_space_group_name_H-M   'P 1'
_cell_length_a   4.03498983
_cell_length_b   5.53871918
_cell_length_c   8.24127102
_cell_angle_alpha   90.00000000
_cell_angle_beta   90.00000000
_cell_angle_gamma   90.00000000
_symmetry_Int_Tables_number   1
_chemical_formula_structural   Sc2PdPt9
_chemical_formula_sum   'Sc2 Pd1 Pt9'
_cell_volume   184.18149231
_cell_formula_units_Z   1
loop_
 _symmetry_equiv_pos_site_id
 _symmetry_equiv_pos_as_xyz
  1  'x, y, z'
loop_
 _atom_site_type_symbol
 _atom_site_label
 _atom_site_symmetry_multiplicity
 _atom_site_fract_x
 _atom_site_fract_y
 _atom_site_fract_z
 _atom_site_occupancy
  Sc  Sc0  1  0.75000003  0.34831699  0.59647600  1
  Sc  Sc1  1  0.75000003  0.84831697  0.90352400  1
  Pd  Pd2  1  0.25000001  0.65168298  0.40352400  1
  Pt  Pt3  1  0.25000001  0.15168300  0.09647600  1
  Pt  Pt4  1  0.75000003  0.35561799  0.92498700  1
  Pt  Pt5  1  0.75000003  0.85561797  0.57501300  1
  Pt  Pt6  1  0.25000001  0.64438198  0.07501300  1
  Pt  Pt7  1  0.25000001  0.14438200  0.42498700  1
  Pt  Pt8  1  0.75000003  0.40937199  0.26480600  1
  Pt  Pt9  1  0.75000003  0.90937197  0.23519400  1
  Pt  Pt10  1  0.25000001  0.59062798  0.73519400  1
  Pt  Pt11  1  0.25000001  0.09062800  0.76480600  1
