# generated using pymatgen
data_MgIn5S8
_symmetry_space_group_name_H-M   'P 1'
_cell_length_a   7.45037174
_cell_length_b   7.45037174
_cell_length_c   7.45435238
_cell_angle_alpha   60.01766205
_cell_angle_beta   60.01766205
_cell_angle_gamma   60.00000381
_symmetry_Int_Tables_number   1
_chemical_formula_structural   MgIn5S8
_chemical_formula_sum   'Mg1 In5 S8'
_cell_volume   292.66225013
_cell_formula_units_Z   1
loop_
 _symmetry_equiv_pos_site_id
 _symmetry_equiv_pos_as_xyz
  1  'x, y, z'
loop_
 _atom_site_type_symbol
 _atom_site_label
 _atom_site_symmetry_multiplicity
 _atom_site_fract_x
 _atom_site_fract_y
 _atom_site_fract_z
 _atom_site_occupancy
  Mg  Mg0  1  0.50000002  0.49999999  0.49999997  1
  In  In1  1  0.00000002  0.49999999  -0.00000001  1
  In  In2  1  0.50000000  0.00000000  -0.00000001  1
  In  In3  1  0.50000002  0.49999999  -0.00000002  1
  In  In4  1  0.11164800  0.11164800  0.66505598  1
  In  In5  1  0.88835203  0.88835199  0.33494396  1
  S  S6  1  0.27911102  0.74041499  0.24005898  1
  S  S7  1  0.74041501  0.27911100  0.24005898  1
  S  S8  1  0.74041502  0.74041499  0.24005897  1
  S  S9  1  0.72088901  0.25958500  0.75994097  1
  S  S10  1  0.25958502  0.72088899  0.75994097  1
  S  S11  1  0.25958501  0.25958500  0.75994098  1
  S  S12  1  0.74468802  0.74468799  0.76593596  1
  S  S13  1  0.25531201  0.25531200  0.23406399  1
