# generated using pymatgen
data_Ga2Fe5
_symmetry_space_group_name_H-M   'P 1'
_cell_length_a   4.96915388
_cell_length_b   4.96915388
_cell_length_c   8.73123932
_cell_angle_alpha   90.00000000
_cell_angle_beta   90.00000000
_cell_angle_gamma   98.36287689
_symmetry_Int_Tables_number   1
_chemical_formula_structural   Ga2Fe5
_chemical_formula_sum   'Ga4 Fe10'
_cell_volume   213.30356101
_cell_formula_units_Z   2
loop_
 _symmetry_equiv_pos_site_id
 _symmetry_equiv_pos_as_xyz
  1  'x, y, z'
loop_
 _atom_site_type_symbol
 _atom_site_label
 _atom_site_symmetry_multiplicity
 _atom_site_fract_x
 _atom_site_fract_y
 _atom_site_fract_z
 _atom_site_occupancy
  Fe  Fe0  1  0.53948800  0.53948801  0.24999999  1
  Fe  Fe1  1  0.60518198  0.96805202  0.74999997  1
  Fe  Fe2  1  0.02982099  0.39219201  0.24999999  1
  Ga  Ga3  1  0.39219201  0.02982100  0.24999999  1
  Fe  Fe4  1  0.96805201  0.60518201  0.74999997  1
  Fe  Fe5  1  0.32690299  0.67606902  0.50196398  1
  Fe  Fe6  1  0.32690299  0.67606902  0.99803596  1
  Fe  Fe7  1  0.67606901  0.32690301  0.50196398  1
  Ga  Ga8  1  0.67606901  0.32690301  0.99803596  1
  Fe  Fe9  1  0.14373900  0.14373900  0.59913798  1
  Ga  Ga10  1  0.85719499  0.85719502  0.40060199  1
  Fe  Fe11  1  0.14373900  0.14373900  0.90086197  1
  Ga  Ga12  1  0.85719499  0.85719502  0.09939800  1
  Fe  Fe13  1  0.45745400  0.45745401  0.74999997  1
