# generated using pymatgen
data_Ti2WS3
_symmetry_space_group_name_H-M   'P 1'
_cell_length_a   4.06909418
_cell_length_b   4.42610216
_cell_length_c   12.25790977
_cell_angle_alpha   90.00000000
_cell_angle_beta   90.00000000
_cell_angle_gamma   90.00000000
_symmetry_Int_Tables_number   1
_chemical_formula_structural   Ti2WS3
_chemical_formula_sum   'Ti4 W2 S6'
_cell_volume   220.76773207
_cell_formula_units_Z   2
loop_
 _symmetry_equiv_pos_site_id
 _symmetry_equiv_pos_as_xyz
  1  'x, y, z'
loop_
 _atom_site_type_symbol
 _atom_site_label
 _atom_site_symmetry_multiplicity
 _atom_site_fract_x
 _atom_site_fract_y
 _atom_site_fract_z
 _atom_site_occupancy
  Ti  Ti0  1  0.24999999  0.43275098  0.63672301  1
  Ti  Ti1  1  0.24999999  0.06724900  0.13672300  1
  Ti  Ti2  1  0.74999997  0.56724898  0.36327701  1
  Ti  Ti3  1  0.74999997  0.93275097  0.86327702  1
  W  W4  1  0.24999999  0.79589697  0.96181702  1
  S  S5  1  0.24999999  0.70410297  0.46181701  1
  W  W6  1  0.74999997  0.20410299  0.03818300  1
  S  S7  1  0.74999997  0.29589699  0.53818301  1
  S  S8  1  0.24999999  0.56363498  0.22866000  1
  S  S9  1  0.24999999  0.93636497  0.72866001  1
  S  S10  1  0.74999997  0.43636498  0.77134001  1
  S  S11  1  0.74999997  0.06363500  0.27134000  1
