# generated using pymatgen
data_BaLiCu3F6
_symmetry_space_group_name_H-M   'P 1'
_cell_length_a   5.56004000
_cell_length_b   5.56004000
_cell_length_c   8.20800686
_cell_angle_alpha   109.79745483
_cell_angle_beta   109.79745483
_cell_angle_gamma   90.00000000
_symmetry_Int_Tables_number   1
_chemical_formula_structural   BaLiCu3F6
_chemical_formula_sum   'Ba1 Li1 Cu3 F6'
_cell_volume   222.74068667
_cell_formula_units_Z   1
loop_
 _symmetry_equiv_pos_site_id
 _symmetry_equiv_pos_as_xyz
  1  'x, y, z'
loop_
 _atom_site_type_symbol
 _atom_site_label
 _atom_site_symmetry_multiplicity
 _atom_site_fract_x
 _atom_site_fract_y
 _atom_site_fract_z
 _atom_site_occupancy
  Ba  Ba0  1  0.63840102  0.63840101  0.27680204  1
  Li  Li1  1  0.36159901  0.36159901  0.72319805  1
  Cu  Cu2  1  0.00000000  0.00000000  0.00000000  1
  Cu  Cu3  1  0.50000001  0.00000000  0.00000001  1
  Cu  Cu4  1  0.00000001  0.50000001  0.00000001  1
  F  F5  1  0.25000002  0.75000001  0.50000004  1
  F  F6  1  0.75000001  0.25000000  0.50000004  1
  F  F7  1  0.24434601  0.24434600  0.00000001  1
  F  F8  1  0.75565401  0.24434600  0.00000002  1
  F  F9  1  0.75565403  0.75565401  0.00000004  1
  F  F10  1  0.24434602  0.75565401  0.00000003  1
