# generated using pymatgen
data_Zr2Al3Cu
_symmetry_space_group_name_H-M   'P 1'
_cell_length_a   5.14932919
_cell_length_b   5.14932919
_cell_length_c   5.14933014
_cell_angle_alpha   61.54165268
_cell_angle_beta   61.54165268
_cell_angle_gamma   61.54166031
_symmetry_Int_Tables_number   1
_chemical_formula_structural   Zr2Al3Cu
_chemical_formula_sum   'Zr2 Al3 Cu1'
_cell_volume   99.88675038
_cell_formula_units_Z   1
loop_
 _symmetry_equiv_pos_site_id
 _symmetry_equiv_pos_as_xyz
  1  'x, y, z'
loop_
 _atom_site_type_symbol
 _atom_site_label
 _atom_site_symmetry_multiplicity
 _atom_site_fract_x
 _atom_site_fract_y
 _atom_site_fract_z
 _atom_site_occupancy
  Zr  Zr0  1  0.87570898  0.87570897  0.87570901  1
  Zr  Zr1  1  0.12429100  0.12429100  0.12429100  1
  Al  Al2  1  0.49999998  0.00000000  0.49999999  1
  Al  Al3  1  0.49999999  0.49999998  0.00000002  1
  Al  Al4  1  0.00000001  0.49999998  0.49999999  1
  Cu  Cu5  1  0.49999999  0.49999998  0.50000000  1
