# generated using pymatgen
data_DyCo12
_symmetry_space_group_name_H-M   'P 1'
_cell_length_a   4.72366285
_cell_length_b   6.37099457
_cell_length_c   6.37099457
_cell_angle_alpha   82.10080719
_cell_angle_beta   68.24020386
_cell_angle_gamma   68.24020386
_symmetry_Int_Tables_number   1
_chemical_formula_structural   DyCo12
_chemical_formula_sum   'Dy1 Co12'
_cell_volume   165.38169789
_cell_formula_units_Z   1
loop_
 _symmetry_equiv_pos_site_id
 _symmetry_equiv_pos_as_xyz
  1  'x, y, z'
loop_
 _atom_site_type_symbol
 _atom_site_label
 _atom_site_symmetry_multiplicity
 _atom_site_fract_x
 _atom_site_fract_y
 _atom_site_fract_z
 _atom_site_occupancy
  Dy  Dy0  1  0.00000000  0.00000000  0.00000000  1
  Co  Co1  1  0.50000003  0.23313000  0.76686998  1
  Co  Co2  1  0.00000000  0.00000000  0.49999999  1
  Co  Co3  1  0.00000002  0.50000001  -0.00000000  1
  Co  Co4  1  0.50000004  0.50000001  -0.00000001  1
  Co  Co5  1  0.50000002  0.00000000  0.49999999  1
  Co  Co6  1  0.00000001  0.36695401  0.63304599  1
  Co  Co7  1  0.36695404  0.63304601  0.63304599  1
  Co  Co8  1  0.63304604  0.36695401  0.36695399  1
  Co  Co9  1  0.00000002  0.63304601  0.36695399  1
  Co  Co10  1  0.50000005  0.76687001  0.23312999  1
  Co  Co11  1  0.26687002  0.23313000  0.23312999  1
  Co  Co12  1  0.73313005  0.76687001  0.76686998  1
