# generated using pymatgen
data_Ti2CoSi3
_symmetry_space_group_name_H-M   'P 1'
_cell_length_a   4.85911560
_cell_length_b   4.85911560
_cell_length_c   4.85911560
_cell_angle_alpha   105.02384186
_cell_angle_beta   105.02384186
_cell_angle_gamma   118.78720856
_symmetry_Int_Tables_number   1
_chemical_formula_structural   Ti2CoSi3
_chemical_formula_sum   'Ti2 Co1 Si3'
_cell_volume   86.54170640
_cell_formula_units_Z   1
loop_
 _symmetry_equiv_pos_site_id
 _symmetry_equiv_pos_as_xyz
  1  'x, y, z'
loop_
 _atom_site_type_symbol
 _atom_site_label
 _atom_site_symmetry_multiplicity
 _atom_site_fract_x
 _atom_site_fract_y
 _atom_site_fract_z
 _atom_site_occupancy
  Ti  Ti0  1  0.25000000  0.25000000  0.99999999  1
  Ti  Ti1  1  0.74999999  0.74999999  0.99999996  1
  Co  Co2  1  0.34303400  0.15696600  0.49999999  1
  Si  Si3  1  0.65696598  0.84303399  0.49999995  1
  Si  Si4  1  0.15696599  0.65696599  0.81393198  1
  Si  Si5  1  0.84303400  0.34303400  0.18606796  1
