# generated using pymatgen
data_Li2Mn2Zn(CoO4)3
_symmetry_space_group_name_H-M   'P 1'
_cell_length_a   5.09103012
_cell_length_b   6.42081499
_cell_length_c   6.42081499
_cell_angle_alpha   83.87081909
_cell_angle_beta   84.76824951
_cell_angle_gamma   84.76824951
_symmetry_Int_Tables_number   1
_chemical_formula_structural   Li2Mn2Zn(CoO4)3
_chemical_formula_sum   'Li2 Mn2 Zn1 Co3 O12'
_cell_volume   207.11373718
_cell_formula_units_Z   1
loop_
 _symmetry_equiv_pos_site_id
 _symmetry_equiv_pos_as_xyz
  1  'x, y, z'
loop_
 _atom_site_type_symbol
 _atom_site_label
 _atom_site_symmetry_multiplicity
 _atom_site_fract_x
 _atom_site_fract_y
 _atom_site_fract_z
 _atom_site_occupancy
  Li  Li0  1  0.80119797  0.41161901  0.21898801  1
  Li  Li1  1  0.30119799  0.21898801  0.41161902  1
  Mn  Mn2  1  0.69880196  0.78101202  0.58838104  1
  Mn  Mn3  1  0.19880197  0.58838101  0.78101205  1
  Zn  Zn4  1  0.74999995  0.91142902  0.08857103  1
  Co  Co5  1  0.24999996  0.74591902  0.25408104  1
  Co  Co6  1  0.74999998  0.25408101  0.74591902  1
  Co  Co7  1  0.24999999  0.08857100  0.91142902  1
  O  O8  1  0.89246398  0.18363600  0.01894299  1
  O  O9  1  0.59191496  0.66685602  0.12971202  1
  O  O10  1  0.39246399  0.01894300  0.18363600  1
  O  O11  1  0.15230598  0.48022201  0.26529203  1
  O  O12  1  0.65230598  0.26529201  0.48022201  1
  O  O13  1  0.90808495  0.87028802  0.33314403  1
  O  O14  1  0.09191499  0.12971200  0.66685602  1
  O  O15  1  0.34769396  0.73470802  0.51977804  1
  O  O16  1  0.84769397  0.51977801  0.73470803  1
  O  O17  1  0.60753595  0.98105702  0.81636406  1
  O  O18  1  0.40808498  0.33314401  0.87028803  1
  O  O19  1  0.10753596  0.81636402  0.98105707  1
