# generated using pymatgen
data_Ce2Fe
_symmetry_space_group_name_H-M   'P 1'
_cell_length_a   7.67030764
_cell_length_b   7.67030764
_cell_length_c   7.67030811
_cell_angle_alpha   71.95091248
_cell_angle_beta   71.95091248
_cell_angle_gamma   71.95091248
_symmetry_Int_Tables_number   1
_chemical_formula_structural   Ce2Fe
_chemical_formula_sum   'Ce10 Fe5'
_cell_volume   396.37455881
_cell_formula_units_Z   5
loop_
 _symmetry_equiv_pos_site_id
 _symmetry_equiv_pos_as_xyz
  1  'x, y, z'
loop_
 _atom_site_type_symbol
 _atom_site_label
 _atom_site_symmetry_multiplicity
 _atom_site_fract_x
 _atom_site_fract_y
 _atom_site_fract_z
 _atom_site_occupancy
  Ce  Ce0  1  0.00000000  0.00000000  0.00000000  1
  Ce  Ce1  1  0.20557001  0.20557000  0.20556998  1
  Ce  Ce2  1  0.79443005  0.79443000  0.79442991  1
  Ce  Ce3  1  0.39252404  0.66803100  0.15980394  1
  Ce  Ce4  1  0.66803102  0.15980400  0.39252396  1
  Ce  Ce5  1  0.15980402  0.39252500  0.66803096  1
  Ce  Ce6  1  0.60747602  0.33196900  0.84019595  1
  Ce  Ce7  1  0.33196905  0.84019600  0.60747593  1
  Ce  Ce8  1  0.84019604  0.60747600  0.33196893  1
  Ce  Ce9  1  0.04225104  0.84670200  0.41133795  1
  Fe  Fe10  1  0.84670203  0.41133800  0.04225094  1
  Fe  Fe11  1  0.41133801  0.04225100  0.84670197  1
  Fe  Fe12  1  0.95774902  0.15329800  0.58866194  1
  Fe  Fe13  1  0.15329803  0.58866200  0.95774895  1
  Fe  Fe14  1  0.58866205  0.95774900  0.15329792  1
