# generated using pymatgen
data_La3Ag4Pb
_symmetry_space_group_name_H-M   'P 1'
_cell_length_a   5.07901001
_cell_length_b   5.07901049
_cell_length_c   10.16318798
_cell_angle_alpha   90.00000000
_cell_angle_beta   90.00000000
_cell_angle_gamma   120.00000000
_symmetry_Int_Tables_number   1
_chemical_formula_structural   La3Ag4Pb
_chemical_formula_sum   'La3 Ag4 Pb1'
_cell_volume   227.04856867
_cell_formula_units_Z   1
loop_
 _symmetry_equiv_pos_site_id
 _symmetry_equiv_pos_as_xyz
  1  'x, y, z'
loop_
 _atom_site_type_symbol
 _atom_site_label
 _atom_site_symmetry_multiplicity
 _atom_site_fract_x
 _atom_site_fract_y
 _atom_site_fract_z
 _atom_site_occupancy
  La  La0  1  0.33333336  0.66666665  0.41848800  1
  La  La1  1  0.66666668  0.33333333  0.91848800  1
  La  La2  1  0.33333336  0.66666665  0.08151200  1
  Ag  Ag3  1  0.66666668  0.33333333  0.58151200  1
  Ag  Ag4  1  0.00000000  0.00000000  0.25000000  1
  Ag  Ag5  1  0.00000000  0.00000000  0.75000000  1
  Pb  Pb6  1  0.66666668  0.33333333  0.25000000  1
  Ag  Ag7  1  0.33333336  0.66666665  0.75000000  1
