# generated using pymatgen
data_MnAg5Se6
_symmetry_space_group_name_H-M   'P 1'
_cell_length_a   6.53474712
_cell_length_b   6.66056252
_cell_length_c   6.66056252
_cell_angle_alpha   60.07556152
_cell_angle_beta   80.18778992
_cell_angle_gamma   99.81221008
_symmetry_Int_Tables_number   1
_chemical_formula_structural   MnAg5Se6
_chemical_formula_sum   'Mn1 Ag5 Se6'
_cell_volume   236.24386650
_cell_formula_units_Z   1
loop_
 _symmetry_equiv_pos_site_id
 _symmetry_equiv_pos_as_xyz
  1  'x, y, z'
loop_
 _atom_site_type_symbol
 _atom_site_label
 _atom_site_symmetry_multiplicity
 _atom_site_fract_x
 _atom_site_fract_y
 _atom_site_fract_z
 _atom_site_occupancy
  Mn  Mn0  1  0.00000000  0.00000000  0.00000000  1
  Ag  Ag1  1  0.50000001  0.49999999  0.49999999  1
  Ag  Ag2  1  0.50000002  0.83510198  0.83510198  1
  Ag  Ag3  1  0.50000001  0.16489800  0.16489799  1
  Ag  Ag4  1  0.00000001  0.66666665  0.66666665  1
  Ag  Ag5  1  0.00000001  0.33333333  0.33333333  1
  Se  Se6  1  0.25128402  0.74402499  0.25597499  1
  Se  Se7  1  0.75183102  0.91722198  0.42148498  1
  Se  Se8  1  0.75183102  0.57851499  0.08277799  1
  Se  Se9  1  0.74871601  0.25597500  0.74402498  1
  Se  Se10  1  0.24816900  0.08277800  0.57851499  1
  Se  Se11  1  0.24816901  0.42148499  0.91722198  1
