# generated using pymatgen
data_K2O
_symmetry_space_group_name_H-M   'P 1'
_cell_length_a   4.37091303
_cell_length_b   6.51904678
_cell_length_c   6.51944208
_cell_angle_alpha   90.00000000
_cell_angle_beta   91.89250946
_cell_angle_gamma   90.00000000
_symmetry_Int_Tables_number   1
_chemical_formula_structural   K2O
_chemical_formula_sum   'K4 O2'
_cell_volume   185.66487101
_cell_formula_units_Z   2
loop_
 _symmetry_equiv_pos_site_id
 _symmetry_equiv_pos_as_xyz
  1  'x, y, z'
loop_
 _atom_site_type_symbol
 _atom_site_label
 _atom_site_symmetry_multiplicity
 _atom_site_fract_x
 _atom_site_fract_y
 _atom_site_fract_z
 _atom_site_occupancy
  K  K0  1  0.48805300  0.14916100  0.27285502  1
  K  K1  1  0.51194700  0.85083903  0.72714502  1
  K  K2  1  0.98805300  0.35083901  0.77285504  1
  K  K3  1  0.01194700  0.64916102  0.22714500  1
  O  O4  1  0.50000000  0.50000002  0.00000002  1
  O  O5  1  0.00000000  1.00000003  0.50000000  1
