# generated using pymatgen
data_RbNa(PtCl3)2
_symmetry_space_group_name_H-M   'P 1'
_cell_length_a   7.38697720
_cell_length_b   7.38697720
_cell_length_c   7.38697720
_cell_angle_alpha   92.49953461
_cell_angle_beta   118.56754303
_cell_angle_gamma   118.56754303
_symmetry_Int_Tables_number   1
_chemical_formula_structural   RbNa(PtCl3)2
_chemical_formula_sum   'Rb1 Na1 Pt2 Cl6'
_cell_volume   290.89832173
_cell_formula_units_Z   1
loop_
 _symmetry_equiv_pos_site_id
 _symmetry_equiv_pos_as_xyz
  1  'x, y, z'
loop_
 _atom_site_type_symbol
 _atom_site_label
 _atom_site_symmetry_multiplicity
 _atom_site_fract_x
 _atom_site_fract_y
 _atom_site_fract_z
 _atom_site_occupancy
  Rb  Rb0  1  0.50000012  0.75000006  0.25000011  1
  Na  Na1  1  0.50000005  0.25000002  0.75000006  1
  Pt  Pt2  1  0.00000007  0.50000004  0.50000006  1
  Pt  Pt3  1  0.00000000  0.00000000  0.00000000  1
  Cl  Cl4  1  0.70475603  0.00000000  0.70475605  1
  Cl  Cl5  1  0.29524401  0.00000000  0.29524402  1
  Cl  Cl6  1  0.70475612  0.70475606  0.00000011  1
  Cl  Cl7  1  0.29524405  0.29524402  0.00000005  1
  Cl  Cl8  1  1.00000007  0.22727502  0.22727508  1
  Cl  Cl9  1  0.00000011  0.77272506  0.77272509  1
