# generated using pymatgen
data_Rb3PdF5
_symmetry_space_group_name_H-M   'P 1'
_cell_length_a   6.54584885
_cell_length_b   7.61217880
_cell_length_c   7.61217880
_cell_angle_alpha   90.00000000
_cell_angle_beta   90.00000000
_cell_angle_gamma   90.00000000
_symmetry_Int_Tables_number   1
_chemical_formula_structural   Rb3PdF5
_chemical_formula_sum   'Rb6 Pd2 F10'
_cell_volume   379.30095340
_cell_formula_units_Z   2
loop_
 _symmetry_equiv_pos_site_id
 _symmetry_equiv_pos_as_xyz
  1  'x, y, z'
loop_
 _atom_site_type_symbol
 _atom_site_label
 _atom_site_symmetry_multiplicity
 _atom_site_fract_x
 _atom_site_fract_y
 _atom_site_fract_z
 _atom_site_occupancy
  Rb  Rb0  1  0.00000000  0.00000000  0.00000000  1
  Rb  Rb1  1  0.00000000  0.50000001  0.50000001  1
  Rb  Rb2  1  0.50000001  0.32370301  0.82370302  1
  Rb  Rb3  1  0.50000001  0.82370302  0.67629702  1
  Rb  Rb4  1  0.50000001  0.17629700  0.32370301  1
  Rb  Rb5  1  0.50000001  0.67629702  0.17629700  1
  Pd  Pd6  1  0.00000000  0.50000001  0.00000000  1
  Pd  Pd7  1  0.00000000  0.00000000  0.50000001  1
  F  F8  1  0.78709302  0.13219500  0.63219502  1
  F  F9  1  0.78709302  0.86780502  0.36780501  1
  F  F10  1  0.78709302  0.36780501  0.13219500  1
  F  F11  1  0.78709302  0.63219502  0.86780502  1
  F  F12  1  0.21290700  0.13219500  0.63219502  1
  F  F13  1  0.21290700  0.63219502  0.86780502  1
  F  F14  1  0.21290700  0.36780501  0.13219500  1
  F  F15  1  0.21290700  0.86780502  0.36780501  1
  F  F16  1  0.50000001  0.00000000  -0.00000000  1
  F  F17  1  0.50000001  0.50000001  0.50000001  1
