# generated using pymatgen
data_LiF
_symmetry_space_group_name_H-M   'P 1'
_cell_length_a   3.13919997
_cell_length_b   6.33738995
_cell_length_c   6.44602060
_cell_angle_alpha   117.70104218
_cell_angle_beta   90.00000000
_cell_angle_gamma   90.00000000
_symmetry_Int_Tables_number   1
_chemical_formula_structural   LiF
_chemical_formula_sum   'Li4 F4'
_cell_volume   113.54116479
_cell_formula_units_Z   4
loop_
 _symmetry_equiv_pos_site_id
 _symmetry_equiv_pos_as_xyz
  1  'x, y, z'
loop_
 _atom_site_type_symbol
 _atom_site_label
 _atom_site_symmetry_multiplicity
 _atom_site_fract_x
 _atom_site_fract_y
 _atom_site_fract_z
 _atom_site_occupancy
  Li  Li0  1  -0.00000000  0.50000001  0.00000001  1
  Li  Li1  1  -0.00000000  0.50000001  0.50000000  1
  Li  Li2  1  0.50000000  0.00000000  0.49999999  1
  Li  Li3  1  0.00000000  0.00000000  0.00000000  1
  F  F4  1  -0.00000000  0.23371001  0.63162999  1
  F  F5  1  0.50000000  0.91479002  0.77168001  1
  F  F6  1  0.50000000  0.08521000  0.22832000  1
  F  F7  1  -0.00000000  0.76629002  0.36837001  1
