# generated using pymatgen
data_Yb(MnSi)2
_symmetry_space_group_name_H-M   'P 1'
_cell_length_a   4.03363800
_cell_length_b   4.03363800
_cell_length_c   6.76379681
_cell_angle_alpha   90.00000000
_cell_angle_beta   90.00000000
_cell_angle_gamma   120.00000000
_symmetry_Int_Tables_number   1
_chemical_formula_structural   Yb(MnSi)2
_chemical_formula_sum   'Yb1 Mn2 Si2'
_cell_volume   95.30485471
_cell_formula_units_Z   1
loop_
 _symmetry_equiv_pos_site_id
 _symmetry_equiv_pos_as_xyz
  1  'x, y, z'
loop_
 _atom_site_type_symbol
 _atom_site_label
 _atom_site_symmetry_multiplicity
 _atom_site_fract_x
 _atom_site_fract_y
 _atom_site_fract_z
 _atom_site_occupancy
  Yb  Yb0  1  0.00000000  0.00000000  0.00000000  1
  Mn  Mn1  1  0.33333334  0.66666667  0.63639402  1
  Mn  Mn2  1  0.66666667  0.33333334  0.36360601  1
  Si  Si3  1  0.33333334  0.66666667  0.25901101  1
  Si  Si4  1  0.66666667  0.33333334  0.74098902  1
