# generated using pymatgen
data_SrCaFeO4
_symmetry_space_group_name_H-M   'P 1'
_cell_length_a   5.47875786
_cell_length_b   5.49320221
_cell_length_c   6.91649580
_cell_angle_alpha   90.00000000
_cell_angle_beta   113.33238983
_cell_angle_gamma   90.00000000
_symmetry_Int_Tables_number   1
_chemical_formula_structural   SrCaFeO4
_chemical_formula_sum   'Sr2 Ca2 Fe2 O8'
_cell_volume   191.13569573
_cell_formula_units_Z   2
loop_
 _symmetry_equiv_pos_site_id
 _symmetry_equiv_pos_as_xyz
  1  'x, y, z'
loop_
 _atom_site_type_symbol
 _atom_site_label
 _atom_site_symmetry_multiplicity
 _atom_site_fract_x
 _atom_site_fract_y
 _atom_site_fract_z
 _atom_site_occupancy
  Sr  Sr0  1  0.64550103  0.99999996  0.29100203  1
  Sr  Sr1  1  0.35569702  0.99999996  0.71139400  1
  Ca  Ca2  1  0.85458905  0.49999998  0.70917803  1
  Ca  Ca3  1  0.14067601  0.49999998  0.28135200  1
  Fe  Fe4  1  0.50130703  0.49999998  0.00261403  1
  Fe  Fe5  1  0.99724805  0.99999996  0.99449603  1
  O  O6  1  0.84155104  0.99999996  0.68310203  1
  O  O7  1  0.32348002  0.49999998  0.64696000  1
  O  O8  1  0.66453304  0.49999998  0.32906603  1
  O  O9  1  0.16088601  0.00000000  0.32177200  1
  O  O10  1  0.25269501  0.25786199  0.00726601  1
  O  O11  1  0.75457104  0.74213797  0.00726604  1
  O  O12  1  0.75457104  0.25786199  0.00726604  1
  O  O13  1  0.25269501  0.74213797  0.00726601  1
