# generated using pymatgen
data_Sc2AlB2Ir5
_symmetry_space_group_name_H-M   'P 1'
_cell_length_a   3.08165789
_cell_length_b   9.34747601
_cell_length_c   9.34747601
_cell_angle_alpha   90.00000000
_cell_angle_beta   90.00000000
_cell_angle_gamma   90.00000000
_symmetry_Int_Tables_number   1
_chemical_formula_structural   Sc2AlB2Ir5
_chemical_formula_sum   'Sc4 Al2 B4 Ir10'
_cell_volume   269.26080598
_cell_formula_units_Z   2
loop_
 _symmetry_equiv_pos_site_id
 _symmetry_equiv_pos_as_xyz
  1  'x, y, z'
loop_
 _atom_site_type_symbol
 _atom_site_label
 _atom_site_symmetry_multiplicity
 _atom_site_fract_x
 _atom_site_fract_y
 _atom_site_fract_z
 _atom_site_occupancy
  Sc  Sc0  1  1.00000004  0.82514600  0.32514600  1
  Sc  Sc1  1  1.00000004  0.32514600  0.17485400  1
  Sc  Sc2  1  0.00000000  0.67485400  0.82514600  1
  Sc  Sc3  1  1.00000004  0.17485400  0.67485400  1
  Al  Al4  1  0.00000000  0.00000000  0.00000000  1
  Al  Al5  1  1.00000004  0.50000000  0.50000000  1
  B  B6  1  0.00000000  0.62465900  0.12465900  1
  B  B7  1  0.00000000  0.12465900  0.37534100  1
  B  B8  1  1.00000004  0.87534100  0.62465900  1
  B  B9  1  0.00000000  0.37534100  0.87534100  1
  Ir  Ir10  1  0.50000002  0.07096800  0.21657000  1
  Ir  Ir11  1  0.50000002  0.21657000  0.92903200  1
  Ir  Ir12  1  0.50000002  0.78343000  0.07096800  1
  Ir  Ir13  1  0.50000002  0.92903200  0.78343000  1
  Ir  Ir14  1  0.50000002  0.42903200  0.71657000  1
  Ir  Ir15  1  0.50000002  0.57096800  0.28343000  1
  Ir  Ir16  1  0.50000002  0.71657000  0.57096800  1
  Ir  Ir17  1  0.50000002  0.28343000  0.42903200  1
  Ir  Ir18  1  0.50000002  0.50000000  0.00000000  1
  Ir  Ir19  1  0.50000002  0.00000000  0.50000000  1
