# generated using pymatgen
data_LiAl3
_symmetry_space_group_name_H-M   'P 1'
_cell_length_a   4.23452997
_cell_length_b   5.84290600
_cell_length_c   5.84290504
_cell_angle_alpha   120.00000763
_cell_angle_beta   90.00000000
_cell_angle_gamma   90.00000000
_symmetry_Int_Tables_number   1
_chemical_formula_structural   LiAl3
_chemical_formula_sum   'Li2 Al6'
_cell_volume   125.19688900
_cell_formula_units_Z   2
loop_
 _symmetry_equiv_pos_site_id
 _symmetry_equiv_pos_as_xyz
  1  'x, y, z'
loop_
 _atom_site_type_symbol
 _atom_site_label
 _atom_site_symmetry_multiplicity
 _atom_site_fract_x
 _atom_site_fract_y
 _atom_site_fract_z
 _atom_site_occupancy
  Li  Li0  1  0.25000000  0.66666668  0.33333337  1
  Li  Li1  1  0.75000000  0.33333334  0.66666669  1
  Al  Al2  1  0.75000000  0.85953502  0.14046605  1
  Al  Al3  1  0.75000000  0.28093101  0.14046602  1
  Al  Al4  1  0.75000000  0.85953502  0.71907005  1
  Al  Al5  1  0.25000000  0.14046500  0.85953402  1
  Al  Al6  1  0.25000000  0.71906902  0.85953405  1
  Al  Al7  1  0.25000000  0.14046500  0.28093001  1
