# generated using pymatgen
data_Ho3ScNi4
_symmetry_space_group_name_H-M   'P 1'
_cell_length_a   3.87940192
_cell_length_b   4.01670599
_cell_length_c   10.30004501
_cell_angle_alpha   90.00000000
_cell_angle_beta   90.00000000
_cell_angle_gamma   90.00000000
_symmetry_Int_Tables_number   1
_chemical_formula_structural   Ho3ScNi4
_chemical_formula_sum   'Ho3 Sc1 Ni4'
_cell_volume   160.49959588
_cell_formula_units_Z   1
loop_
 _symmetry_equiv_pos_site_id
 _symmetry_equiv_pos_as_xyz
  1  'x, y, z'
loop_
 _atom_site_type_symbol
 _atom_site_label
 _atom_site_symmetry_multiplicity
 _atom_site_fract_x
 _atom_site_fract_y
 _atom_site_fract_z
 _atom_site_occupancy
  Ho  Ho0  1  0.50000001  0.50000000  0.36176400  1
  Ho  Ho1  1  -0.00000000  0.50000000  0.85642400  1
  Ho  Ho2  1  0.00000000  0.00000000  0.14216100  1
  Sc  Sc3  1  0.50000001  0.00000000  0.64087100  1
  Ni  Ni4  1  0.50000001  0.50000000  0.06737700  1
  Ni  Ni5  1  -0.00000000  0.50000000  0.57039300  1
  Ni  Ni6  1  0.00000000  0.00000000  0.42998500  1
  Ni  Ni7  1  0.50000001  0.00000000  0.93102500  1
