# generated using pymatgen
data_CsCN
_symmetry_space_group_name_H-M   'P 1'
_cell_length_a   5.73152876
_cell_length_b   5.73152876
_cell_length_c   5.73152876
_cell_angle_alpha   60.00000000
_cell_angle_beta   60.00000000
_cell_angle_gamma   60.00000000
_symmetry_Int_Tables_number   1
_chemical_formula_structural   CsCN
_chemical_formula_sum   'Cs2 C2 N2'
_cell_volume   133.13628363
_cell_formula_units_Z   2
loop_
 _symmetry_equiv_pos_site_id
 _symmetry_equiv_pos_as_xyz
  1  'x, y, z'
loop_
 _atom_site_type_symbol
 _atom_site_label
 _atom_site_symmetry_multiplicity
 _atom_site_fract_x
 _atom_site_fract_y
 _atom_site_fract_z
 _atom_site_occupancy
  Cs  Cs0  1  0.25000001  0.25000001  0.25000001  1
  Cs  Cs1  1  0.75000003  0.75000003  0.75000003  1
  C  C2  1  0.64558402  0.06324800  0.64558402  1
  C  C3  1  0.64558402  0.64558402  0.64558402  1
  N  N4  1  0.64558402  0.64558402  0.06324800  1
  N  N5  1  0.06324800  0.64558402  0.64558402  1
