# generated using pymatgen
data_Y4Nb3O12
_symmetry_space_group_name_H-M   'P 1'
_cell_length_a   6.38270998
_cell_length_b   6.40820360
_cell_length_c   6.53224134
_cell_angle_alpha   97.67586517
_cell_angle_beta   99.30492401
_cell_angle_gamma   100.63976288
_symmetry_Int_Tables_number   1
_chemical_formula_structural   Y4Nb3O12
_chemical_formula_sum   'Y4 Nb3 O12'
_cell_volume   255.42610177
_cell_formula_units_Z   1
loop_
 _symmetry_equiv_pos_site_id
 _symmetry_equiv_pos_as_xyz
  1  'x, y, z'
loop_
 _atom_site_type_symbol
 _atom_site_label
 _atom_site_symmetry_multiplicity
 _atom_site_fract_x
 _atom_site_fract_y
 _atom_site_fract_z
 _atom_site_occupancy
  Y  Y0  1  0.85390799  0.38698999  0.69940001  1
  Y  Y1  1  0.39547398  0.70629198  0.86829601  1
  Y  Y2  1  0.14609198  0.61300998  0.30060002  1
  Y  Y3  1  0.60452600  0.29370799  0.13170402  1
  Nb  Nb4  1  0.00000000  0.00000000  0.00000000  1
  Nb  Nb5  1  0.71604098  0.86435297  0.38463105  1
  Nb  Nb6  1  0.28395900  0.13564700  0.61536899  1
  O  O7  1  0.46811099  0.60050598  0.20025603  1
  O  O8  1  0.55550900  0.15081200  0.43710000  1
  O  O9  1  0.18891399  0.42450899  0.58440701  1
  O  O10  1  0.53188899  0.39949399  0.79974400  1
  O  O11  1  0.44449098  0.84918797  0.56290003  1
  O  O12  1  0.81108599  0.57549098  0.41559303  1
  O  O13  1  0.92681000  0.03474500  0.67569800  1
  O  O14  1  0.04986698  0.68175598  0.94506200  1
  O  O15  1  0.69144898  0.93993297  0.08018606  1
  O  O16  1  0.07318997  0.96525497  0.32430204  1
  O  O17  1  0.95013300  0.31824399  0.05493803  1
  O  O18  1  0.30855100  0.06006700  0.91981398  1
