# generated using pymatgen
data_Zr2CN
_symmetry_space_group_name_H-M   'P 1'
_cell_length_a   3.42102170
_cell_length_b   3.42102170
_cell_length_c   6.56044912
_cell_angle_alpha   74.88656616
_cell_angle_beta   74.88656616
_cell_angle_gamma   60.00000763
_symmetry_Int_Tables_number   1
_chemical_formula_structural   Zr2CN
_chemical_formula_sum   'Zr2 C1 N1'
_cell_volume   63.40793793
_cell_formula_units_Z   1
loop_
 _symmetry_equiv_pos_site_id
 _symmetry_equiv_pos_as_xyz
  1  'x, y, z'
loop_
 _atom_site_type_symbol
 _atom_site_label
 _atom_site_symmetry_multiplicity
 _atom_site_fract_x
 _atom_site_fract_y
 _atom_site_fract_z
 _atom_site_occupancy
  Zr  Zr0  1  0.50000001  0.49999999  0.49999996  1
  Zr  Zr1  1  0.00000000  0.00000000  0.00000000  1
  C  C2  1  0.88830801  0.88830798  0.33507593  1
  N  N3  1  0.11169200  0.11169200  0.66492398  1
