# generated using pymatgen
data_LuZnPt
_symmetry_space_group_name_H-M   'P 1'
_cell_length_a   4.05091619
_cell_length_b   6.93961000
_cell_length_c   8.13660622
_cell_angle_alpha   90.00000000
_cell_angle_beta   90.00000000
_cell_angle_gamma   90.00000000
_symmetry_Int_Tables_number   1
_chemical_formula_structural   LuZnPt
_chemical_formula_sum   'Lu4 Zn4 Pt4'
_cell_volume   228.73447213
_cell_formula_units_Z   4
loop_
 _symmetry_equiv_pos_site_id
 _symmetry_equiv_pos_as_xyz
  1  'x, y, z'
loop_
 _atom_site_type_symbol
 _atom_site_label
 _atom_site_symmetry_multiplicity
 _atom_site_fract_x
 _atom_site_fract_y
 _atom_site_fract_z
 _atom_site_occupancy
  Lu  Lu0  1  0.24999999  0.53880100  0.18406600  1
  Lu  Lu1  1  0.74999996  0.46119900  0.81593398  1
  Lu  Lu2  1  0.24999999  0.03880100  0.31593399  1
  Lu  Lu3  1  0.74999996  0.96119900  0.68406598  1
  Zn  Zn4  1  0.24999999  0.13699700  0.93637198  1
  Zn  Zn5  1  0.74999996  0.86300300  0.06362800  1
  Zn  Zn6  1  0.24999999  0.63699700  0.56362799  1
  Zn  Zn7  1  0.74999996  0.36300300  0.43637199  1
  Pt  Pt8  1  0.74999996  0.74501900  0.37669399  1
  Pt  Pt9  1  0.24999999  0.25498100  0.62330598  1
  Pt  Pt10  1  0.74999996  0.24501900  0.12330600  1
  Pt  Pt11  1  0.24999999  0.75498100  0.87669398  1
