# generated using pymatgen
data_Fe
_symmetry_space_group_name_H-M   'P 1'
_cell_length_a   4.16972637
_cell_length_b   4.16972637
_cell_length_c   7.21262312
_cell_angle_alpha   73.19844818
_cell_angle_beta   73.19844818
_cell_angle_gamma   59.99999619
_symmetry_Int_Tables_number   1
_chemical_formula_structural   Fe
_chemical_formula_sum   Fe12
_cell_volume   102.37424208
_cell_formula_units_Z   12
loop_
 _symmetry_equiv_pos_site_id
 _symmetry_equiv_pos_as_xyz
  1  'x, y, z'
loop_
 _atom_site_type_symbol
 _atom_site_label
 _atom_site_symmetry_multiplicity
 _atom_site_fract_x
 _atom_site_fract_y
 _atom_site_fract_z
 _atom_site_occupancy
  Fe  Fe0  1  0.56279500  0.06315100  0.81125899  1
  Fe  Fe1  1  0.06210102  0.56191399  0.31388399  1
  Fe  Fe2  1  0.56279502  0.56279499  0.81125898  1
  Fe  Fe3  1  0.06210100  0.06210100  0.31388400  1
  Fe  Fe4  1  0.81243703  0.81243698  0.56268897  1
  Fe  Fe5  1  0.31260501  0.31260499  0.06218499  1
  Fe  Fe6  1  0.06315102  0.56279499  0.81125898  1
  Fe  Fe7  1  0.56191400  0.06210100  0.31388399  1
  Fe  Fe8  1  0.12492500  0.12492500  0.62522499  1
  Fe  Fe9  1  0.62480802  0.62480799  0.12557598  1
  Fe  Fe10  1  0.00270900  0.00270900  0.99187299  1
  Fe  Fe11  1  0.49765802  0.49765799  0.50702598  1
