# generated using pymatgen
data_CeCoSi2
_symmetry_space_group_name_H-M   'P 1'
_cell_length_a   4.01804209
_cell_length_b   4.05891800
_cell_length_c   8.48937798
_cell_angle_alpha   103.83098602
_cell_angle_beta   90.00000000
_cell_angle_gamma   90.00000000
_symmetry_Int_Tables_number   1
_chemical_formula_structural   CeCoSi2
_chemical_formula_sum   'Ce2 Co2 Si4'
_cell_volume   134.43803525
_cell_formula_units_Z   2
loop_
 _symmetry_equiv_pos_site_id
 _symmetry_equiv_pos_as_xyz
  1  'x, y, z'
loop_
 _atom_site_type_symbol
 _atom_site_label
 _atom_site_symmetry_multiplicity
 _atom_site_fract_x
 _atom_site_fract_y
 _atom_site_fract_z
 _atom_site_occupancy
  Ce  Ce0  1  0.74999998  0.89090600  0.78181204  1
  Ce  Ce1  1  0.24999999  0.10909400  0.21818801  1
  Co  Co2  1  0.24999999  0.32174300  0.64348603  1
  Co  Co3  1  0.74999998  0.67825700  0.35651402  1
  Si  Si4  1  0.74999998  0.24974300  0.49948602  1
  Si  Si5  1  0.24999999  0.75025700  0.50051402  1
  Si  Si6  1  0.24999999  0.45916200  0.91832404  1
  Si  Si7  1  0.74999998  0.54083800  0.08167601  1
