# generated using pymatgen
data_Eu2ZnAg3
_symmetry_space_group_name_H-M   'P 1'
_cell_length_a   5.35201788
_cell_length_b   5.35201836
_cell_length_c   5.39809895
_cell_angle_alpha   90.00000000
_cell_angle_beta   90.00000000
_cell_angle_gamma   120.00000000
_symmetry_Int_Tables_number   1
_chemical_formula_structural   Eu2ZnAg3
_chemical_formula_sum   'Eu2 Zn1 Ag3'
_cell_volume   133.90803045
_cell_formula_units_Z   1
loop_
 _symmetry_equiv_pos_site_id
 _symmetry_equiv_pos_as_xyz
  1  'x, y, z'
loop_
 _atom_site_type_symbol
 _atom_site_label
 _atom_site_symmetry_multiplicity
 _atom_site_fract_x
 _atom_site_fract_y
 _atom_site_fract_z
 _atom_site_occupancy
  Eu  Eu0  1  0.00000000  0.00000000  0.50000001  1
  Eu  Eu1  1  0.00000002  0.33363601  -0.00000000  1
  Ag  Ag2  1  0.33363601  0.00000000  1.00000001  1
  Ag  Ag3  1  0.66636405  0.66636402  1.00000001  1
  Zn  Zn4  1  0.33333337  0.66666669  0.50000001  1
  Ag  Ag5  1  0.66666670  0.33333334  0.50000001  1
