# generated using pymatgen
data_LiYSbS
_symmetry_space_group_name_H-M   'P 1'
_cell_length_a   3.88100195
_cell_length_b   4.27042818
_cell_length_c   5.70732594
_cell_angle_alpha   68.03018188
_cell_angle_beta   90.00000000
_cell_angle_gamma   90.00000000
_symmetry_Int_Tables_number   1
_chemical_formula_structural   LiYSbS
_chemical_formula_sum   'Li1 Y1 Sb1 S1'
_cell_volume   87.72152633
_cell_formula_units_Z   1
loop_
 _symmetry_equiv_pos_site_id
 _symmetry_equiv_pos_as_xyz
  1  'x, y, z'
loop_
 _atom_site_type_symbol
 _atom_site_label
 _atom_site_symmetry_multiplicity
 _atom_site_fract_x
 _atom_site_fract_y
 _atom_site_fract_z
 _atom_site_occupancy
  Li  Li0  1  1.00000001  0.13895399  0.72209200  1
  Y  Y1  1  0.50000001  0.86012297  0.27975399  1
  S  S2  1  0.50000001  0.58189098  0.83621799  1
  Sb  Sb3  1  0.00000000  0.41903198  0.16193599  1
