# generated using pymatgen
data_Al2Si2O5
_symmetry_space_group_name_H-M   'P 1'
_cell_length_a   3.34611201
_cell_length_b   3.34611201
_cell_length_c   22.74546814
_cell_angle_alpha   90.00000000
_cell_angle_beta   90.00000000
_cell_angle_gamma   120.00000000
_symmetry_Int_Tables_number   1
_chemical_formula_structural   Al2Si2O5
_chemical_formula_sum   'Al4 Si4 O10'
_cell_volume   220.54969507
_cell_formula_units_Z   2
loop_
 _symmetry_equiv_pos_site_id
 _symmetry_equiv_pos_as_xyz
  1  'x, y, z'
loop_
 _atom_site_type_symbol
 _atom_site_label
 _atom_site_symmetry_multiplicity
 _atom_site_fract_x
 _atom_site_fract_y
 _atom_site_fract_z
 _atom_site_occupancy
  Al  Al0  1  0.33333333  0.66666666  0.86456703  1
  Al  Al1  1  0.33333333  0.66666666  0.63543302  1
  Al  Al2  1  0.66666666  0.33333333  0.36456701  1
  Si  Si3  1  0.66666666  0.33333333  0.13543301  1
  Al  Al4  1  0.00000000  0.00000000  0.00000000  1
  Si  Si5  1  0.00000000  0.00000000  0.50000002  1
  Si  Si6  1  0.00000000  0.00000000  0.75000003  1
  Si  Si7  1  0.00000000  0.00000000  0.25000001  1
  O  O8  1  0.33333333  0.66666666  0.95186404  1
  O  O9  1  0.00000000  0.00000000  0.83779703  1
  O  O10  1  0.33333333  0.66666666  0.75000003  1
  O  O11  1  0.00000000  0.00000000  0.66220303  1
  O  O12  1  0.33333333  0.66666666  0.54813602  1
  O  O13  1  0.66666666  0.33333333  0.45186402  1
  O  O14  1  0.00000000  0.00000000  0.33779701  1
  O  O15  1  0.66666666  0.33333333  0.25000001  1
  O  O16  1  0.00000000  0.00000000  0.16220301  1
  O  O17  1  0.66666666  0.33333333  0.04813600  1
