# generated using pymatgen
data_Li5Ni3O8
_symmetry_space_group_name_H-M   'P 1'
_cell_length_a   6.11142015
_cell_length_b   6.11912107
_cell_length_c   6.12299633
_cell_angle_alpha   119.51654053
_cell_angle_beta   119.44326019
_cell_angle_gamma   60.53654099
_symmetry_Int_Tables_number   1
_chemical_formula_structural   Li5Ni3O8
_chemical_formula_sum   'Li5 Ni3 O8'
_cell_volume   163.83517171
_cell_formula_units_Z   1
loop_
 _symmetry_equiv_pos_site_id
 _symmetry_equiv_pos_as_xyz
  1  'x, y, z'
loop_
 _atom_site_type_symbol
 _atom_site_label
 _atom_site_symmetry_multiplicity
 _atom_site_fract_x
 _atom_site_fract_y
 _atom_site_fract_z
 _atom_site_occupancy
  Li  Li0  1  0.00000299  0.50000500  0.00000596  1
  Li  Li1  1  0.00000500  0.00000300  0.50000898  1
  Li  Li2  1  0.50000699  0.00000000  0.00000697  1
  Li  Li3  1  0.50000698  0.50001100  0.99999490  1
  Li  Li4  1  0.50000698  0.49994000  0.49993592  1
  Ni  Ni5  1  0.99998998  0.00001100  0.99998791  1
  Ni  Ni6  1  0.00000199  0.50001400  0.50001095  1
  Ni  Ni7  1  0.49994598  0.99999500  0.50000188  1
  O  O8  1  0.27198599  0.27159900  0.76700394  1
  O  O9  1  0.26091099  0.72954400  0.23030492  1
  O  O10  1  0.72991898  0.26084900  0.23040193  1
  O  O11  1  0.75065097  0.75124000  0.73736088  1
  O  O12  1  0.24935599  0.24876400  0.26264396  1
  O  O13  1  0.27009899  0.73915000  0.76960990  1
  O  O14  1  0.73908998  0.27046100  0.76970291  1
  O  O15  1  0.72802098  0.72841100  0.23301390  1
