# generated using pymatgen
data_Al3FeNi
_symmetry_space_group_name_H-M   'P 1'
_cell_length_a   3.94053793
_cell_length_b   5.53716278
_cell_length_c   10.41496372
_cell_angle_alpha   105.36933136
_cell_angle_beta   100.90474701
_cell_angle_gamma   90.00000000
_symmetry_Int_Tables_number   1
_chemical_formula_structural   Al3FeNi
_chemical_formula_sum   'Al6 Fe2 Ni2'
_cell_volume   214.86270876
_cell_formula_units_Z   2
loop_
 _symmetry_equiv_pos_site_id
 _symmetry_equiv_pos_as_xyz
  1  'x, y, z'
loop_
 _atom_site_type_symbol
 _atom_site_label
 _atom_site_symmetry_multiplicity
 _atom_site_fract_x
 _atom_site_fract_y
 _atom_site_fract_z
 _atom_site_occupancy
  Al  Al0  1  0.40454302  0.40518699  0.80908598  1
  Al  Al1  1  0.80102603  0.80938499  0.60205199  1
  Al  Al2  1  0.59640702  0.59826699  0.19281400  1
  Al  Al3  1  0.99948404  0.99227799  0.99896798  1
  Al  Al4  1  0.19903401  0.19694400  0.39806799  1
  Ni  Ni5  1  0.49533502  0.76618599  0.99066998  1
  Ni  Ni6  1  0.90645803  0.16366600  0.81291599  1
  Al  Al7  1  0.29896801  0.52322799  0.59793599  1
  Fe  Fe8  1  0.69931103  0.97485799  0.39862199  1
  Fe  Fe9  1  0.09943201  0.32000200  0.19886399  1
