# generated using pymatgen
data_Rb2Na2P2HO9
_symmetry_space_group_name_H-M   'P 1'
_cell_length_a   5.78044605
_cell_length_b   6.33929825
_cell_length_c   8.25928402
_cell_angle_alpha   90.00000000
_cell_angle_beta   90.00000000
_cell_angle_gamma   116.86988831
_symmetry_Int_Tables_number   1
_chemical_formula_structural   Rb2Na2P2HO9
_chemical_formula_sum   'Rb2 Na2 P2 H1 O9'
_cell_volume   269.97709606
_cell_formula_units_Z   1
loop_
 _symmetry_equiv_pos_site_id
 _symmetry_equiv_pos_as_xyz
  1  'x, y, z'
loop_
 _atom_site_type_symbol
 _atom_site_label
 _atom_site_symmetry_multiplicity
 _atom_site_fract_x
 _atom_site_fract_y
 _atom_site_fract_z
 _atom_site_occupancy
  Rb  Rb0  1  0.64957540  0.38442749  0.80499034  1
  Rb  Rb1  1  0.35042457  0.61557253  0.30499034  1
  Na  Na2  1  0.02931363  0.09856525  0.55761560  1
  Na  Na3  1  0.97068635  0.90143476  0.05761560  1
  P  P4  1  0.34038876  0.76032183  0.73981954  1
  P  P5  1  0.65961122  0.23967818  0.23981954  1
  H  H6  1  0.47785336  0.91163126  0.99479468  1
  O  O7  1  0.52214661  0.08836875  0.49479468  1
  O  O8  1  0.19923153  0.48133798  0.68837254  1
  O  O9  1  0.80076844  0.51866204  0.18837254  1
  O  O10  1  0.13453355  0.87153639  0.76948984  1
  O  O11  1  0.86546643  0.12846362  0.26948984  1
  O  O12  1  0.56636537  0.92248290  0.60904973  1
  O  O13  1  0.43363460  0.07751711  0.10904973  1
  O  O14  1  0.50572103  0.79368086  0.91886772  1
  O  O15  1  0.49427895  0.20631915  0.41886772  1
