# generated using pymatgen
data_Na5LiV2F10
_symmetry_space_group_name_H-M   'P 1'
_cell_length_a   6.57699394
_cell_length_b   7.00595188
_cell_length_c   8.62645721
_cell_angle_alpha   90.00000000
_cell_angle_beta   112.40869141
_cell_angle_gamma   90.00000000
_symmetry_Int_Tables_number   1
_chemical_formula_structural   Na5LiV2F10
_chemical_formula_sum   'Na5 Li1 V2 F10'
_cell_volume   367.47554689
_cell_formula_units_Z   1
loop_
 _symmetry_equiv_pos_site_id
 _symmetry_equiv_pos_as_xyz
  1  'x, y, z'
loop_
 _atom_site_type_symbol
 _atom_site_label
 _atom_site_symmetry_multiplicity
 _atom_site_fract_x
 _atom_site_fract_y
 _atom_site_fract_z
 _atom_site_occupancy
  Li  Li0  1  0.23307800  0.00000000  0.46615600  1
  Na  Na1  1  0.76692201  0.50000001  0.53384400  1
  Na  Na2  1  0.76692201  0.00000000  0.53384400  1
  Na  Na3  1  0.23307800  0.50000001  0.46615600  1
  Na  Na4  1  0.73253101  0.75000001  0.17501000  1
  Na  Na5  1  0.55752101  0.75000001  0.82499000  1
  V  V6  1  0.26746900  0.25000000  0.82498999  1
  V  V7  1  0.44247901  0.25000000  0.17501000  1
  F  F8  1  0.53045101  0.75000001  0.60808400  1
  F  F9  1  0.92236701  0.75000001  0.39191600  1
  F  F10  1  0.07763300  0.25000000  0.60808399  1
  F  F11  1  0.46954901  0.25000000  0.39191600  1
  F  F12  1  0.31011100  0.75000001  0.86932199  1
  F  F13  1  0.44078901  0.75000001  0.13067800  1
  F  F14  1  0.68988901  0.25000000  0.13067800  1
  F  F15  1  0.55921101  0.25000000  0.86932200  1
  F  F16  1  0.82137601  0.75000001  0.00000001  1
  F  F17  1  0.17862400  0.25000000  0.00000000  1
