# generated using pymatgen
data_K2FeAsS4
_symmetry_space_group_name_H-M   'P 1'
_cell_length_a   5.48436546
_cell_length_b   6.86252403
_cell_length_c   6.86252403
_cell_angle_alpha   63.10939026
_cell_angle_beta   78.25608063
_cell_angle_gamma   101.74391937
_symmetry_Int_Tables_number   1
_chemical_formula_structural   K2FeAsS4
_chemical_formula_sum   'K2 Fe1 As1 S4'
_cell_volume   212.21686168
_cell_formula_units_Z   1
loop_
 _symmetry_equiv_pos_site_id
 _symmetry_equiv_pos_as_xyz
  1  'x, y, z'
loop_
 _atom_site_type_symbol
 _atom_site_label
 _atom_site_symmetry_multiplicity
 _atom_site_fract_x
 _atom_site_fract_y
 _atom_site_fract_z
 _atom_site_occupancy
  K  K0  1  0.50000000  0.35807200  0.35807198  1
  K  K1  1  0.00000002  0.63871801  0.63871798  1
  As  As2  1  0.49999999  0.00328100  0.00328099  1
  Fe  Fe3  1  0.00000000  0.00554100  0.00554100  1
  S  S4  1  0.14707602  0.68893001  0.08863598  1
  S  S5  1  0.85292399  0.08863600  0.68892998  1
  S  S6  1  0.34315500  0.28898500  0.92783798  1
  S  S7  1  0.65684502  0.92783801  0.28898497  1
