# generated using pymatgen
data_LaBi2
_symmetry_space_group_name_H-M   'P 1'
_cell_length_a   4.79154015
_cell_length_b   4.79154015
_cell_length_c   9.03273010
_cell_angle_alpha   105.38074493
_cell_angle_beta   105.38074493
_cell_angle_gamma   90.00000000
_symmetry_Int_Tables_number   1
_chemical_formula_structural   LaBi2
_chemical_formula_sum   'La2 Bi4'
_cell_volume   192.23952199
_cell_formula_units_Z   2
loop_
 _symmetry_equiv_pos_site_id
 _symmetry_equiv_pos_as_xyz
  1  'x, y, z'
loop_
 _atom_site_type_symbol
 _atom_site_label
 _atom_site_symmetry_multiplicity
 _atom_site_fract_x
 _atom_site_fract_y
 _atom_site_fract_z
 _atom_site_occupancy
  La  La0  1  0.82562797  0.82562797  0.65125597  1
  La  La1  1  0.17437199  0.17437199  0.34874399  1
  Bi  Bi2  1  0.49999998  0.00000000  -0.00000000  1
  Bi  Bi3  1  -0.00000000  0.49999998  -0.00000000  1
  Bi  Bi4  1  0.63586498  0.63586498  0.27172998  1
  Bi  Bi5  1  0.36413499  0.36413499  0.72826997  1
