# generated using pymatgen
data_BaLa3CeFeO7
_symmetry_space_group_name_H-M   'P 1'
_cell_length_a   4.21147394
_cell_length_b   4.21147394
_cell_length_c   17.01758194
_cell_angle_alpha   82.89205933
_cell_angle_beta   82.89205933
_cell_angle_gamma   60.00000381
_symmetry_Int_Tables_number   1
_chemical_formula_structural   BaLa3CeFeO7
_chemical_formula_sum   'Ba1 La3 Ce1 Fe1 O7'
_cell_volume   258.71271323
_cell_formula_units_Z   1
loop_
 _symmetry_equiv_pos_site_id
 _symmetry_equiv_pos_as_xyz
  1  'x, y, z'
loop_
 _atom_site_type_symbol
 _atom_site_label
 _atom_site_symmetry_multiplicity
 _atom_site_fract_x
 _atom_site_fract_y
 _atom_site_fract_z
 _atom_site_occupancy
  Ce  Ce0  1  0.56554700  0.56554698  0.30335901  1
  Ba  Ba1  1  0.43445300  0.43445298  0.69664100  1
  La  La2  1  0.94789701  0.94789697  0.15630901  1
  La  La3  1  0.05210300  0.05210300  0.84369100  1
  La  La4  1  0.18542800  0.18542799  0.44371600  1
  Fe  Fe5  1  0.81457200  0.81457197  0.55628401  1
  O  O6  1  0.31694800  0.31694799  0.04915600  1
  O  O7  1  0.68305200  0.68305198  0.95084401  1
  O  O8  1  0.73403700  0.73403697  0.79788901  1
  O  O9  1  0.13525700  0.13525700  0.59422900  1
  O  O10  1  0.26596300  0.26596299  0.20211100  1
  O  O11  1  0.86474300  0.86474297  0.40577101  1
  O  O12  1  0.00000000  0.00000000  0.00000000  1
