# generated using pymatgen
data_SrCo2Si3
_symmetry_space_group_name_H-M   'P 1'
_cell_length_a   4.05947399
_cell_length_b   4.05947447
_cell_length_c   14.21617699
_cell_angle_alpha   90.00000000
_cell_angle_beta   90.00000000
_cell_angle_gamma   120.00000000
_symmetry_Int_Tables_number   1
_chemical_formula_structural   SrCo2Si3
_chemical_formula_sum   'Sr2 Co4 Si6'
_cell_volume   202.88644428
_cell_formula_units_Z   2
loop_
 _symmetry_equiv_pos_site_id
 _symmetry_equiv_pos_as_xyz
  1  'x, y, z'
loop_
 _atom_site_type_symbol
 _atom_site_label
 _atom_site_symmetry_multiplicity
 _atom_site_fract_x
 _atom_site_fract_y
 _atom_site_fract_z
 _atom_site_occupancy
  Sr  Sr0  1  0.00000000  0.00000000  0.25000000  1
  Sr  Sr1  1  0.00000000  0.00000000  0.75000000  1
  Co  Co2  1  0.00000000  0.00000000  0.50000000  1
  Co  Co3  1  0.00000000  0.00000000  0.00000000  1
  Co  Co4  1  0.66666669  0.33333333  0.57164800  1
  Co  Co5  1  0.33333337  0.66666666  0.07164800  1
  Si  Si6  1  0.66666669  0.33333333  0.92835200  1
  Si  Si7  1  0.33333337  0.66666666  0.42835200  1
  Si  Si8  1  0.66666669  0.33333333  0.40346500  1
  Si  Si9  1  0.33333337  0.66666666  0.59653500  1
  Si  Si10  1  0.33333337  0.66666666  0.90346500  1
  Si  Si11  1  0.66666669  0.33333333  0.09653500  1
