# generated using pymatgen
data_LaSb
_symmetry_space_group_name_H-M   'P 1'
_cell_length_a   8.17153645
_cell_length_b   8.17153645
_cell_length_c   8.17153645
_cell_angle_alpha   109.47122192
_cell_angle_beta   109.47122192
_cell_angle_gamma   109.47122192
_symmetry_Int_Tables_number   1
_chemical_formula_structural   LaSb
_chemical_formula_sum   'La7 Sb7'
_cell_volume   420.03865060
_cell_formula_units_Z   7
loop_
 _symmetry_equiv_pos_site_id
 _symmetry_equiv_pos_as_xyz
  1  'x, y, z'
loop_
 _atom_site_type_symbol
 _atom_site_label
 _atom_site_symmetry_multiplicity
 _atom_site_fract_x
 _atom_site_fract_y
 _atom_site_fract_z
 _atom_site_occupancy
  La  La0  1  0.64710708  0.64710706  0.14710706  1
  La  La1  1  0.14710702  0.14710701  0.64710704  1
  La  La2  1  0.35289302  0.00000000  0.00000001  1
  La  La3  1  0.50000008  0.85289308  0.50000008  1
  La  La4  1  0.85289305  0.00000000  0.00000002  1
  La  La5  1  1.00000009  0.50000004  0.85289309  1
  La  La6  1  0.50000005  0.35289303  0.50000006  1
  Sb  Sb7  1  1.00000009  0.50000004  0.35289307  1
  Sb  Sb8  1  0.12500006  0.87500008  0.25000006  1
  Sb  Sb9  1  0.25000004  0.37500003  0.12500003  1
  Sb  Sb10  1  0.75000005  0.12500001  0.37500004  1
  Sb  Sb11  1  0.37500006  0.62500006  0.75000008  1
  Sb  Sb12  1  0.87500010  0.75000007  0.62500009  1
  Sb  Sb13  1  0.62500005  0.25000002  0.87500007  1
