# generated using pymatgen
data_Tl2SI3
_symmetry_space_group_name_H-M   'P 1'
_cell_length_a   3.83252597
_cell_length_b   3.83252621
_cell_length_c   14.50820732
_cell_angle_alpha   90.00000000
_cell_angle_beta   90.00000000
_cell_angle_gamma   120.00000000
_symmetry_Int_Tables_number   1
_chemical_formula_structural   Tl2SI3
_chemical_formula_sum   'Tl2 S1 I3'
_cell_volume   184.55024419
_cell_formula_units_Z   1
loop_
 _symmetry_equiv_pos_site_id
 _symmetry_equiv_pos_as_xyz
  1  'x, y, z'
loop_
 _atom_site_type_symbol
 _atom_site_label
 _atom_site_symmetry_multiplicity
 _atom_site_fract_x
 _atom_site_fract_y
 _atom_site_fract_z
 _atom_site_occupancy
  Tl  Tl0  1  0.00000000  0.00000000  0.49999999  1
  Tl  Tl1  1  0.00000000  0.00000000  0.00000000  1
  I  I2  1  0.66666668  0.33333333  0.12197000  1
  I  I3  1  0.66666668  0.33333333  0.62867999  1
  S  S4  1  0.33333335  0.66666666  0.37131999  1
  I  I5  1  0.33333335  0.66666666  0.87802998  1
