# generated using pymatgen
data_LiNi(HO2)2
_symmetry_space_group_name_H-M   'P 1'
_cell_length_a   3.02381492
_cell_length_b   4.65263414
_cell_length_c   10.01206970
_cell_angle_alpha   90.00000000
_cell_angle_beta   90.00000000
_cell_angle_gamma   90.00000000
_symmetry_Int_Tables_number   1
_chemical_formula_structural   LiNi(HO2)2
_chemical_formula_sum   'Li2 Ni2 H4 O8'
_cell_volume   140.85685033
_cell_formula_units_Z   2
loop_
 _symmetry_equiv_pos_site_id
 _symmetry_equiv_pos_as_xyz
  1  'x, y, z'
loop_
 _atom_site_type_symbol
 _atom_site_label
 _atom_site_symmetry_multiplicity
 _atom_site_fract_x
 _atom_site_fract_y
 _atom_site_fract_z
 _atom_site_occupancy
  Li  Li0  1  0.25000001  0.54364598  0.64978802  1
  Li  Li1  1  0.25000001  0.95635397  0.14978800  1
  Ni  Ni2  1  0.75000002  0.45346899  0.36097901  1
  Ni  Ni3  1  0.75000002  0.04653100  0.86097903  1
  H  H4  1  0.25000001  0.90516297  0.43894301  1
  H  H5  1  0.25000001  0.59483698  0.93894303  1
  H  H6  1  0.75000002  0.09702200  0.59535702  1
  H  H7  1  0.75000002  0.40297799  0.09535700  1
  O  O8  1  0.25000001  0.20473299  0.30282401  1
  O  O9  1  0.25000001  0.29526699  0.80282402  1
  O  O10  1  0.75000002  0.79541698  0.70526902  1
  O  O11  1  0.75000002  0.70458298  0.20526901  1
  O  O12  1  0.25000001  0.69782098  0.46027201  1
  O  O13  1  0.25000001  0.80217898  0.96027203  1
  O  O14  1  0.75000002  0.29634499  0.55868102  1
  O  O15  1  0.75000002  0.20365499  0.05868100  1
