# generated using pymatgen
data_ZrNi3
_symmetry_space_group_name_H-M   'P 1'
_cell_length_a   4.30211687
_cell_length_b   6.62670517
_cell_length_c   9.31547260
_cell_angle_alpha   90.00000000
_cell_angle_beta   90.00000000
_cell_angle_gamma   90.00000000
_symmetry_Int_Tables_number   1
_chemical_formula_structural   ZrNi3
_chemical_formula_sum   'Zr4 Ni12'
_cell_volume   265.57350528
_cell_formula_units_Z   4
loop_
 _symmetry_equiv_pos_site_id
 _symmetry_equiv_pos_as_xyz
  1  'x, y, z'
loop_
 _atom_site_type_symbol
 _atom_site_label
 _atom_site_symmetry_multiplicity
 _atom_site_fract_x
 _atom_site_fract_y
 _atom_site_fract_z
 _atom_site_occupancy
  Zr  Zr0  1  0.25000001  0.31080299  0.10054500  1
  Zr  Zr1  1  0.75000002  0.68919698  0.89945504  1
  Zr  Zr2  1  0.75000002  0.81080298  0.39945502  1
  Zr  Zr3  1  0.25000001  0.18919700  0.60054503  1
  Ni  Ni4  1  0.25000001  0.08591600  0.32513301  1
  Ni  Ni5  1  0.75000002  0.91408398  0.67486703  1
  Ni  Ni6  1  0.75000002  0.58591598  0.17486701  1
  Ni  Ni7  1  0.25000001  0.41408399  0.82513304  1
  Ni  Ni8  1  0.25000001  0.53196499  0.37962302  1
  Ni  Ni9  1  0.75000002  0.46803499  0.62037703  1
  Ni  Ni10  1  0.75000002  0.03196500  0.12037701  1
  Ni  Ni11  1  0.25000001  0.96803498  0.87962304  1
  Ni  Ni12  1  0.25000001  0.79781998  0.13909001  1
  Ni  Ni13  1  0.75000002  0.20217999  0.86091004  1
  Ni  Ni14  1  0.75000002  0.29781999  0.36091002  1
  Ni  Ni15  1  0.25000001  0.70217998  0.63909003  1
