# generated using pymatgen
data_SrFe2PC
_symmetry_space_group_name_H-M   'P 1'
_cell_length_a   3.73237991
_cell_length_b   3.73237991
_cell_length_c   7.06651402
_cell_angle_alpha   105.31283569
_cell_angle_beta   105.31283569
_cell_angle_gamma   90.00000000
_symmetry_Int_Tables_number   1
_chemical_formula_structural   SrFe2PC
_chemical_formula_sum   'Sr1 Fe2 P1 C1'
_cell_volume   91.31788571
_cell_formula_units_Z   1
loop_
 _symmetry_equiv_pos_site_id
 _symmetry_equiv_pos_as_xyz
  1  'x, y, z'
loop_
 _atom_site_type_symbol
 _atom_site_label
 _atom_site_symmetry_multiplicity
 _atom_site_fract_x
 _atom_site_fract_y
 _atom_site_fract_z
 _atom_site_occupancy
  Sr  Sr0  1  0.00000000  0.00000000  0.00000000  1
  Fe  Fe1  1  0.75000000  0.25000000  0.49999998  1
  Fe  Fe2  1  0.24999997  0.75000000  0.49999998  1
  C  C3  1  0.65940198  0.65940200  0.31880396  1
  P  P4  1  0.34059799  0.34059800  0.68119600  1
