# generated using pymatgen
data_CoNiSe4
_symmetry_space_group_name_H-M   'P 1'
_cell_length_a   5.84635592
_cell_length_b   5.87560701
_cell_length_c   5.85243559
_cell_angle_alpha   90.00000000
_cell_angle_beta   89.75522614
_cell_angle_gamma   90.00000000
_symmetry_Int_Tables_number   1
_chemical_formula_structural   CoNiSe4
_chemical_formula_sum   'Co2 Ni2 Se8'
_cell_volume   201.03453554
_cell_formula_units_Z   2
loop_
 _symmetry_equiv_pos_site_id
 _symmetry_equiv_pos_as_xyz
  1  'x, y, z'
loop_
 _atom_site_type_symbol
 _atom_site_label
 _atom_site_symmetry_multiplicity
 _atom_site_fract_x
 _atom_site_fract_y
 _atom_site_fract_z
 _atom_site_occupancy
  Co  Co0  1  -0.00000000  0.50000000  0.49999998  1
  Co  Co1  1  0.50000001  0.00000000  0.49999997  1
  Ni  Ni2  1  0.50000001  0.50000000  -0.00000001  1
  Ni  Ni3  1  0.00000000  0.00000000  0.00000000  1
  Se  Se4  1  0.38276801  0.87977000  0.86951996  1
  Se  Se5  1  0.11723200  0.37977000  0.13047999  1
  Se  Se6  1  0.87057401  0.12859300  0.61714496  1
  Se  Se7  1  0.62942601  0.62859300  0.38285497  1
  Se  Se8  1  0.61723201  0.12023000  0.13047998  1
  Se  Se9  1  0.88276801  0.62023000  0.86951995  1
  Se  Se10  1  0.12942600  0.87140700  0.38285498  1
  Se  Se11  1  0.37057401  0.37140700  0.61714497  1
