# generated using pymatgen
data_La10(CoSb2)3
_symmetry_space_group_name_H-M   'P 1'
_cell_length_a   8.75115681
_cell_length_b   8.75115681
_cell_length_c   8.75115681
_cell_angle_alpha   109.47122192
_cell_angle_beta   109.47122192
_cell_angle_gamma   109.47122192
_symmetry_Int_Tables_number   1
_chemical_formula_structural   La10(CoSb2)3
_chemical_formula_sum   'La10 Co3 Sb6'
_cell_volume   515.91064135
_cell_formula_units_Z   1
loop_
 _symmetry_equiv_pos_site_id
 _symmetry_equiv_pos_as_xyz
  1  'x, y, z'
loop_
 _atom_site_type_symbol
 _atom_site_label
 _atom_site_symmetry_multiplicity
 _atom_site_fract_x
 _atom_site_fract_y
 _atom_site_fract_z
 _atom_site_occupancy
  La  La0  1  0.49401404  0.18627802  0.30773604  1
  La  La1  1  0.50598608  0.81372207  0.69226409  1
  La  La2  1  0.12145706  0.81372107  0.30773506  1
  La  La3  1  0.87854306  0.18627902  0.69226507  1
  La  La4  1  0.18627806  0.69226406  0.87854209  1
  La  La5  1  0.81372207  0.30773603  0.12145804  1
  La  La6  1  0.81372209  0.69226506  0.50598608  1
  La  La7  1  0.18627803  0.30773503  0.49401405  1
  La  La8  1  0.30773603  0.12145801  0.81372206  1
  La  La9  1  0.69226410  0.87854208  0.18627808  1
  Sb  Sb10  1  0.69226407  0.50598605  0.81372109  1
  Sb  Sb11  1  0.30773605  0.49401405  0.18627904  1
  Co  Co12  1  0.50000009  0.87869108  0.37869108  1
  Co  Co13  1  0.50000004  0.12130901  0.62130905  1
  Sb  Sb14  1  0.12130905  0.62130906  0.50000006  1
  Co  Co15  1  0.87869108  0.37869103  0.50000007  1
  Sb  Sb16  1  0.62130907  0.50000005  0.12130905  1
  Sb  Sb17  1  0.37869105  0.50000005  0.87869108  1
  Sb  Sb18  1  0.00000000  0.00000000  0.00000000  1
