# generated using pymatgen
data_Nb10P7C
_symmetry_space_group_name_H-M   'P 1'
_cell_length_a   5.35320902
_cell_length_b   7.79935217
_cell_length_c   7.79935217
_cell_angle_alpha   120.00000000
_cell_angle_beta   90.00000000
_cell_angle_gamma   90.00000000
_symmetry_Int_Tables_number   1
_chemical_formula_structural   Nb10P7C
_chemical_formula_sum   'Nb10 P7 C1'
_cell_volume   282.00830234
_cell_formula_units_Z   1
loop_
 _symmetry_equiv_pos_site_id
 _symmetry_equiv_pos_as_xyz
  1  'x, y, z'
loop_
 _atom_site_type_symbol
 _atom_site_label
 _atom_site_symmetry_multiplicity
 _atom_site_fract_x
 _atom_site_fract_y
 _atom_site_fract_z
 _atom_site_occupancy
  Nb  Nb0  1  0.75000000  0.76834198  0.76834199  1
  Nb  Nb1  1  0.25000000  0.23165800  0.23165800  1
  Nb  Nb2  1  0.75000000  0.00000000  0.23165800  1
  Nb  Nb3  1  0.25000000  0.00000000  0.76834199  1
  Nb  Nb4  1  0.75000000  0.23165800  0.99999998  1
  Nb  Nb5  1  0.25000000  0.76834198  0.99999998  1
  Nb  Nb6  1  -0.00000000  0.66666665  0.33333333  1
  Nb  Nb7  1  -0.00000000  0.33333333  0.66666666  1
  Nb  Nb8  1  0.50000000  0.33333333  0.66666666  1
  Nb  Nb9  1  0.50000000  0.66666665  0.33333333  1
  P  P10  1  0.75000000  0.40802299  0.40802299  1
  P  P11  1  0.25000000  0.59197699  0.59197699  1
  P  P12  1  0.75000000  0.99999998  0.59197699  1
  P  P13  1  0.25000000  0.00000000  0.40802299  1
  P  P14  1  0.75000000  0.59197699  0.99999998  1
  P  P15  1  0.25000000  0.40802299  0.99999998  1
  C  C16  1  0.00000000  0.00000000  0.00000000  1
  P  P17  1  0.50000000  0.00000000  -0.00000000  1
