# generated using pymatgen
data_SrGeAs
_symmetry_space_group_name_H-M   'P 1'
_cell_length_a   4.93986416
_cell_length_b   8.07616425
_cell_length_c   8.76601505
_cell_angle_alpha   90.00000000
_cell_angle_beta   90.00000000
_cell_angle_gamma   90.00000000
_symmetry_Int_Tables_number   1
_chemical_formula_structural   SrGeAs
_chemical_formula_sum   'Sr4 Ge4 As4'
_cell_volume   349.72152309
_cell_formula_units_Z   4
loop_
 _symmetry_equiv_pos_site_id
 _symmetry_equiv_pos_as_xyz
  1  'x, y, z'
loop_
 _atom_site_type_symbol
 _atom_site_label
 _atom_site_symmetry_multiplicity
 _atom_site_fract_x
 _atom_site_fract_y
 _atom_site_fract_z
 _atom_site_occupancy
  Sr  Sr0  1  0.24999999  0.18253699  0.98780599  1
  Sr  Sr1  1  0.74999998  0.68253698  0.51219400  1
  Sr  Sr2  1  0.24999999  0.31746299  0.48780600  1
  Sr  Sr3  1  0.74999998  0.81746298  0.01219400  1
  Ge  Ge4  1  0.24999999  0.58729798  0.16904500  1
  As  As5  1  0.74999998  0.41270199  0.83095499  1
  Ge  Ge6  1  0.74999998  0.08729800  0.33095500  1
  Ge  Ge7  1  0.24999999  0.91270197  0.66904500  1
  Ge  Ge8  1  0.74999998  0.40265599  0.18693200  1
  As  As9  1  0.74999998  0.09734400  0.68693200  1
  As  As10  1  0.24999999  0.59734398  0.81306800  1
  As  As11  1  0.24999999  0.90265597  0.31306800  1
