# generated using pymatgen
data_VO2
_symmetry_space_group_name_H-M   'P 1'
_cell_length_a   3.01092410
_cell_length_b   6.01598692
_cell_length_c   8.09437847
_cell_angle_alpha   78.74026489
_cell_angle_beta   79.28122711
_cell_angle_gamma   75.50807190
_symmetry_Int_Tables_number   1
_chemical_formula_structural   VO2
_chemical_formula_sum   'V4 O8'
_cell_volume   137.76229192
_cell_formula_units_Z   4
loop_
 _symmetry_equiv_pos_site_id
 _symmetry_equiv_pos_as_xyz
  1  'x, y, z'
loop_
 _atom_site_type_symbol
 _atom_site_label
 _atom_site_symmetry_multiplicity
 _atom_site_fract_x
 _atom_site_fract_y
 _atom_site_fract_z
 _atom_site_occupancy
  V  V0  1  0.33617593  0.49876003  0.82888801  1
  V  V1  1  0.66382391  0.50124003  0.17111201  1
  V  V2  1  -0.00000006  0.50000003  0.50000000  1
  V  V3  1  0.00000000  0.00000000  0.00000000  1
  O  O4  1  0.33298386  0.99745605  0.33657600  1
  O  O5  1  0.66701597  0.00254400  0.66342401  1
  O  O6  1  0.18764395  0.32058802  0.30412400  1
  O  O7  1  0.52593194  0.32427502  0.62386101  1
  O  O8  1  0.85764293  0.32061202  0.96410201  1
  O  O9  1  0.81235588  0.67941204  0.69587601  1
  O  O10  1  0.14235691  0.67938804  0.03589800  1
  O  O11  1  0.47406790  0.67572504  0.37613900  1
