# generated using pymatgen
data_Na2Cu2S5
_symmetry_space_group_name_H-M   'P 1'
_cell_length_a   4.47663784
_cell_length_b   6.24336195
_cell_length_c   12.75001144
_cell_angle_alpha   90.00000000
_cell_angle_beta   90.00000000
_cell_angle_gamma   90.00000000
_symmetry_Int_Tables_number   1
_chemical_formula_structural   Na2Cu2S5
_chemical_formula_sum   'Na4 Cu4 S10'
_cell_volume   356.35351689
_cell_formula_units_Z   2
loop_
 _symmetry_equiv_pos_site_id
 _symmetry_equiv_pos_as_xyz
  1  'x, y, z'
loop_
 _atom_site_type_symbol
 _atom_site_label
 _atom_site_symmetry_multiplicity
 _atom_site_fract_x
 _atom_site_fract_y
 _atom_site_fract_z
 _atom_site_occupancy
  Na  Na0  1  -0.00000000  0.24719000  0.39483899  1
  Na  Na1  1  0.00000000  0.25281000  0.89483897  1
  Na  Na2  1  0.00000000  0.74719001  0.10516100  1
  Na  Na3  1  0.00000000  0.75281001  0.60516098  1
  Cu  Cu4  1  0.50000002  0.24321400  0.13763900  1
  Cu  Cu5  1  0.50000002  0.25678600  0.63763898  1
  Cu  Cu6  1  0.50000002  0.74321401  0.36236099  1
  Cu  Cu7  1  0.50000002  0.75678601  0.86236097  1
  S  S8  1  0.50000002  0.00000000  0.49999998  1
  S  S9  1  0.50000002  0.10021900  0.79339197  1
  S  S10  1  -0.00000000  0.19378500  0.10392100  1
  S  S11  1  -0.00000000  0.30621500  0.60392098  1
  S  S12  1  0.50000002  0.39978100  0.29339199  1
  S  S13  1  0.50000002  0.50000000  0.00000000  1
  S  S14  1  0.50000002  0.60021900  0.70660798  1
  S  S15  1  -0.00000000  0.69378501  0.39607899  1
  S  S16  1  -0.00000000  0.80621501  0.89607897  1
  S  S17  1  0.50000002  0.89978101  0.20660799  1
