# generated using pymatgen
data_Li2CuO6
_symmetry_space_group_name_H-M   'P 1'
_cell_length_a   4.61220694
_cell_length_b   5.88329411
_cell_length_c   7.62943697
_cell_angle_alpha   91.14414978
_cell_angle_beta   90.00000000
_cell_angle_gamma   90.00000000
_symmetry_Int_Tables_number   1
_chemical_formula_structural   Li2CuO6
_chemical_formula_sum   'Li4 Cu2 O12'
_cell_volume   206.98326634
_cell_formula_units_Z   2
loop_
 _symmetry_equiv_pos_site_id
 _symmetry_equiv_pos_as_xyz
  1  'x, y, z'
loop_
 _atom_site_type_symbol
 _atom_site_label
 _atom_site_symmetry_multiplicity
 _atom_site_fract_x
 _atom_site_fract_y
 _atom_site_fract_z
 _atom_site_occupancy
  Li  Li0  1  0.02703700  0.55747599  0.67490904  1
  Li  Li1  1  0.47635301  0.09479600  0.66618502  1
  Li  Li2  1  0.97635301  0.90520398  0.33381505  1
  Li  Li3  1  0.51267801  0.75499299  0.01055204  1
  Cu  Cu4  1  0.52703701  0.44252399  0.32509103  1
  Cu  Cu5  1  0.01267800  0.24500700  0.98944803  1
  O  O6  1  0.68813501  0.72286799  0.22580904  1
  O  O7  1  0.18813500  0.27713200  0.77419103  1
  O  O8  1  0.20226800  0.60717899  0.44307004  1
  O  O9  1  0.78426201  0.89102799  0.56454006  1
  O  O10  1  0.28426200  0.10897200  0.43546001  1
  O  O11  1  0.70226801  0.39282099  0.55693003  1
  O  O12  1  0.20334700  0.92816498  0.11196705  1
  O  O13  1  0.80767101  0.22842300  0.21482002  1
  O  O14  1  0.30767100  0.77157699  0.78518005  1
  O  O15  1  0.70334701  0.07183500  0.88803302  1
  O  O16  1  0.29824800  0.42573999  0.10421802  1
  O  O17  1  0.79824801  0.57425999  0.89578205  1
