# generated using pymatgen
data_DyGa2
_symmetry_space_group_name_H-M   'P 1'
_cell_length_a   4.31890488
_cell_length_b   5.89573812
_cell_length_c   17.58681679
_cell_angle_alpha   98.66886902
_cell_angle_beta   90.00000000
_cell_angle_gamma   111.48597717
_symmetry_Int_Tables_number   1
_chemical_formula_structural   DyGa2
_chemical_formula_sum   'Dy6 Ga12'
_cell_volume   411.19263387
_cell_formula_units_Z   6
loop_
 _symmetry_equiv_pos_site_id
 _symmetry_equiv_pos_as_xyz
  1  'x, y, z'
loop_
 _atom_site_type_symbol
 _atom_site_label
 _atom_site_symmetry_multiplicity
 _atom_site_fract_x
 _atom_site_fract_y
 _atom_site_fract_z
 _atom_site_occupancy
  Dy  Dy0  1  0.61675000  0.23349900  0.93731004  1
  Dy  Dy1  1  0.29096896  0.58193599  0.27330602  1
  Dy  Dy2  1  0.97613994  0.95228199  0.60973304  1
  Dy  Dy3  1  0.72977198  0.45954399  0.73819404  1
  Dy  Dy4  1  0.36332895  0.72665899  0.04992001  1
  Dy  Dy5  1  0.03705199  0.07410300  0.39323502  1
  Ga  Ga6  1  0.68522399  0.37044699  0.13694901  1
  Ga  Ga7  1  0.35534495  0.71069099  0.47346603  1
  Ga  Ga8  1  0.03293200  0.06586400  0.80192303  1
  Ga  Ga9  1  0.97348694  0.94697299  0.19220402  1
  Ga  Ga10  1  0.65575499  0.31150900  0.53248903  1
  Ga  Ga11  1  0.28404096  0.56808399  0.87424704  1
  Ga  Ga12  1  0.57783400  0.15566800  0.27694901  1
  Ga  Ga13  1  0.26138296  0.52276599  0.61675203  1
  Ga  Ga14  1  0.89248996  0.78497899  0.92501505  1
  Ga  Ga15  1  0.07675999  0.15352000  0.05593400  1
  Ga  Ga16  1  0.74981898  0.49963699  0.38900502  1
  Ga  Ga17  1  0.44091993  0.88183999  0.72337004  1
