# generated using pymatgen
data_Na2P5O12
_symmetry_space_group_name_H-M   'P 1'
_cell_length_a   4.92512798
_cell_length_b   7.12177610
_cell_length_c   7.58517599
_cell_angle_alpha   109.68122101
_cell_angle_beta   98.07988739
_cell_angle_gamma   110.16280365
_symmetry_Int_Tables_number   1
_chemical_formula_structural   Na2P5O12
_chemical_formula_sum   'Na2 P5 O12'
_cell_volume   225.02912826
_cell_formula_units_Z   1
loop_
 _symmetry_equiv_pos_site_id
 _symmetry_equiv_pos_as_xyz
  1  'x, y, z'
loop_
 _atom_site_type_symbol
 _atom_site_label
 _atom_site_symmetry_multiplicity
 _atom_site_fract_x
 _atom_site_fract_y
 _atom_site_fract_z
 _atom_site_occupancy
  Na  Na0  1  0.24736098  0.23760199  0.44563401  1
  Na  Na1  1  0.75263894  0.76239798  0.55436601  1
  P  P2  1  0.00000000  0.00000000  0.00000000  1
  P  P3  1  0.36729394  0.81049398  0.21410002  1
  P  P4  1  0.15900896  0.59637898  0.78348704  1
  P  P5  1  0.84099097  0.40362099  0.21651299  1
  P  P6  1  0.63270598  0.18950599  0.78590000  1
  O  O7  1  0.97793598  0.24053699  0.20888697  1
  O  O8  1  0.31602196  0.54356598  0.63268702  1
  O  O9  1  0.02206395  0.75946298  0.79111305  1
  O  O10  1  0.60944698  0.31587199  0.00213999  1
  O  O11  1  0.39055295  0.68412798  0.99786003  1
  O  O12  1  0.26030093  0.98520497  0.20710203  1
  O  O13  1  0.68397796  0.45643399  0.36731300  1
  O  O14  1  0.34305099  0.11811900  0.63984901  1
  O  O15  1  0.73969900  0.01479500  0.79289799  1
  O  O16  1  0.09678696  0.62770498  0.23829902  1
  O  O17  1  0.90321297  0.37229499  0.76170100  1
  O  O18  1  0.65694894  0.88188097  0.36015101  1
