# generated using pymatgen
data_Li4CoP3O10
_symmetry_space_group_name_H-M   'P 1'
_cell_length_a   5.30800581
_cell_length_b   5.34362411
_cell_length_c   7.37958717
_cell_angle_alpha   107.08995819
_cell_angle_beta   108.19144440
_cell_angle_gamma   94.68882751
_symmetry_Int_Tables_number   1
_chemical_formula_structural   Li4CoP3O10
_chemical_formula_sum   'Li4 Co1 P3 O10'
_cell_volume   186.57109974
_cell_formula_units_Z   1
loop_
 _symmetry_equiv_pos_site_id
 _symmetry_equiv_pos_as_xyz
  1  'x, y, z'
loop_
 _atom_site_type_symbol
 _atom_site_label
 _atom_site_symmetry_multiplicity
 _atom_site_fract_x
 _atom_site_fract_y
 _atom_site_fract_z
 _atom_site_occupancy
  Li  Li0  1  0.23341302  0.58620102  0.15408801  1
  Li  Li1  1  0.44061102  0.13149101  0.84783498  1
  Li  Li2  1  0.50080504  0.99252604  0.48419001  1
  Li  Li3  1  0.80435604  0.44196202  0.82906699  1
  Co  Co4  1  0.99563903  0.00100300  0.00663199  1
  P  P5  1  0.98608406  0.98627104  0.48948801  1
  P  P6  1  0.66138703  0.36806801  0.24306400  1
  P  P7  1  0.33744403  0.62813202  0.76528100  1
  O  O8  1  0.26993003  0.78944203  0.61813701  1
  O  O9  1  0.73555803  0.22192501  0.39709099  1
  O  O10  1  0.32840702  0.32615701  0.66109799  1
  O  O11  1  0.14011102  0.66049203  0.88571500  1
  O  O12  1  0.84366403  0.33488701  0.10920000  1
  O  O13  1  0.36303702  0.25044601  0.08911400  1
  O  O14  1  0.66374504  0.66730203  0.34488700  1
  O  O15  1  0.63048604  0.74685403  0.91385500  1
  O  O16  1  0.84550703  0.08123400  0.73245798  1
  O  O17  1  0.14769803  0.91724204  0.27021202  1
