# generated using pymatgen
data_SrLa4TeO8
_symmetry_space_group_name_H-M   'P 1'
_cell_length_a   6.71216154
_cell_length_b   6.71216154
_cell_length_c   6.71216154
_cell_angle_alpha   73.10508728
_cell_angle_beta   69.22547150
_cell_angle_gamma   110.77452850
_symmetry_Int_Tables_number   1
_chemical_formula_structural   SrLa4TeO8
_chemical_formula_sum   'Sr1 La4 Te1 O8'
_cell_volume   232.43953996
_cell_formula_units_Z   1
loop_
 _symmetry_equiv_pos_site_id
 _symmetry_equiv_pos_as_xyz
  1  'x, y, z'
loop_
 _atom_site_type_symbol
 _atom_site_label
 _atom_site_symmetry_multiplicity
 _atom_site_fract_x
 _atom_site_fract_y
 _atom_site_fract_z
 _atom_site_occupancy
  La  La0  1  -0.00000002  0.24999999  0.75000004  1
  Sr  Sr1  1  -0.00000006  0.74999998  0.25000008  1
  La  La2  1  0.77997795  0.80557497  0.69442511  1
  La  La3  1  0.49999996  0.69442498  0.52559709  1
  O  O4  1  0.49999993  0.97440297  0.80557512  1
  La  La5  1  0.22002196  0.52559698  0.97440308  1
  O  O6  1  0.22002199  0.19442499  0.30557503  1
  O  O7  1  0.77997798  0.47440298  0.02559706  1
  O  O8  1  0.50000001  0.02559700  0.19442502  1
  O  O9  1  0.49999998  0.30557499  0.47440305  1
  O  O10  1  0.18251494  0.84125697  0.65874310  1
  Te  Te11  1  0.49999996  0.65874198  0.15874207  1
  O  O12  1  0.49999998  0.34125799  0.84125806  1
  O  O13  1  0.81748500  0.15874299  0.34125704  1
