# generated using pymatgen
data_DyCoGe
_symmetry_space_group_name_H-M   'P 1'
_cell_length_a   3.98837900
_cell_length_b   4.17425823
_cell_length_c   4.17425776
_cell_angle_alpha   120.00000000
_cell_angle_beta   90.00000000
_cell_angle_gamma   90.00000000
_symmetry_Int_Tables_number   1
_chemical_formula_structural   DyCoGe
_chemical_formula_sum   'Dy1 Co1 Ge1'
_cell_volume   60.18463455
_cell_formula_units_Z   1
loop_
 _symmetry_equiv_pos_site_id
 _symmetry_equiv_pos_as_xyz
  1  'x, y, z'
loop_
 _atom_site_type_symbol
 _atom_site_label
 _atom_site_symmetry_multiplicity
 _atom_site_fract_x
 _atom_site_fract_y
 _atom_site_fract_z
 _atom_site_occupancy
  Dy  Dy0  1  0.00000000  0.00000000  0.00000000  1
  Co  Co1  1  0.50000000  0.33333330  0.66666662  1
  Ge  Ge2  1  0.50000000  0.66666661  0.33333328  1
