# generated using pymatgen
data_La2Ga2Ge3Pd
_symmetry_space_group_name_H-M   'P 1'
_cell_length_a   4.38481092
_cell_length_b   4.38481092
_cell_length_c   9.94418430
_cell_angle_alpha   90.00000000
_cell_angle_beta   90.00000000
_cell_angle_gamma   90.00000000
_symmetry_Int_Tables_number   1
_chemical_formula_structural   La2Ga2Ge3Pd
_chemical_formula_sum   'La2 Ga2 Ge3 Pd1'
_cell_volume   191.19252421
_cell_formula_units_Z   1
loop_
 _symmetry_equiv_pos_site_id
 _symmetry_equiv_pos_as_xyz
  1  'x, y, z'
loop_
 _atom_site_type_symbol
 _atom_site_label
 _atom_site_symmetry_multiplicity
 _atom_site_fract_x
 _atom_site_fract_y
 _atom_site_fract_z
 _atom_site_occupancy
  La  La0  1  0.00000000  0.50000001  0.74266698  1
  La  La1  1  0.50000001  0.00000000  0.25733299  1
  Ga  Ga2  1  0.50000001  0.50000001  0.49999998  1
  Ga  Ga3  1  0.00000000  0.00000000  0.49999998  1
  Ge  Ge4  1  0.50000001  0.50000001  -0.00000000  1
  Ge  Ge5  1  0.00000000  0.00000000  0.00000000  1
  Pd  Pd6  1  0.00000000  0.50000001  0.37092899  1
  Ge  Ge7  1  0.50000001  0.00000000  0.62907098  1
