# generated using pymatgen
data_NbSiNi
_symmetry_space_group_name_H-M   'P 1'
_cell_length_a   3.73600507
_cell_length_b   6.33559608
_cell_length_c   7.20760822
_cell_angle_alpha   90.00000000
_cell_angle_beta   90.00000000
_cell_angle_gamma   90.00000000
_symmetry_Int_Tables_number   1
_chemical_formula_structural   NbSiNi
_chemical_formula_sum   'Nb4 Si4 Ni4'
_cell_volume   170.60278264
_cell_formula_units_Z   4
loop_
 _symmetry_equiv_pos_site_id
 _symmetry_equiv_pos_as_xyz
  1  'x, y, z'
loop_
 _atom_site_type_symbol
 _atom_site_label
 _atom_site_symmetry_multiplicity
 _atom_site_fract_x
 _atom_site_fract_y
 _atom_site_fract_z
 _atom_site_occupancy
  Nb  Nb0  1  0.25000000  0.02378000  0.82895797  1
  Nb  Nb1  1  0.25000000  0.52377999  0.67104198  1
  Nb  Nb2  1  0.74999999  0.97621999  0.17104199  1
  Nb  Nb3  1  0.74999999  0.47621999  0.32895799  1
  Si  Si4  1  0.25000000  0.76804499  0.37496799  1
  Si  Si5  1  0.25000000  0.26804500  0.12503200  1
  Si  Si6  1  0.74999999  0.23195500  0.62503198  1
  Si  Si7  1  0.74999999  0.73195499  0.87496797  1
  Ni  Ni8  1  0.25000000  0.14547000  0.43625299  1
  Ni  Ni9  1  0.25000000  0.64546999  0.06374700  1
  Ni  Ni10  1  0.74999999  0.85452999  0.56374698  1
  Ni  Ni11  1  0.74999999  0.35453000  0.93625297  1
