# generated using pymatgen
data_NdAl4Ni
_symmetry_space_group_name_H-M   'P 1'
_cell_length_a   4.10044193
_cell_length_b   6.60899782
_cell_length_c   8.10149097
_cell_angle_alpha   90.00000000
_cell_angle_beta   104.65908051
_cell_angle_gamma   90.00000000
_symmetry_Int_Tables_number   1
_chemical_formula_structural   NdAl4Ni
_chemical_formula_sum   'Nd2 Al8 Ni2'
_cell_volume   212.40228690
_cell_formula_units_Z   2
loop_
 _symmetry_equiv_pos_site_id
 _symmetry_equiv_pos_as_xyz
  1  'x, y, z'
loop_
 _atom_site_type_symbol
 _atom_site_label
 _atom_site_symmetry_multiplicity
 _atom_site_fract_x
 _atom_site_fract_y
 _atom_site_fract_z
 _atom_site_occupancy
  Nd  Nd0  1  0.38527500  0.75000002  0.77054998  1
  Nd  Nd1  1  0.61472500  0.25000001  0.22944998  1
  Al  Al2  1  0.00000000  0.50000001  -0.00000000  1
  Al  Al3  1  0.00000000  0.00000000  0.00000000  1
  Al  Al4  1  0.57814500  0.75000002  0.15628998  1
  Al  Al5  1  0.42185500  0.25000001  0.84370998  1
  Al  Al6  1  0.80968500  0.05283500  0.61936997  1
  Al  Al7  1  0.19031500  0.94716503  0.38062999  1
  Al  Al8  1  0.19031500  0.55283501  0.38062999  1
  Al  Al9  1  0.80968500  0.44716501  0.61936997  1
  Ni  Ni10  1  0.72547500  0.75000002  0.45094998  1
  Ni  Ni11  1  0.27452500  0.25000001  0.54904999  1
