# generated using pymatgen
data_Sm3InPd5
_symmetry_space_group_name_H-M   'P 1'
_cell_length_a   4.06094503
_cell_length_b   7.67946196
_cell_length_c   7.67946100
_cell_angle_alpha   120.00000763
_cell_angle_beta   90.00000000
_cell_angle_gamma   90.00000000
_symmetry_Int_Tables_number   1
_chemical_formula_structural   Sm3InPd5
_chemical_formula_sum   'Sm3 In1 Pd5'
_cell_volume   207.40500965
_cell_formula_units_Z   1
loop_
 _symmetry_equiv_pos_site_id
 _symmetry_equiv_pos_as_xyz
  1  'x, y, z'
loop_
 _atom_site_type_symbol
 _atom_site_label
 _atom_site_symmetry_multiplicity
 _atom_site_fract_x
 _atom_site_fract_y
 _atom_site_fract_z
 _atom_site_occupancy
  Sm  Sm0  1  0.50000000  0.58975402  1.00000004  1
  Sm  Sm1  1  0.50000000  0.41024602  0.41024603  1
  Sm  Sm2  1  0.50000000  0.00000000  0.58975400  1
  In  In3  1  0.50000000  0.00000000  -0.00000000  1
  Pd  Pd4  1  0.99999999  0.33333335  0.66666669  1
  Pd  Pd5  1  0.99999999  0.66666669  0.33333338  1
  Pd  Pd6  1  -0.00000000  0.25775401  1.00000001  1
  Pd  Pd7  1  -0.00000000  0.74224603  0.74224605  1
  Pd  Pd8  1  0.99999999  0.00000000  0.25775400  1
