# generated using pymatgen
data_NaLi2LaS3
_symmetry_space_group_name_H-M   'P 1'
_cell_length_a   4.01840162
_cell_length_b   4.01840162
_cell_length_c   12.18490219
_cell_angle_alpha   80.50901031
_cell_angle_beta   80.50901031
_cell_angle_gamma   60.00000381
_symmetry_Int_Tables_number   1
_chemical_formula_structural   NaLi2LaS3
_chemical_formula_sum   'Na1 Li2 La1 S3'
_cell_volume   167.27882151
_cell_formula_units_Z   1
loop_
 _symmetry_equiv_pos_site_id
 _symmetry_equiv_pos_as_xyz
  1  'x, y, z'
loop_
 _atom_site_type_symbol
 _atom_site_label
 _atom_site_symmetry_multiplicity
 _atom_site_fract_x
 _atom_site_fract_y
 _atom_site_fract_z
 _atom_site_occupancy
  Na  Na0  1  0.70990801  0.70990802  0.87027600  1
  Li  Li1  1  0.29009200  0.29009201  0.12972400  1
  La  La2  1  0.86692501  0.86692503  0.39922500  1
  Li  Li3  1  0.13307500  0.13307500  0.60077500  1
  S  S4  1  0.00000000  0.00000000  0.00000000  1
  S  S5  1  0.57097201  0.57097202  0.28708400  1
  S  S6  1  0.42902800  0.42902801  0.71291600  1
