# generated using pymatgen
data_Tb2Pd3
_symmetry_space_group_name_H-M   'P 1'
_cell_length_a   3.52825809
_cell_length_b   7.92686176
_cell_length_c   7.92686176
_cell_angle_alpha   90.00000000
_cell_angle_beta   90.00000000
_cell_angle_gamma   90.00000000
_symmetry_Int_Tables_number   1
_chemical_formula_structural   Tb2Pd3
_chemical_formula_sum   'Tb4 Pd6'
_cell_volume   221.69858160
_cell_formula_units_Z   2
loop_
 _symmetry_equiv_pos_site_id
 _symmetry_equiv_pos_as_xyz
  1  'x, y, z'
loop_
 _atom_site_type_symbol
 _atom_site_label
 _atom_site_symmetry_multiplicity
 _atom_site_fract_x
 _atom_site_fract_y
 _atom_site_fract_z
 _atom_site_occupancy
  Tb  Tb0  1  0.49999999  0.33066001  0.83066002  1
  Tb  Tb1  1  0.49999999  0.66934002  0.16934001  1
  Tb  Tb2  1  0.49999999  0.16934001  0.33066001  1
  Tb  Tb3  1  0.49999999  0.83066002  0.66934002  1
  Pd  Pd4  1  0.00000000  0.87409503  0.37409501  1
  Pd  Pd5  1  0.00000000  0.62590502  0.87409503  1
  Pd  Pd6  1  0.00000000  0.37409501  0.12590500  1
  Pd  Pd7  1  0.00000000  0.12590500  0.62590502  1
  Pd  Pd8  1  0.00000000  0.50000001  0.50000001  1
  Pd  Pd9  1  0.00000000  0.00000000  0.00000000  1
