# generated using pymatgen
data_Zr9UC6
_symmetry_space_group_name_H-M   'P 1'
_cell_length_a   6.54039717
_cell_length_b   6.54039717
_cell_length_c   6.70644522
_cell_angle_alpha   90.00000000
_cell_angle_beta   90.00000000
_cell_angle_gamma   90.00000000
_symmetry_Int_Tables_number   1
_chemical_formula_structural   Zr9UC6
_chemical_formula_sum   'Zr9 U1 C6'
_cell_volume   286.88023293
_cell_formula_units_Z   1
loop_
 _symmetry_equiv_pos_site_id
 _symmetry_equiv_pos_as_xyz
  1  'x, y, z'
loop_
 _atom_site_type_symbol
 _atom_site_label
 _atom_site_symmetry_multiplicity
 _atom_site_fract_x
 _atom_site_fract_y
 _atom_site_fract_z
 _atom_site_occupancy
  Zr  Zr0  1  0.00000000  0.49999999  0.49999998  1
  Zr  Zr1  1  0.49999999  0.00000000  0.00000000  1
  Zr  Zr2  1  0.49999999  0.00000000  0.49999998  1
  Zr  Zr3  1  0.00000000  0.49999999  -0.00000000  1
  Zr  Zr4  1  0.34798499  0.65201498  0.23983899  1
  Zr  Zr5  1  0.65201498  0.34798499  0.23983899  1
  U  U6  1  0.15201500  0.15201500  0.73983898  1
  Zr  Zr7  1  0.84798498  0.84798498  0.73983898  1
  Zr  Zr8  1  0.65201498  0.34798499  0.76016098  1
  Zr  Zr9  1  0.34798499  0.65201498  0.76016098  1
  C  C10  1  0.84798498  0.84798498  0.26016099  1
  C  C11  1  0.15201500  0.15201500  0.26016099  1
  C  C12  1  0.15919000  0.84080998  0.49999998  1
  C  C13  1  0.84080998  0.15919000  0.49999998  1
  C  C14  1  0.34080999  0.34080999  -0.00000000  1
  C  C15  1  0.65918998  0.65918998  0.00000000  1
