# generated using pymatgen
data_AlCoO2
_symmetry_space_group_name_H-M   'P 1'
_cell_length_a   3.09400606
_cell_length_b   3.09400606
_cell_length_c   10.12781620
_cell_angle_alpha   90.00000000
_cell_angle_beta   90.00000000
_cell_angle_gamma   120.00000000
_symmetry_Int_Tables_number   1
_chemical_formula_structural   AlCoO2
_chemical_formula_sum   'Al2 Co2 O4'
_cell_volume   83.96315771
_cell_formula_units_Z   2
loop_
 _symmetry_equiv_pos_site_id
 _symmetry_equiv_pos_as_xyz
  1  'x, y, z'
loop_
 _atom_site_type_symbol
 _atom_site_label
 _atom_site_symmetry_multiplicity
 _atom_site_fract_x
 _atom_site_fract_y
 _atom_site_fract_z
 _atom_site_occupancy
  Al  Al0  1  0.33333335  0.66666670  0.06215100  1
  Co  Co1  1  0.66666667  0.33333335  0.56215099  1
  Al  Al2  1  0.00000000  0.00000000  0.31210299  1
  Co  Co3  1  0.00000000  0.00000000  0.81210298  1
  O  O4  1  0.33333335  0.66666670  0.25018000  1
  O  O5  1  0.66666667  0.33333335  0.75017999  1
  O  O6  1  0.00000000  0.00000000  0.49956599  1
  O  O7  1  0.00000000  0.00000000  0.99956598  1
