# generated using pymatgen
data_Al
_symmetry_space_group_name_H-M   'P 1'
_cell_length_a   3.94357204
_cell_length_b   3.94357204
_cell_length_c   4.83974123
_cell_angle_alpha   114.04258728
_cell_angle_beta   114.04258728
_cell_angle_gamma   90.00000000
_symmetry_Int_Tables_number   1
_chemical_formula_structural   Al
_chemical_formula_sum   Al4
_cell_volume   61.51741797
_cell_formula_units_Z   4
loop_
 _symmetry_equiv_pos_site_id
 _symmetry_equiv_pos_as_xyz
  1  'x, y, z'
loop_
 _atom_site_type_symbol
 _atom_site_label
 _atom_site_symmetry_multiplicity
 _atom_site_fract_x
 _atom_site_fract_y
 _atom_site_fract_z
 _atom_site_occupancy
  Al  Al0  1  0.74999997  0.24999999  0.49999996  1
  Al  Al1  1  0.24999996  0.74999997  0.49999995  1
  Al  Al2  1  0.49999997  0.49999998  -0.00000004  1
  Al  Al3  1  0.00000000  0.00000000  0.00000000  1
