# generated using pymatgen
data_Nb4Cu3S8
_symmetry_space_group_name_H-M   'P 1'
_cell_length_a   3.24303699
_cell_length_b   9.27895927
_cell_length_c   9.28095245
_cell_angle_alpha   119.97607422
_cell_angle_beta   89.99342346
_cell_angle_gamma   89.98907471
_symmetry_Int_Tables_number   1
_chemical_formula_structural   Nb4Cu3S8
_chemical_formula_sum   'Nb4 Cu3 S8'
_cell_volume   241.92401613
_cell_formula_units_Z   1
loop_
 _symmetry_equiv_pos_site_id
 _symmetry_equiv_pos_as_xyz
  1  'x, y, z'
loop_
 _atom_site_type_symbol
 _atom_site_label
 _atom_site_symmetry_multiplicity
 _atom_site_fract_x
 _atom_site_fract_y
 _atom_site_fract_z
 _atom_site_occupancy
  Nb  Nb0  1  0.50000001  0.00000000  0.00000001  1
  Nb  Nb1  1  0.74818414  0.51046000  0.62446198  1
  Nb  Nb2  1  0.74813410  0.37535000  0.88592298  1
  Nb  Nb3  1  0.74838304  0.11389400  0.48935600  1
  Cu  Cu4  1  0.25181612  0.48954000  0.37553797  1
  Cu  Cu5  1  0.25186615  0.62465001  0.11407697  1
  Cu  Cu6  1  0.25161722  0.88610601  0.51064395  1
  S  S7  1  0.75147317  0.66666667  0.33333330  1
  S  S8  1  0.24852708  0.33333334  0.66660098  1
  S  S9  1  0.75374017  0.64857901  0.94645497  1
  S  S10  1  0.75390503  0.05359800  0.70213500  1
  S  S11  1  0.75376708  0.29782300  0.35152599  1
  S  S12  1  0.24626009  0.35142100  0.05354498  1
  S  S13  1  0.24609523  0.94640201  0.29786495  1
  S  S14  1  0.24623317  0.70217701  0.64847396  1
