# generated using pymatgen
data_InBi
_symmetry_space_group_name_H-M   'P 1'
_cell_length_a   3.32421994
_cell_length_b   3.33010650
_cell_length_c   5.76803684
_cell_angle_alpha   73.27713013
_cell_angle_beta   73.25225067
_cell_angle_gamma   60.05845642
_symmetry_Int_Tables_number   1
_chemical_formula_structural   InBi
_chemical_formula_sum   'In1 Bi1'
_cell_volume   52.18021273
_cell_formula_units_Z   1
loop_
 _symmetry_equiv_pos_site_id
 _symmetry_equiv_pos_as_xyz
  1  'x, y, z'
loop_
 _atom_site_type_symbol
 _atom_site_label
 _atom_site_symmetry_multiplicity
 _atom_site_fract_x
 _atom_site_fract_y
 _atom_site_fract_z
 _atom_site_occupancy
  In  In0  1  0.74463901  0.26121699  0.24950502  1
  Bi  Bi1  1  0.25536101  0.73878298  0.75049501  1
