# generated using pymatgen
data_ThSi2
_symmetry_space_group_name_H-M   'P 1'
_cell_length_a   4.01088381
_cell_length_b   4.01088381
_cell_length_c   7.57856226
_cell_angle_alpha   105.34439850
_cell_angle_beta   105.34439850
_cell_angle_gamma   90.00000000
_symmetry_Int_Tables_number   1
_chemical_formula_structural   ThSi2
_chemical_formula_sum   'Th2 Si4'
_cell_volume   113.05873211
_cell_formula_units_Z   2
loop_
 _symmetry_equiv_pos_site_id
 _symmetry_equiv_pos_as_xyz
  1  'x, y, z'
loop_
 _atom_site_type_symbol
 _atom_site_label
 _atom_site_symmetry_multiplicity
 _atom_site_fract_x
 _atom_site_fract_y
 _atom_site_fract_z
 _atom_site_occupancy
  Th  Th0  1  0.74980306  0.74980304  0.49960604  1
  Th  Th1  1  0.49980305  0.99980306  0.99960605  1
  Si  Si2  1  0.33167003  0.33167002  0.66334003  1
  Si  Si3  1  0.08167002  0.58167003  0.16334002  1
  Si  Si4  1  0.91452706  0.41452702  0.82905404  1
  Si  Si5  1  0.16452701  0.16452701  0.32905401  1
