# generated using pymatgen
data_KNbO2
_symmetry_space_group_name_H-M   'P 1'
_cell_length_a   5.97544003
_cell_length_b   5.97544098
_cell_length_c   6.83851004
_cell_angle_alpha   90.00000000
_cell_angle_beta   90.00000000
_cell_angle_gamma   119.99999237
_symmetry_Int_Tables_number   1
_chemical_formula_structural   KNbO2
_chemical_formula_sum   'K3 Nb3 O6'
_cell_volume   211.46183991
_cell_formula_units_Z   3
loop_
 _symmetry_equiv_pos_site_id
 _symmetry_equiv_pos_as_xyz
  1  'x, y, z'
loop_
 _atom_site_type_symbol
 _atom_site_label
 _atom_site_symmetry_multiplicity
 _atom_site_fract_x
 _atom_site_fract_y
 _atom_site_fract_z
 _atom_site_occupancy
  K  K0  1  0.99999997  0.65364999  0.83333300  1
  K  K1  1  0.65365000  0.00000000  0.50000000  1
  K  K2  1  0.34634998  0.34634999  0.16666700  1
  Nb  Nb3  1  0.99999997  0.57476499  0.33333333  1
  Nb  Nb4  1  0.57476500  0.00000000  0.00000000  1
  Nb  Nb5  1  0.42523498  0.42523499  0.66666666  1
  O  O6  1  0.70240197  0.57141999  0.45987600  1
  O  O7  1  0.86901798  0.29759800  0.12654300  1
  O  O8  1  0.42857999  0.13098200  0.79320900  1
  O  O9  1  0.57141997  0.70240199  0.87345700  1
  O  O10  1  0.29759796  0.86901799  0.20679100  1
  O  O11  1  0.13098198  0.42857999  0.54012400  1
