# generated using pymatgen
data_Sr3CaTl2O6
_symmetry_space_group_name_H-M   'P 1'
_cell_length_a   6.01174688
_cell_length_b   6.01174688
_cell_length_c   6.01174688
_cell_angle_alpha   68.06923676
_cell_angle_beta   68.06923676
_cell_angle_gamma   68.06923676
_symmetry_Int_Tables_number   1
_chemical_formula_structural   Sr3CaTl2O6
_chemical_formula_sum   'Sr3 Ca1 Tl2 O6'
_cell_volume   179.91851435
_cell_formula_units_Z   1
loop_
 _symmetry_equiv_pos_site_id
 _symmetry_equiv_pos_as_xyz
  1  'x, y, z'
loop_
 _atom_site_type_symbol
 _atom_site_label
 _atom_site_symmetry_multiplicity
 _atom_site_fract_x
 _atom_site_fract_y
 _atom_site_fract_z
 _atom_site_occupancy
  Sr  Sr0  1  0.75000002  0.00912100  0.49087898  1
  Sr  Sr1  1  0.99087902  0.50912101  0.24999997  1
  Sr  Sr2  1  0.50912101  0.25000001  0.99087898  1
  Ca  Ca3  1  0.49087901  0.75000002  0.00912097  1
  Tl  Tl4  1  0.00912100  0.49087901  0.74999999  1
  Tl  Tl5  1  0.25000000  0.99087902  0.50912097  1
  O  O6  1  0.00000000  0.00000000  0.00000000  1
  O  O7  1  0.50000001  0.50000001  0.49999998  1
  O  O8  1  0.63132101  0.63132101  0.63132097  1
  O  O9  1  0.13132100  0.13132100  0.13132099  1
  O  O10  1  0.36867901  0.36867901  0.36867898  1
  O  O11  1  0.86867901  0.86867902  0.86867896  1
