# generated using pymatgen
data_Zr2Ti2SeO3
_symmetry_space_group_name_H-M   'P 1'
_cell_length_a   3.16751409
_cell_length_b   3.16751361
_cell_length_c   14.53347969
_cell_angle_alpha   90.00000000
_cell_angle_beta   90.00000000
_cell_angle_gamma   120.00000763
_symmetry_Int_Tables_number   1
_chemical_formula_structural   Zr2Ti2SeO3
_chemical_formula_sum   'Zr2 Ti2 Se1 O3'
_cell_volume   126.28077853
_cell_formula_units_Z   1
loop_
 _symmetry_equiv_pos_site_id
 _symmetry_equiv_pos_as_xyz
  1  'x, y, z'
loop_
 _atom_site_type_symbol
 _atom_site_label
 _atom_site_symmetry_multiplicity
 _atom_site_fract_x
 _atom_site_fract_y
 _atom_site_fract_z
 _atom_site_occupancy
  Zr  Zr0  1  0.66666666  0.33333333  0.91702802  1
  Zr  Zr1  1  0.33333336  0.66666666  0.41702801  1
  Ti  Ti2  1  0.33333336  0.66666666  0.08297200  1
  Ti  Ti3  1  0.66666666  0.33333333  0.58297201  1
  O  O4  1  0.66666666  0.33333333  0.25000001  1
  Se  Se5  1  0.33333336  0.66666666  0.75000002  1
  O  O6  1  0.00000000  0.00000000  0.00000000  1
  O  O7  1  0.00000000  0.00000000  0.50000001  1
