# generated using pymatgen
data_DyAl2
_symmetry_space_group_name_H-M   'P 1'
_cell_length_a   5.39412594
_cell_length_b   5.41360521
_cell_length_c   5.41360521
_cell_angle_alpha   60.21837234
_cell_angle_beta   60.11895752
_cell_angle_gamma   60.11895752
_symmetry_Int_Tables_number   1
_chemical_formula_structural   DyAl2
_chemical_formula_sum   'Dy2 Al4'
_cell_volume   112.16877656
_cell_formula_units_Z   2
loop_
 _symmetry_equiv_pos_site_id
 _symmetry_equiv_pos_as_xyz
  1  'x, y, z'
loop_
 _atom_site_type_symbol
 _atom_site_label
 _atom_site_symmetry_multiplicity
 _atom_site_fract_x
 _atom_site_fract_y
 _atom_site_fract_z
 _atom_site_occupancy
  Dy  Dy0  1  0.87495600  0.37504400  0.87504402  1
  Dy  Dy1  1  0.12504401  0.62495599  0.12495600  1
  Al  Al2  1  0.00000002  0.99999999  0.50000000  1
  Al  Al3  1  0.50000000  0.00000000  0.50000001  1
  Al  Al4  1  0.50000001  0.49999999  0.50000001  1
  Al  Al5  1  0.50000000  0.00000000  0.00000001  1
