# generated using pymatgen
data_Na4ScTi(SiO6)2
_symmetry_space_group_name_H-M   'P 1'
_cell_length_a   5.92263794
_cell_length_b   6.84307861
_cell_length_c   6.84307861
_cell_angle_alpha   82.15137482
_cell_angle_beta   75.01419830
_cell_angle_gamma   75.01419830
_symmetry_Int_Tables_number   1
_chemical_formula_structural   Na4ScTi(SiO6)2
_chemical_formula_sum   'Na4 Sc1 Ti1 Si2 O12'
_cell_volume   258.07669219
_cell_formula_units_Z   1
loop_
 _symmetry_equiv_pos_site_id
 _symmetry_equiv_pos_as_xyz
  1  'x, y, z'
loop_
 _atom_site_type_symbol
 _atom_site_label
 _atom_site_symmetry_multiplicity
 _atom_site_fract_x
 _atom_site_fract_y
 _atom_site_fract_z
 _atom_site_occupancy
  Na  Na0  1  1.00000000  0.71260802  0.28739196  1
  Na  Na1  1  0.49999997  0.91660203  0.08339799  1
  Na  Na2  1  -0.00000000  0.08640300  0.91359701  1
  Na  Na3  1  0.50000000  0.27254001  0.72745999  1
  Sc  Sc4  1  0.49887200  0.38034701  0.19318998  1
  Ti  Ti5  1  0.50112797  0.80681002  0.61965299  1
  Si  Si6  1  0.00434496  0.61698502  0.80339002  1
  Si  Si7  1  0.99565503  0.19661001  0.38301496  1
  O  O8  1  0.45542898  0.61950202  0.09203399  1
  O  O9  1  0.54457097  0.90796602  0.38049799  1
  O  O10  1  0.04429698  0.38023201  0.91198801  1
  O  O11  1  0.95570303  0.08801200  0.61976797  1
  O  O12  1  0.69623801  0.34549301  0.36832498  1
  O  O13  1  0.30376198  0.63167502  0.65450700  1
  O  O14  1  0.79675699  0.65266102  0.63796998  1
  O  O15  1  0.20324299  0.36203001  0.34733900  1
  O  O16  1  0.59265601  0.21888601  0.00528898  1
  O  O17  1  0.40734396  0.99471103  0.78111400  1
  O  O18  1  0.90088399  0.78930302  0.97937498  1
  O  O19  1  0.09911600  0.02062500  0.21069700  1
