# generated using pymatgen
data_La2CoC2
_symmetry_space_group_name_H-M   'P 1'
_cell_length_a   3.85391212
_cell_length_b   7.71063089
_cell_length_c   12.52465725
_cell_angle_alpha   90.00000000
_cell_angle_beta   90.00000000
_cell_angle_gamma   90.00000000
_symmetry_Int_Tables_number   1
_chemical_formula_structural   La2CoC2
_chemical_formula_sum   'La8 Co4 C8'
_cell_volume   372.18388984
_cell_formula_units_Z   4
loop_
 _symmetry_equiv_pos_site_id
 _symmetry_equiv_pos_as_xyz
  1  'x, y, z'
loop_
 _atom_site_type_symbol
 _atom_site_label
 _atom_site_symmetry_multiplicity
 _atom_site_fract_x
 _atom_site_fract_y
 _atom_site_fract_z
 _atom_site_occupancy
  La  La0  1  0.24999999  0.11689200  0.39655099  1
  La  La1  1  0.74999998  0.87334701  0.89896898  1
  La  La2  1  0.24999999  0.62665301  0.39896899  1
  La  La3  1  0.24999999  0.12665300  0.10103100  1
  La  La4  1  0.74999998  0.88310801  0.60344899  1
  La  La5  1  0.74999998  0.37334701  0.60103099  1
  La  La6  1  0.24999999  0.61689201  0.10344900  1
  La  La7  1  0.74999998  0.38310801  0.89655098  1
  Co  Co8  1  0.74999998  0.87176101  0.24818500  1
  Co  Co9  1  0.24999999  0.12823900  0.75181499  1
  Co  Co10  1  0.74999998  0.37176101  0.25181499  1
  Co  Co11  1  0.24999999  0.62823901  0.74818499  1
  C  C12  1  0.74999998  0.36790701  0.39222799  1
  C  C13  1  0.74999998  0.87551601  0.38931299  1
  C  C14  1  0.24999999  0.12448400  0.61068699  1
  C  C15  1  0.24999999  0.63209301  0.60777199  1
  C  C16  1  0.24999999  0.62448401  0.88931298  1
  C  C17  1  0.74999998  0.37551601  0.11068700  1
  C  C18  1  0.24999999  0.13209300  0.89222798  1
  C  C19  1  0.74999998  0.86790701  0.10777200  1
