# generated using pymatgen
data_Nb2S3
_symmetry_space_group_name_H-M   'P 1'
_cell_length_a   3.41085196
_cell_length_b   9.64853382
_cell_length_c   9.64853477
_cell_angle_alpha   120.00000000
_cell_angle_beta   90.00000000
_cell_angle_gamma   90.00000000
_symmetry_Int_Tables_number   1
_chemical_formula_structural   Nb2S3
_chemical_formula_sum   'Nb6 S9'
_cell_volume   274.98955066
_cell_formula_units_Z   3
loop_
 _symmetry_equiv_pos_site_id
 _symmetry_equiv_pos_as_xyz
  1  'x, y, z'
loop_
 _atom_site_type_symbol
 _atom_site_label
 _atom_site_symmetry_multiplicity
 _atom_site_fract_x
 _atom_site_fract_y
 _atom_site_fract_z
 _atom_site_occupancy
  Nb  Nb0  1  0.25101900  0.51289202  0.88757498  1
  Nb  Nb1  1  0.25101900  0.37468301  0.48710799  1
  Nb  Nb2  1  0.25101900  0.11242500  0.62531698  1
  Nb  Nb3  1  0.74898101  0.48710802  0.11242501  1
  Nb  Nb4  1  0.74898101  0.62531702  0.51289200  1
  Nb  Nb5  1  0.74898101  0.88757503  0.37468301  1
  S  S6  1  0.50000001  0.00000000  -0.00000000  1
  S  S7  1  0.24971300  0.66666669  0.33333334  1
  S  S8  1  0.75028701  0.33333334  0.66666665  1
  S  S9  1  0.24858100  0.66033602  0.71488899  1
  S  S10  1  0.24858100  0.05455300  0.33966399  1
  S  S11  1  0.24858100  0.28511101  0.94544697  1
  S  S12  1  0.75141901  0.33966401  0.28511100  1
  S  S13  1  0.75141901  0.94544703  0.66033600  1
  S  S14  1  0.75141901  0.71488902  0.05455302  1
