# generated using pymatgen
data_Li3TiO6
_symmetry_space_group_name_H-M   'P 1'
_cell_length_a   5.04501724
_cell_length_b   5.04501724
_cell_length_c   7.08193445
_cell_angle_alpha   69.13365936
_cell_angle_beta   69.13365936
_cell_angle_gamma   60.00001144
_symmetry_Int_Tables_number   1
_chemical_formula_structural   Li3TiO6
_chemical_formula_sum   'Li3 Ti1 O6'
_cell_volume   142.28736821
_cell_formula_units_Z   1
loop_
 _symmetry_equiv_pos_site_id
 _symmetry_equiv_pos_as_xyz
  1  'x, y, z'
loop_
 _atom_site_type_symbol
 _atom_site_label
 _atom_site_symmetry_multiplicity
 _atom_site_fract_x
 _atom_site_fract_y
 _atom_site_fract_z
 _atom_site_occupancy
  Li  Li0  1  0.83747000  0.83746998  0.48759002  1
  Li  Li1  1  0.16253000  0.16253000  0.51241001  1
  Li  Li2  1  0.60641600  0.60641599  0.18075201  1
  Ti  Ti3  1  0.39358400  0.39358399  0.81924802  1
  O  O4  1  0.89830999  0.55608599  0.33289502  1
  O  O5  1  0.55608599  0.21270900  0.33289501  1
  O  O6  1  0.21270901  0.89830998  0.33289501  1
  O  O7  1  0.78729099  0.10169000  0.66710502  1
  O  O8  1  0.44391400  0.78729098  0.66710502  1
  O  O9  1  0.10169000  0.44391399  0.66710502  1
