# generated using pymatgen
data_SmCo5
_symmetry_space_group_name_H-M   'P 1'
_cell_length_a   3.67504311
_cell_length_b   5.55269003
_cell_length_c   5.55268955
_cell_angle_alpha   120.00000000
_cell_angle_beta   90.00000000
_cell_angle_gamma   90.00000000
_symmetry_Int_Tables_number   1
_chemical_formula_structural   SmCo5
_chemical_formula_sum   'Sm1 Co5'
_cell_volume   98.12956925
_cell_formula_units_Z   1
loop_
 _symmetry_equiv_pos_site_id
 _symmetry_equiv_pos_as_xyz
  1  'x, y, z'
loop_
 _atom_site_type_symbol
 _atom_site_label
 _atom_site_symmetry_multiplicity
 _atom_site_fract_x
 _atom_site_fract_y
 _atom_site_fract_z
 _atom_site_occupancy
  Sm  Sm0  1  0.00000000  0.00000000  0.00000000  1
  Co  Co1  1  -0.00000000  0.33333332  0.66666664  1
  Co  Co2  1  0.99999997  0.66666664  0.33333329  1
  Co  Co3  1  0.49999999  0.49999998  0.49999996  1
  Co  Co4  1  0.49999999  0.00000000  0.49999999  1
  Co  Co5  1  0.49999999  0.49999998  -0.00000003  1
