# generated using pymatgen
data_NbNi3
_symmetry_space_group_name_H-M   'P 1'
_cell_length_a   4.33006811
_cell_length_b   5.47541189
_cell_length_c   5.47541285
_cell_angle_alpha   60.00000763
_cell_angle_beta   90.00000000
_cell_angle_gamma   90.00000000
_symmetry_Int_Tables_number   1
_chemical_formula_structural   NbNi3
_chemical_formula_sum   'Nb2 Ni6'
_cell_volume   112.42400647
_cell_formula_units_Z   2
loop_
 _symmetry_equiv_pos_site_id
 _symmetry_equiv_pos_as_xyz
  1  'x, y, z'
loop_
 _atom_site_type_symbol
 _atom_site_label
 _atom_site_symmetry_multiplicity
 _atom_site_fract_x
 _atom_site_fract_y
 _atom_site_fract_z
 _atom_site_occupancy
  Nb  Nb0  1  0.24999999  0.33333333  0.33333335  1
  Nb  Nb1  1  0.74999998  0.66666667  0.66666670  1
  Ni  Ni2  1  0.74999998  0.66547300  0.16726403  1
  Ni  Ni3  1  0.74999998  0.16726300  0.16726401  1
  Ni  Ni4  1  0.74999998  0.16726300  0.66547402  1
  Ni  Ni5  1  0.24999999  0.33452700  0.83273603  1
  Ni  Ni6  1  0.24999999  0.83273700  0.83273605  1
  Ni  Ni7  1  0.24999999  0.83273700  0.33452604  1
