# generated using pymatgen
data_Dy(AlNi3)2
_symmetry_space_group_name_H-M   'P 1'
_cell_length_a   4.02146816
_cell_length_b   8.60038185
_cell_length_c   8.60038185
_cell_angle_alpha   120.00000000
_cell_angle_beta   90.00000000
_cell_angle_gamma   90.00000000
_symmetry_Int_Tables_number   1
_chemical_formula_structural   Dy(AlNi3)2
_chemical_formula_sum   'Dy2 Al4 Ni12'
_cell_volume   257.60289215
_cell_formula_units_Z   2
loop_
 _symmetry_equiv_pos_site_id
 _symmetry_equiv_pos_as_xyz
  1  'x, y, z'
loop_
 _atom_site_type_symbol
 _atom_site_label
 _atom_site_symmetry_multiplicity
 _atom_site_fract_x
 _atom_site_fract_y
 _atom_site_fract_z
 _atom_site_occupancy
  Dy  Dy0  1  -0.00000000  0.66666667  0.33333332  1
  Dy  Dy1  1  -0.00000000  0.33333334  0.66666665  1
  Al  Al2  1  0.00000000  0.00000000  0.00000000  1
  Al  Al3  1  0.49999998  0.50000000  0.49999998  1
  Al  Al4  1  0.49999998  1.00000001  0.49999997  1
  Al  Al5  1  0.49999998  0.50000000  -0.00000001  1
  Ni  Ni6  1  0.99999996  0.67373801  0.67373798  1
  Ni  Ni7  1  0.99999996  0.32626200  0.32626199  1
  Ni  Ni8  1  -0.00000000  1.00000001  0.32626198  1
  Ni  Ni9  1  0.00000000  0.00000000  0.67373799  1
  Ni  Ni10  1  0.99999996  0.32626200  0.99999998  1
  Ni  Ni11  1  -0.00000000  0.67373801  0.99999997  1
  Ni  Ni12  1  0.49999998  0.83963201  0.16036798  1
  Ni  Ni13  1  0.49999998  0.16036800  0.83963199  1
  Ni  Ni14  1  0.49999998  0.32073600  0.16036799  1
  Ni  Ni15  1  0.49999998  0.67926401  0.83963198  1
  Ni  Ni16  1  0.49999998  0.83963201  0.67926398  1
  Ni  Ni17  1  0.49999998  0.16036800  0.32073599  1
