# generated using pymatgen
data_KCdBr2
_symmetry_space_group_name_H-M   'P 1'
_cell_length_a   4.40039110
_cell_length_b   4.40039110
_cell_length_c   8.09008408
_cell_angle_alpha   74.21894836
_cell_angle_beta   74.21894836
_cell_angle_gamma   59.99998474
_symmetry_Int_Tables_number   1
_chemical_formula_structural   KCdBr2
_chemical_formula_sum   'K1 Cd1 Br2'
_cell_volume   128.80142025
_cell_formula_units_Z   1
loop_
 _symmetry_equiv_pos_site_id
 _symmetry_equiv_pos_as_xyz
  1  'x, y, z'
loop_
 _atom_site_type_symbol
 _atom_site_label
 _atom_site_symmetry_multiplicity
 _atom_site_fract_x
 _atom_site_fract_y
 _atom_site_fract_z
 _atom_site_occupancy
  K  K0  1  0.23222699  0.23222699  0.30331900  1
  Cd  Cd1  1  0.76777296  0.76777298  0.69668098  1
  Br  Br2  1  0.49999997  0.49999999  0.49999999  1
  Br  Br3  1  0.00000000  0.00000000  0.00000000  1
