# generated using pymatgen
data_NaLa2Co2O7
_symmetry_space_group_name_H-M   'P 1'
_cell_length_a   3.76325798
_cell_length_b   3.76325798
_cell_length_c   10.31271553
_cell_angle_alpha   100.51291656
_cell_angle_beta   100.51291656
_cell_angle_gamma   90.00000000
_symmetry_Int_Tables_number   1
_chemical_formula_structural   NaLa2Co2O7
_chemical_formula_sum   'Na1 La2 Co2 O7'
_cell_volume   141.10398585
_cell_formula_units_Z   1
loop_
 _symmetry_equiv_pos_site_id
 _symmetry_equiv_pos_as_xyz
  1  'x, y, z'
loop_
 _atom_site_type_symbol
 _atom_site_label
 _atom_site_symmetry_multiplicity
 _atom_site_fract_x
 _atom_site_fract_y
 _atom_site_fract_z
 _atom_site_occupancy
  Na  Na0  1  0.50000000  0.50000000  0.00000000  1
  La  La1  1  0.31763900  0.31763900  0.63527802  1
  La  La2  1  0.68236101  0.68236100  0.36472202  1
  Co  Co3  1  0.90498601  0.90498601  0.80997203  1
  Co  Co4  1  0.09501400  0.09501400  0.19002801  1
  O  O5  1  0.00000000  0.00000000  0.00000000  1
  O  O6  1  0.39856301  0.89856301  0.79712603  1
  O  O7  1  0.89856301  0.39856300  0.79712603  1
  O  O8  1  0.79989101  0.79989101  0.59978202  1
  O  O9  1  0.20010900  0.20010900  0.40021801  1
  O  O10  1  0.10143700  0.60143700  0.20287401  1
  O  O11  1  0.60143700  0.10143700  0.20287401  1
