# generated using pymatgen
data_NbFeP
_symmetry_space_group_name_H-M   'P 1'
_cell_length_a   3.68283796
_cell_length_b   6.23130894
_cell_length_c   7.13281584
_cell_angle_alpha   90.00000000
_cell_angle_beta   90.00000000
_cell_angle_gamma   90.00000000
_symmetry_Int_Tables_number   1
_chemical_formula_structural   NbFeP
_chemical_formula_sum   'Nb4 Fe4 P4'
_cell_volume   163.69028532
_cell_formula_units_Z   4
loop_
 _symmetry_equiv_pos_site_id
 _symmetry_equiv_pos_as_xyz
  1  'x, y, z'
loop_
 _atom_site_type_symbol
 _atom_site_label
 _atom_site_symmetry_multiplicity
 _atom_site_fract_x
 _atom_site_fract_y
 _atom_site_fract_z
 _atom_site_occupancy
  Nb  Nb0  1  0.25000000  0.52429801  0.18205100  1
  Nb  Nb1  1  0.75000001  0.47570200  0.81794902  1
  Nb  Nb2  1  0.75000001  0.97570201  0.68205102  1
  Nb  Nb3  1  0.25000000  0.02429800  0.31794901  1
  Fe  Fe4  1  0.25000000  0.64096001  0.56025601  1
  Fe  Fe5  1  0.75000001  0.35904000  0.43974401  1
  Fe  Fe6  1  0.75000001  0.85904001  0.06025600  1
  Fe  Fe7  1  0.25000000  0.14096000  0.93974402  1
  P  P8  1  0.25000000  0.77171001  0.87781002  1
  P  P9  1  0.75000001  0.22829000  0.12219000  1
  P  P10  1  0.75000001  0.72829001  0.37781001  1
  P  P11  1  0.25000000  0.27171000  0.62219001  1
