# generated using pymatgen
data_MgZn
_symmetry_space_group_name_H-M   'P 1'
_cell_length_a   3.06376410
_cell_length_b   5.99964046
_cell_length_c   7.00076580
_cell_angle_alpha   105.34215546
_cell_angle_beta   90.00000000
_cell_angle_gamma   104.79307556
_symmetry_Int_Tables_number   1
_chemical_formula_structural   MgZn
_chemical_formula_sum   'Mg3 Zn3'
_cell_volume   119.66984617
_cell_formula_units_Z   3
loop_
 _symmetry_equiv_pos_site_id
 _symmetry_equiv_pos_as_xyz
  1  'x, y, z'
loop_
 _atom_site_type_symbol
 _atom_site_label
 _atom_site_symmetry_multiplicity
 _atom_site_fract_x
 _atom_site_fract_y
 _atom_site_fract_z
 _atom_site_occupancy
  Mg  Mg0  1  0.69863494  0.39727001  0.15546801  1
  Mg  Mg1  1  0.97473588  0.94947202  0.21859203  1
  Mg  Mg2  1  0.02526399  0.05052800  0.78140802  1
  Zn  Zn3  1  0.30136493  0.60273002  0.84453204  1
  Zn  Zn4  1  0.35844992  0.71690002  0.47436103  1
  Zn  Zn5  1  0.64154995  0.28310001  0.52563902  1
