# generated using pymatgen
data_Nd2B3Rh13
_symmetry_space_group_name_H-M   'P 1'
_cell_length_a   5.02483797
_cell_length_b   5.02483845
_cell_length_c   9.75566387
_cell_angle_alpha   90.00000000
_cell_angle_beta   90.00000000
_cell_angle_gamma   120.00000000
_symmetry_Int_Tables_number   1
_chemical_formula_structural   Nd2B3Rh13
_chemical_formula_sum   'Nd2 B3 Rh13'
_cell_volume   213.32002492
_cell_formula_units_Z   1
loop_
 _symmetry_equiv_pos_site_id
 _symmetry_equiv_pos_as_xyz
  1  'x, y, z'
loop_
 _atom_site_type_symbol
 _atom_site_label
 _atom_site_symmetry_multiplicity
 _atom_site_fract_x
 _atom_site_fract_y
 _atom_site_fract_z
 _atom_site_occupancy
  Nd  Nd0  1  0.00000000  0.00000000  0.34163600  1
  Nd  Nd1  1  0.00000000  0.00000000  0.65836401  1
  B  B2  1  0.00000000  0.00000000  0.00000000  1
  B  B3  1  0.50000000  0.00000000  0.50000001  1
  B  B4  1  0.00000004  0.50000003  0.50000001  1
  Rh  Rh5  1  0.50000004  0.50000003  0.79748901  1
  Rh  Rh6  1  0.50000000  0.00000000  0.79748901  1
  Rh  Rh7  1  0.00000004  0.50000003  0.79748901  1
  Rh  Rh8  1  0.50000004  0.50000003  0.20251100  1
  Rh  Rh9  1  0.50000000  0.00000000  0.20251100  1
  Rh  Rh10  1  0.00000004  0.50000003  0.20251100  1
  Rh  Rh11  1  0.66666670  0.33333335  -0.00000000  1
  Rh  Rh12  1  0.33333338  0.66666671  -0.00000000  1
  Rh  Rh13  1  0.50000004  0.50000003  0.50000001  1
  Rh  Rh14  1  0.66666670  0.33333335  0.34972400  1
  Rh  Rh15  1  0.33333338  0.66666671  0.34972400  1
  Rh  Rh16  1  0.33333338  0.66666671  0.65027601  1
  Rh  Rh17  1  0.66666670  0.33333335  0.65027601  1
