# generated using pymatgen
data_Ce(GaPd)3
_symmetry_space_group_name_H-M   'P 1'
_cell_length_a   4.14446497
_cell_length_b   7.43161678
_cell_length_c   7.43161678
_cell_angle_alpha   90.00000000
_cell_angle_beta   90.00000000
_cell_angle_gamma   90.00000000
_symmetry_Int_Tables_number   1
_chemical_formula_structural   Ce(GaPd)3
_chemical_formula_sum   'Ce2 Ga6 Pd6'
_cell_volume   228.89435745
_cell_formula_units_Z   2
loop_
 _symmetry_equiv_pos_site_id
 _symmetry_equiv_pos_as_xyz
  1  'x, y, z'
loop_
 _atom_site_type_symbol
 _atom_site_label
 _atom_site_symmetry_multiplicity
 _atom_site_fract_x
 _atom_site_fract_y
 _atom_site_fract_z
 _atom_site_occupancy
  Ce  Ce0  1  -0.00000000  0.50000001  0.50000001  1
  Ce  Ce1  1  0.50000000  0.00000000  0.00000000  1
  Ga  Ga2  1  0.50000000  0.59312702  0.15853600  1
  Ga  Ga3  1  0.50000000  0.40687301  0.84146402  1
  Ga  Ga4  1  0.00000000  0.09312700  0.34146401  1
  Ga  Ga5  1  0.00000000  0.90687303  0.65853602  1
  Ga  Ga6  1  0.50000000  0.15853600  0.59312702  1
  Ga  Ga7  1  0.50000000  0.84146402  0.40687301  1
  Pd  Pd8  1  0.00000000  0.34146401  0.09312700  1
  Pd  Pd9  1  -0.00000000  0.65853602  0.90687303  1
  Pd  Pd10  1  0.50000000  0.71083702  0.71083702  1
  Pd  Pd11  1  0.50000000  0.28916301  0.28916301  1
  Pd  Pd12  1  0.00000000  0.21083701  0.78916302  1
  Pd  Pd13  1  0.00000000  0.78916302  0.21083701  1
