# generated using pymatgen
data_LiVPO5
_symmetry_space_group_name_H-M   'P 1'
_cell_length_a   5.20516396
_cell_length_b   5.25680304
_cell_length_c   7.43999720
_cell_angle_alpha   109.46226501
_cell_angle_beta   105.55854797
_cell_angle_gamma   97.66188812
_symmetry_Int_Tables_number   1
_chemical_formula_structural   LiVPO5
_chemical_formula_sum   'Li2 V2 P2 O10'
_cell_volume   179.26775812
_cell_formula_units_Z   2
loop_
 _symmetry_equiv_pos_site_id
 _symmetry_equiv_pos_as_xyz
  1  'x, y, z'
loop_
 _atom_site_type_symbol
 _atom_site_label
 _atom_site_symmetry_multiplicity
 _atom_site_fract_x
 _atom_site_fract_y
 _atom_site_fract_z
 _atom_site_occupancy
  Li  Li0  1  0.49999998  0.49999999  0.49999997  1
  Li  Li1  1  0.00000000  0.00000000  0.00000000  1
  V  V2  1  0.55402998  0.87481499  0.22849396  1
  V  V3  1  0.44596999  0.12518500  0.77150598  1
  P  P4  1  0.98497797  0.30659800  0.33418097  1
  P  P5  1  0.01502199  0.69340199  0.66581897  1
  O  O6  1  0.86244397  0.68863699  0.72131696  1
  O  O7  1  0.65476698  0.18510100  0.38330198  1
  O  O8  1  0.37343299  0.32104700  0.66077298  1
  O  O9  1  0.71256297  0.84605399  0.07732996  1
  O  O10  1  0.24284598  0.80016099  0.11838497  1
  O  O11  1  0.75715398  0.19983900  0.88161497  1
  O  O12  1  0.28743699  0.15394600  0.92266998  1
  O  O13  1  0.62656698  0.67895299  0.33922697  1
  O  O14  1  0.34523298  0.81489899  0.61669796  1
  O  O15  1  0.13755599  0.31136300  0.27868299  1
