# generated using pymatgen
data_Sm5Sb3
_symmetry_space_group_name_H-M   'P 1'
_cell_length_a   6.88558292
_cell_length_b   9.07861233
_cell_length_c   9.07861137
_cell_angle_alpha   120.00000000
_cell_angle_beta   90.00000000
_cell_angle_gamma   90.00000000
_symmetry_Int_Tables_number   1
_chemical_formula_structural   Sm5Sb3
_chemical_formula_sum   'Sm10 Sb6'
_cell_volume   491.48497049
_cell_formula_units_Z   2
loop_
 _symmetry_equiv_pos_site_id
 _symmetry_equiv_pos_as_xyz
  1  'x, y, z'
loop_
 _atom_site_type_symbol
 _atom_site_label
 _atom_site_symmetry_multiplicity
 _atom_site_fract_x
 _atom_site_fract_y
 _atom_site_fract_z
 _atom_site_occupancy
  Sm  Sm0  1  1.00000001  0.33333331  0.66666666  1
  Sm  Sm1  1  -0.00000000  0.66666663  0.33333331  1
  Sm  Sm2  1  0.50000001  0.66666663  0.33333331  1
  Sm  Sm3  1  0.50000001  0.33333331  0.66666666  1
  Sm  Sm4  1  0.25000000  0.24870299  -0.00000001  1
  Sm  Sm5  1  0.25000000  0.75129696  0.75129698  1
  Sm  Sm6  1  0.25000000  0.99999994  0.24870296  1
  Sm  Sm7  1  0.75000001  0.75129696  -0.00000003  1
  Sm  Sm8  1  0.75000001  0.24870299  0.24870299  1
  Sm  Sm9  1  0.75000001  0.99999994  0.75129697  1
  Sb  Sb10  1  0.25000000  0.60941197  -0.00000002  1
  Sb  Sb11  1  0.25000000  0.39058798  0.39058799  1
  Sb  Sb12  1  0.25000000  0.99999994  0.60941197  1
  Sb  Sb13  1  0.75000001  0.39058798  -0.00000002  1
  Sb  Sb14  1  0.75000001  0.60941197  0.60941198  1
  Sb  Sb15  1  0.75000001  0.99999994  0.39058796  1
