# generated using pymatgen
data_MnFe3O2
_symmetry_space_group_name_H-M   'P 1'
_cell_length_a   3.03677106
_cell_length_b   3.03677106
_cell_length_c   7.42512989
_cell_angle_alpha   90.00000000
_cell_angle_beta   90.00000000
_cell_angle_gamma   90.00000000
_symmetry_Int_Tables_number   1
_chemical_formula_structural   MnFe3O2
_chemical_formula_sum   'Mn1 Fe3 O2'
_cell_volume   68.47438795
_cell_formula_units_Z   1
loop_
 _symmetry_equiv_pos_site_id
 _symmetry_equiv_pos_as_xyz
  1  'x, y, z'
loop_
 _atom_site_type_symbol
 _atom_site_label
 _atom_site_symmetry_multiplicity
 _atom_site_fract_x
 _atom_site_fract_y
 _atom_site_fract_z
 _atom_site_occupancy
  Fe  Fe0  1  0.49999999  0.00000000  0.17806700  1
  Mn  Mn1  1  0.00000000  0.49999999  0.82193301  1
  Fe  Fe2  1  0.00000000  0.49999999  0.41375301  1
  Fe  Fe3  1  0.49999999  0.00000000  0.58624701  1
  O  O4  1  0.00000000  0.49999999  0.13902000  1
  O  O5  1  0.49999999  0.00000000  0.86098001  1
