# generated using pymatgen
data_Ce10Ni5Sb
_symmetry_space_group_name_H-M   'P 1'
_cell_length_a   7.82986593
_cell_length_b   8.76760483
_cell_length_c   7.82986593
_cell_angle_alpha   63.47920990
_cell_angle_beta   90.00000000
_cell_angle_gamma   116.52079010
_symmetry_Int_Tables_number   1
_chemical_formula_structural   Ce10Ni5Sb
_chemical_formula_sum   'Ce10 Ni5 Sb1'
_cell_volume   416.78477825
_cell_formula_units_Z   1
loop_
 _symmetry_equiv_pos_site_id
 _symmetry_equiv_pos_as_xyz
  1  'x, y, z'
loop_
 _atom_site_type_symbol
 _atom_site_label
 _atom_site_symmetry_multiplicity
 _atom_site_fract_x
 _atom_site_fract_y
 _atom_site_fract_z
 _atom_site_occupancy
  Ce  Ce0  1  0.00000000  0.00000000  0.00000000  1
  Ce  Ce1  1  0.50000000  0.00000000  0.50000000  1
  Ce  Ce2  1  0.79899301  0.28486200  0.01413100  1
  Ce  Ce3  1  0.20100700  0.71513800  0.98586901  1
  Ce  Ce4  1  0.48587000  0.28486400  0.70100601  1
  Ce  Ce5  1  0.29899300  0.28486300  0.20100700  1
  Ce  Ce6  1  0.01413000  0.71513700  0.48587001  1
  Ce  Ce7  1  0.51413000  0.71513600  0.29899400  1
  Ce  Ce8  1  0.70100700  0.71513700  0.79899301  1
  Ce  Ce9  1  0.98587001  0.28486300  0.51413000  1
  Ni  Ni10  1  0.25000000  0.50000000  0.75000001  1
  Ni  Ni11  1  0.75000001  0.50000000  0.25000000  1
  Ni  Ni12  1  0.13654800  0.99999901  0.63654901  1
  Ni  Ni13  1  0.86345201  0.00000100  0.36345100  1
  Ni  Ni14  1  0.63654801  0.00000000  0.86345201  1
  Sb  Sb15  1  0.36345200  0.00000000  0.13654800  1
