# generated using pymatgen
data_Sc3VSnS8
_symmetry_space_group_name_H-M   'P 1'
_cell_length_a   7.19291925
_cell_length_b   7.19291925
_cell_length_c   7.19291925
_cell_angle_alpha   60.00000000
_cell_angle_beta   60.00000000
_cell_angle_gamma   60.00000000
_symmetry_Int_Tables_number   1
_chemical_formula_structural   Sc3VSnS8
_chemical_formula_sum   'Sc3 V1 Sn1 S8'
_cell_volume   263.14829311
_cell_formula_units_Z   1
loop_
 _symmetry_equiv_pos_site_id
 _symmetry_equiv_pos_as_xyz
  1  'x, y, z'
loop_
 _atom_site_type_symbol
 _atom_site_label
 _atom_site_symmetry_multiplicity
 _atom_site_fract_x
 _atom_site_fract_y
 _atom_site_fract_z
 _atom_site_occupancy
  V  V0  1  0.00000000  0.00000000  0.00000000  1
  Sc  Sc1  1  0.59873000  0.20380800  0.59873100  1
  Sc  Sc2  1  0.59873000  0.59873100  0.59873100  1
  Sc  Sc3  1  0.59873000  0.59873100  0.20380800  1
  Sn  Sn4  1  0.20380700  0.59873100  0.59873100  1
  S  S5  1  0.86312200  0.41063600  0.86312100  1
  S  S6  1  0.86312200  0.86312100  0.86312100  1
  S  S7  1  0.86312200  0.86312100  0.41063600  1
  S  S8  1  0.41063700  0.86312100  0.86312100  1
  S  S9  1  0.37037700  0.88886700  0.37037800  1
  S  S10  1  0.37037700  0.37037800  0.37037800  1
  S  S11  1  0.37037700  0.37037800  0.88886700  1
  S  S12  1  0.88886600  0.37037800  0.37037800  1
