# generated using pymatgen
data_La3BiO10
_symmetry_space_group_name_H-M   'P 1'
_cell_length_a   3.92722011
_cell_length_b   6.86271286
_cell_length_c   8.84471703
_cell_angle_alpha   74.97917938
_cell_angle_beta   77.17292023
_cell_angle_gamma   73.37374878
_symmetry_Int_Tables_number   1
_chemical_formula_structural   La3BiO10
_chemical_formula_sum   'La3 Bi1 O10'
_cell_volume   217.77312937
_cell_formula_units_Z   1
loop_
 _symmetry_equiv_pos_site_id
 _symmetry_equiv_pos_as_xyz
  1  'x, y, z'
loop_
 _atom_site_type_symbol
 _atom_site_label
 _atom_site_symmetry_multiplicity
 _atom_site_fract_x
 _atom_site_fract_y
 _atom_site_fract_z
 _atom_site_occupancy
  La  La0  1  0.01044790  0.99340504  0.98569903  1
  La  La1  1  0.18384795  0.42797002  0.20433401  1
  La  La2  1  0.39657191  0.79073903  0.41611702  1
  Bi  Bi3  1  0.60629296  0.19680701  0.59060701  1
  O  O4  1  0.80485192  0.58437703  0.80591902  1
  O  O5  1  0.81296895  0.31493101  0.05913101  1
  O  O6  1  0.59274694  0.46250002  0.35200601  1
  O  O7  1  0.21292798  0.14573901  0.42840501  1
  O  O8  1  0.98578289  0.78813203  0.24030202  1
  O  O9  1  0.79593989  0.84374304  0.56437703  1
  O  O10  1  0.01036597  0.24302301  0.73624501  1
  O  O11  1  0.40198693  0.54058002  0.65544602  1
  O  O12  1  0.20520893  0.63838803  0.95119402  1
  O  O13  1  0.59406089  0.94808404  0.86379403  1
