# generated using pymatgen
data_Sm3CdPd5
_symmetry_space_group_name_H-M   'P 1'
_cell_length_a   3.97984695
_cell_length_b   7.92556190
_cell_length_c   7.92556190
_cell_angle_alpha   120.00000000
_cell_angle_beta   90.00000000
_cell_angle_gamma   90.00000000
_symmetry_Int_Tables_number   1
_chemical_formula_structural   Sm3CdPd5
_chemical_formula_sum   'Sm3 Cd1 Pd5'
_cell_volume   216.49961493
_cell_formula_units_Z   1
loop_
 _symmetry_equiv_pos_site_id
 _symmetry_equiv_pos_as_xyz
  1  'x, y, z'
loop_
 _atom_site_type_symbol
 _atom_site_label
 _atom_site_symmetry_multiplicity
 _atom_site_fract_x
 _atom_site_fract_y
 _atom_site_fract_z
 _atom_site_occupancy
  Sm  Sm0  1  0.50000001  0.59686601  1.00000001  1
  Sm  Sm1  1  0.50000001  0.40313400  0.40313400  1
  Sm  Sm2  1  0.50000001  0.00000000  0.59686600  1
  Pd  Pd3  1  -0.00000000  0.33333334  0.66666667  1
  Pd  Pd4  1  -0.00000000  0.66666667  0.33333333  1
  Cd  Cd5  1  0.50000001  0.00000000  -0.00000000  1
  Pd  Pd6  1  -0.00000000  0.26257200  1.00000001  1
  Pd  Pd7  1  -0.00000000  0.73742801  0.73742800  1
  Pd  Pd8  1  -0.00000000  0.00000000  0.26257200  1
