# generated using pymatgen
data_ScBe3Tc2
_symmetry_space_group_name_H-M   'P 1'
_cell_length_a   4.82510567
_cell_length_b   4.82510567
_cell_length_c   4.82510567
_cell_angle_alpha   60.00000000
_cell_angle_beta   60.00000000
_cell_angle_gamma   60.00000000
_symmetry_Int_Tables_number   1
_chemical_formula_structural   ScBe3Tc2
_chemical_formula_sum   'Sc1 Be3 Tc2'
_cell_volume   79.43382723
_cell_formula_units_Z   1
loop_
 _symmetry_equiv_pos_site_id
 _symmetry_equiv_pos_as_xyz
  1  'x, y, z'
loop_
 _atom_site_type_symbol
 _atom_site_label
 _atom_site_symmetry_multiplicity
 _atom_site_fract_x
 _atom_site_fract_y
 _atom_site_fract_z
 _atom_site_occupancy
  Sc  Sc0  1  0.25000000  0.25000000  0.25000000  1
  Be  Be1  1  0.00000000  0.00000000  0.00000000  1
  Be  Be2  1  0.62500001  0.62500001  0.12500000  1
  Tc  Tc3  1  0.62500001  0.62500001  0.62500001  1
  Be  Be4  1  0.62500001  0.12500000  0.62500001  1
  Tc  Tc5  1  0.12500000  0.62500001  0.62500001  1
