# generated using pymatgen
data_Ba2SrI6
_symmetry_space_group_name_H-M   'P 1'
_cell_length_a   7.90668821
_cell_length_b   8.97478962
_cell_length_c   13.73000336
_cell_angle_alpha   95.20023346
_cell_angle_beta   106.73435211
_cell_angle_gamma   90.00000000
_symmetry_Int_Tables_number   1
_chemical_formula_structural   Ba2SrI6
_chemical_formula_sum   'Ba4 Sr2 I12'
_cell_volume   928.84333598
_cell_formula_units_Z   2
loop_
 _symmetry_equiv_pos_site_id
 _symmetry_equiv_pos_as_xyz
  1  'x, y, z'
loop_
 _atom_site_type_symbol
 _atom_site_label
 _atom_site_symmetry_multiplicity
 _atom_site_fract_x
 _atom_site_fract_y
 _atom_site_fract_z
 _atom_site_occupancy
  Ba  Ba0  1  0.73377900  0.25000001  0.00000004  1
  Ba  Ba1  1  0.26622102  0.75000002  0.00000004  1
  Ba  Ba2  1  0.39697100  0.13460100  0.34311701  1
  Ba  Ba3  1  0.94614601  0.63460102  0.34311705  1
  Sr  Sr4  1  0.05385401  0.36539901  0.65688300  1
  Sr  Sr5  1  0.60302902  0.86539903  0.65688304  1
  I  I6  1  0.50278700  0.07693500  0.13504102  1
  I  I7  1  0.63225401  0.57693502  0.13504104  1
  I  I8  1  0.11959401  0.37630501  0.21132101  1
  I  I9  1  0.09172702  0.87630503  0.21132104  1
  I  I10  1  0.76009400  0.35912001  0.43266403  1
  I  I11  1  0.67257002  0.85912003  0.43266405  1
  I  I12  1  0.32743000  0.14088000  0.56733600  1
  I  I13  1  0.23990602  0.64088002  0.56733602  1
  I  I14  1  0.90827300  0.12369500  0.78867901  1
  I  I15  1  0.88040601  0.62369502  0.78867903  1
  I  I16  1  0.36774601  0.42306501  0.86495900  1
  I  I17  1  0.49721302  0.92306503  0.86495903  1
