# generated using pymatgen
data_HfC
_symmetry_space_group_name_H-M   'P 1'
_cell_length_a   3.24157238
_cell_length_b   3.24157238
_cell_length_c   5.64388609
_cell_angle_alpha   73.31105804
_cell_angle_beta   73.31105804
_cell_angle_gamma   59.99999237
_symmetry_Int_Tables_number   1
_chemical_formula_structural   HfC
_chemical_formula_sum   'Hf2 C2'
_cell_volume   48.45349356
_cell_formula_units_Z   2
loop_
 _symmetry_equiv_pos_site_id
 _symmetry_equiv_pos_as_xyz
  1  'x, y, z'
loop_
 _atom_site_type_symbol
 _atom_site_label
 _atom_site_symmetry_multiplicity
 _atom_site_fract_x
 _atom_site_fract_y
 _atom_site_fract_z
 _atom_site_occupancy
  Hf  Hf0  1  0.00000000  0.00000000  0.00000000  1
  Hf  Hf1  1  0.49999999  0.50000000  0.49999996  1
  C  C2  1  0.24504799  0.24504800  0.26485598  1
  C  C3  1  0.75495198  0.75495200  0.73514394  1
