# generated using pymatgen
data_YFeGe4
_symmetry_space_group_name_H-M   'P 1'
_cell_length_a   5.36787796
_cell_length_b   5.36787796
_cell_length_c   8.60555744
_cell_angle_alpha   108.17282867
_cell_angle_beta   108.17282867
_cell_angle_gamma   90.00000000
_symmetry_Int_Tables_number   1
_chemical_formula_structural   YFeGe4
_chemical_formula_sum   'Y2 Fe2 Ge8'
_cell_volume   222.53855189
_cell_formula_units_Z   2
loop_
 _symmetry_equiv_pos_site_id
 _symmetry_equiv_pos_as_xyz
  1  'x, y, z'
loop_
 _atom_site_type_symbol
 _atom_site_label
 _atom_site_symmetry_multiplicity
 _atom_site_fract_x
 _atom_site_fract_y
 _atom_site_fract_z
 _atom_site_occupancy
  Y  Y0  1  0.99603799  0.99603800  0.99207597  1
  Y  Y1  1  0.50854000  0.50854000  0.01707999  1
  Fe  Fe2  1  0.21891699  0.71891700  0.43783398  1
  Fe  Fe3  1  0.71891700  0.21891700  0.43783399  1
  Ge  Ge4  1  0.03816700  0.53816700  0.07633399  1
  Ge  Ge5  1  0.53816700  0.03816700  0.07633399  1
  Ge  Ge6  1  0.17754100  0.17754100  0.35508199  1
  Ge  Ge7  1  0.68617400  0.68617400  0.37234798  1
  Ge  Ge8  1  0.58710500  0.13411800  0.72122298  1
  Ge  Ge9  1  0.58710500  0.58710500  0.72122198  1
  Ge  Ge10  1  0.13411700  0.13411700  0.72122199  1
  Ge  Ge11  1  0.13411700  0.58710400  0.72122098  1
