# generated using pymatgen
data_SrTiO3
_symmetry_space_group_name_H-M   'P 1'
_cell_length_a   5.61376762
_cell_length_b   5.61376524
_cell_length_c   8.00638485
_cell_angle_alpha   90.00000000
_cell_angle_beta   90.00000000
_cell_angle_gamma   89.99999237
_symmetry_Int_Tables_number   1
_chemical_formula_structural   SrTiO3
_chemical_formula_sum   'Sr4 Ti4 O12'
_cell_volume   252.31620294
_cell_formula_units_Z   4
loop_
 _symmetry_equiv_pos_site_id
 _symmetry_equiv_pos_as_xyz
  1  'x, y, z'
loop_
 _atom_site_type_symbol
 _atom_site_label
 _atom_site_symmetry_multiplicity
 _atom_site_fract_x
 _atom_site_fract_y
 _atom_site_fract_z
 _atom_site_occupancy
  Sr  Sr0  1  0.49998497  0.99998701  0.74999801  1
  Sr  Sr1  1  0.99998596  0.49998800  0.24999700  1
  Sr  Sr2  1  0.49998497  0.99998701  0.24999700  1
  Sr  Sr3  1  0.99998596  0.49998800  0.74999801  1
  Ti  Ti4  1  0.50015798  0.50001400  0.49999301  1
  Ti  Ti5  1  0.00008600  0.00019700  0.00004900  1
  Ti  Ti6  1  0.49998998  0.49999400  0.99999802  1
  Ti  Ti7  1  0.99999495  0.99999001  0.50000001  1
  O  O8  1  0.99998495  0.99998901  0.74637801  1
  O  O9  1  0.49998698  0.49998700  0.24637900  1
  O  O10  1  0.75247796  0.75248001  0.49999701  1
  O  O11  1  0.25247599  0.25247800  0.99999802  1
  O  O12  1  0.75247697  0.24749600  0.49999701  1
  O  O13  1  0.25247498  0.74749801  0.99999802  1
  O  O14  1  0.99998495  0.99998901  0.25361700  1
  O  O15  1  0.49998698  0.49998700  0.75361701  1
  O  O16  1  0.24749299  0.24749500  0.49999701  1
  O  O17  1  0.74749496  0.74749701  0.99999802  1
  O  O18  1  0.24749398  0.75248001  0.49999701  1
  O  O19  1  0.74749697  0.25247700  0.99999802  1
