# generated using pymatgen
data_DyAl5Si6
_symmetry_space_group_name_H-M   'P 1'
_cell_length_a   3.84588408
_cell_length_b   3.84588385
_cell_length_c   15.02009201
_cell_angle_alpha   90.00000000
_cell_angle_beta   90.00000000
_cell_angle_gamma   120.00000000
_symmetry_Int_Tables_number   1
_chemical_formula_structural   DyAl5Si6
_chemical_formula_sum   'Dy1 Al5 Si6'
_cell_volume   192.39579626
_cell_formula_units_Z   1
loop_
 _symmetry_equiv_pos_site_id
 _symmetry_equiv_pos_as_xyz
  1  'x, y, z'
loop_
 _atom_site_type_symbol
 _atom_site_label
 _atom_site_symmetry_multiplicity
 _atom_site_fract_x
 _atom_site_fract_y
 _atom_site_fract_z
 _atom_site_occupancy
  Dy  Dy0  1  0.00000000  0.00000000  0.50000000  1
  Al  Al1  1  0.00000000  0.00000000  0.00000000  1
  Al  Al2  1  0.00000000  0.00000000  0.75000000  1
  Al  Al3  1  0.00000000  0.00000000  0.25000000  1
  Al  Al4  1  0.66666664  0.33333332  0.62991200  1
  Al  Al5  1  0.33333330  0.66666664  0.37008800  1
  Si  Si6  1  0.33333330  0.66666664  0.12991200  1
  Si  Si7  1  0.66666664  0.33333332  0.87008800  1
  Si  Si8  1  0.66666664  0.33333332  0.12068600  1
  Si  Si9  1  0.33333330  0.66666664  0.87931400  1
  Si  Si10  1  0.33333330  0.66666664  0.62068600  1
  Si  Si11  1  0.66666664  0.33333332  0.37931400  1
