# generated using pymatgen
data_LiMnV(PO3)4
_symmetry_space_group_name_H-M   'P 1'
_cell_length_a   4.96648979
_cell_length_b   7.16646004
_cell_length_c   7.60494900
_cell_angle_alpha   64.68903351
_cell_angle_beta   82.30281067
_cell_angle_gamma   70.20822144
_symmetry_Int_Tables_number   1
_chemical_formula_structural   LiMnV(PO3)4
_chemical_formula_sum   'Li1 Mn1 V1 P4 O12'
_cell_volume   230.21900216
_cell_formula_units_Z   1
loop_
 _symmetry_equiv_pos_site_id
 _symmetry_equiv_pos_as_xyz
  1  'x, y, z'
loop_
 _atom_site_type_symbol
 _atom_site_label
 _atom_site_symmetry_multiplicity
 _atom_site_fract_x
 _atom_site_fract_y
 _atom_site_fract_z
 _atom_site_occupancy
  Li  Li0  1  0.02339999  0.24495401  0.55378401  1
  Mn  Mn1  1  0.97660003  0.75504604  0.44621595  1
  V  V2  1  0.00000000  0.00000000  0.00000000  1
  P  P3  1  0.56102500  0.80730704  0.78843497  1
  P  P4  1  0.43897502  0.19269301  0.21156498  1
  P  P5  1  0.43812501  0.40315402  0.78310199  1
  P  P6  1  0.56187501  0.59684603  0.21689796  1
  O  O7  1  0.28264398  0.98213105  0.79055597  1
  O  O8  1  0.70664401  0.69336304  0.00497195  1
  O  O9  1  0.26536799  0.75625004  0.21192497  1
  O  O10  1  0.71735604  0.01786900  0.20944398  1
  O  O11  1  0.29335601  0.30663702  0.99502801  1
  O  O12  1  0.77043202  0.53779403  0.36927196  1
  O  O13  1  0.73463203  0.24375001  0.78807499  1
  O  O14  1  0.22956800  0.46220603  0.63072799  1
  O  O15  1  0.47315001  0.61753303  0.77890398  1
  O  O16  1  0.77917801  0.86982105  0.64296896  1
  O  O17  1  0.52685001  0.38246702  0.22109597  1
  O  O18  1  0.22082201  0.13017901  0.35703100  1
