# generated using pymatgen
data_LiNi2
_symmetry_space_group_name_H-M   'P 1'
_cell_length_a   5.02280188
_cell_length_b   5.13703489
_cell_length_c   5.13192177
_cell_angle_alpha   119.96707916
_cell_angle_beta   90.00000000
_cell_angle_gamma   119.26708984
_symmetry_Int_Tables_number   1
_chemical_formula_structural   LiNi2
_chemical_formula_sum   'Li2 Ni4'
_cell_volume   94.70178425
_cell_formula_units_Z   2
loop_
 _symmetry_equiv_pos_site_id
 _symmetry_equiv_pos_as_xyz
  1  'x, y, z'
loop_
 _atom_site_type_symbol
 _atom_site_label
 _atom_site_symmetry_multiplicity
 _atom_site_fract_x
 _atom_site_fract_y
 _atom_site_fract_z
 _atom_site_occupancy
  Li  Li0  1  0.75224302  0.50448597  0.25224298  1
  Li  Li1  1  0.99771502  0.99542994  0.99771498  1
  Ni  Ni2  1  0.37574501  0.25025398  0.62512701  1
  Ni  Ni3  1  0.87450902  0.25025398  0.62512701  1
  Ni  Ni4  1  0.37489401  0.74978795  0.12430896  1
  Ni  Ni5  1  0.37489401  0.74978795  0.62547898  1
