# generated using pymatgen
data_Na2AgS3
_symmetry_space_group_name_H-M   'P 1'
_cell_length_a   4.00762987
_cell_length_b   7.16149139
_cell_length_c   10.17754078
_cell_angle_alpha   96.38506317
_cell_angle_beta   101.35491943
_cell_angle_gamma   90.00000000
_symmetry_Int_Tables_number   1
_chemical_formula_structural   Na2AgS3
_chemical_formula_sum   'Na4 Ag2 S6'
_cell_volume   284.53578453
_cell_formula_units_Z   2
loop_
 _symmetry_equiv_pos_site_id
 _symmetry_equiv_pos_as_xyz
  1  'x, y, z'
loop_
 _atom_site_type_symbol
 _atom_site_label
 _atom_site_symmetry_multiplicity
 _atom_site_fract_x
 _atom_site_fract_y
 _atom_site_fract_z
 _atom_site_occupancy
  Na  Na0  1  0.35425701  0.43857300  0.70851402  1
  Na  Na1  1  0.64574302  0.56142700  0.29148600  1
  Na  Na2  1  0.28664801  0.07252200  0.57329602  1
  Na  Na3  1  0.71335202  0.92747800  0.42670399  1
  Ag  Ag4  1  0.95486703  0.34664500  0.90973403  1
  Ag  Ag5  1  0.04513299  0.65335500  0.09026598  1
  S  S6  1  0.24764500  0.70805900  0.49529000  1
  S  S7  1  0.75235503  0.29194100  0.50471002  1
  S  S8  1  0.41790701  0.13123400  0.83581403  1
  S  S9  1  0.58209301  0.86876600  0.16418598  1
  S  S10  1  0.08764800  0.32845000  0.17529600  1
  S  S11  1  0.91235203  0.67155000  0.82470402  1
