# generated using pymatgen
data_Rb2Tl2NO7
_symmetry_space_group_name_H-M   'P 1'
_cell_length_a   4.90811682
_cell_length_b   6.76546812
_cell_length_c   8.76530552
_cell_angle_alpha   112.58344269
_cell_angle_beta   90.00000000
_cell_angle_gamma   90.00000000
_symmetry_Int_Tables_number   1
_chemical_formula_structural   Rb2Tl2NO7
_chemical_formula_sum   'Rb2 Tl2 N1 O7'
_cell_volume   268.74019217
_cell_formula_units_Z   1
loop_
 _symmetry_equiv_pos_site_id
 _symmetry_equiv_pos_as_xyz
  1  'x, y, z'
loop_
 _atom_site_type_symbol
 _atom_site_label
 _atom_site_symmetry_multiplicity
 _atom_site_fract_x
 _atom_site_fract_y
 _atom_site_fract_z
 _atom_site_occupancy
  Rb  Rb0  1  0.69523103  0.31319800  0.21628102  1
  Rb  Rb1  1  0.19523101  0.68680200  0.78371904  1
  Tl  Tl2  1  0.18987801  0.84551900  0.30841004  1
  Tl  Tl3  1  0.68987803  0.15448100  0.69159002  1
  O  O4  1  0.20026401  0.01012200  0.16735600  1
  N  N5  1  0.70026403  0.98987800  0.83264405  1
  O  O6  1  0.55802702  0.83702000  0.29353604  1
  O  O7  1  0.05802700  0.16298000  0.70646402  1
  O  O8  1  0.72018703  0.35876400  0.58586902  1
  O  O9  1  0.22018701  0.64123600  0.41413103  1
  O  O10  1  0.63361302  0.38558400  0.87847603  1
  O  O11  1  0.13361300  0.61441600  0.12152402  1
