# generated using pymatgen
data_Dy5Al3
_symmetry_space_group_name_H-M   'P 1'
_cell_length_a   7.63496208
_cell_length_b   7.63496208
_cell_length_c   8.92186165
_cell_angle_alpha   115.33306122
_cell_angle_beta   115.33306122
_cell_angle_gamma   90.00000000
_symmetry_Int_Tables_number   1
_chemical_formula_structural   Dy5Al3
_chemical_formula_sum   'Dy10 Al6'
_cell_volume   414.05544231
_cell_formula_units_Z   2
loop_
 _symmetry_equiv_pos_site_id
 _symmetry_equiv_pos_as_xyz
  1  'x, y, z'
loop_
 _atom_site_type_symbol
 _atom_site_label
 _atom_site_symmetry_multiplicity
 _atom_site_fract_x
 _atom_site_fract_y
 _atom_site_fract_z
 _atom_site_occupancy
  Dy  Dy0  1  0.50000004  0.50000001  1.00000005  1
  Dy  Dy1  1  0.00000000  0.00000000  0.00000000  1
  Dy  Dy2  1  0.31731703  0.47715901  0.29447605  1
  Dy  Dy3  1  0.81731703  0.31731701  0.29447706  1
  Dy  Dy4  1  0.47716007  0.97716003  0.29447709  1
  Dy  Dy5  1  0.18268304  0.68268302  0.70552305  1
  Dy  Dy6  1  0.52284001  0.02284000  0.70552302  1
  Dy  Dy7  1  0.02284001  0.18268200  0.70552201  1
  Dy  Dy8  1  0.68268304  0.52284101  0.70552406  1
  Dy  Dy9  1  0.97716006  0.81731802  0.29447810  1
  Al  Al10  1  0.75000006  0.75000002  0.50000009  1
  Al  Al11  1  0.25000002  0.25000001  0.50000002  1
  Al  Al12  1  0.37782901  0.12217100  0.00000003  1
  Al  Al13  1  0.87782904  0.37782901  1.00000006  1
  Al  Al14  1  0.12217104  0.62217102  0.00000005  1
  Al  Al15  1  0.62217106  0.87782902  0.00000010  1
