# generated using pymatgen
data_HoNiO3
_symmetry_space_group_name_H-M   'P 1'
_cell_length_a   5.27990675
_cell_length_b   5.59981823
_cell_length_c   7.57945299
_cell_angle_alpha   90.00028992
_cell_angle_beta   89.59375000
_cell_angle_gamma   89.99991608
_symmetry_Int_Tables_number   1
_chemical_formula_structural   HoNiO3
_chemical_formula_sum   'Ho4 Ni4 O12'
_cell_volume   224.09240071
_cell_formula_units_Z   4
loop_
 _symmetry_equiv_pos_site_id
 _symmetry_equiv_pos_as_xyz
  1  'x, y, z'
loop_
 _atom_site_type_symbol
 _atom_site_label
 _atom_site_symmetry_multiplicity
 _atom_site_fract_x
 _atom_site_fract_y
 _atom_site_fract_z
 _atom_site_occupancy
  Ho  Ho0  1  0.48089998  0.42928198  0.74871400  1
  Ho  Ho1  1  0.01909900  0.92928296  0.75128704  1
  Ho  Ho2  1  0.51909998  0.57071798  0.25128600  1
  Ho  Ho3  1  0.98090097  0.07071700  0.24871296  1
  Ni  Ni4  1  0.49999998  0.00000000  -0.00000002  1
  Ni  Ni5  1  -0.00000000  0.49999998  0.50000002  1
  Ni  Ni6  1  0.49999998  0.00000000  0.49999998  1
  Ni  Ni7  1  -0.00000000  0.49999998  0.00000002  1
  O  O8  1  0.20201899  0.18805499  0.94745500  1
  O  O9  1  0.29798099  0.68805397  0.55254501  1
  O  O10  1  0.79798097  0.81194497  0.05254500  1
  O  O11  1  0.70201898  0.31194599  0.44745498  1
  O  O12  1  0.18353799  0.20725899  0.55752200  1
  O  O13  1  0.31646099  0.70725797  0.94247801  1
  O  O14  1  0.81646097  0.79274097  0.44247799  1
  O  O15  1  0.68353898  0.29274199  0.05752198  1
  O  O16  1  0.10807200  0.46276498  0.25762001  1
  O  O17  1  0.39192799  0.96276496  0.24238102  1
  O  O18  1  0.89192797  0.53723498  0.74237998  1
  O  O19  1  0.60807198  0.03723500  0.75761897  1
