# generated using pymatgen
data_LaCo4(CuO4)3
_symmetry_space_group_name_H-M   'P 1'
_cell_length_a   6.45737314
_cell_length_b   6.45737314
_cell_length_c   6.45737314
_cell_angle_alpha   109.47122192
_cell_angle_beta   109.47122192
_cell_angle_gamma   109.47122192
_symmetry_Int_Tables_number   1
_chemical_formula_structural   LaCo4(CuO4)3
_chemical_formula_sum   'La1 Co4 Cu3 O12'
_cell_volume   207.27443387
_cell_formula_units_Z   1
loop_
 _symmetry_equiv_pos_site_id
 _symmetry_equiv_pos_as_xyz
  1  'x, y, z'
loop_
 _atom_site_type_symbol
 _atom_site_label
 _atom_site_symmetry_multiplicity
 _atom_site_fract_x
 _atom_site_fract_y
 _atom_site_fract_z
 _atom_site_occupancy
  La  La0  1  0.00000000  0.00000000  0.00000000  1
  Co  Co1  1  0.50000002  0.50000000  0.50000002  1
  Co  Co2  1  0.00000000  0.00000000  0.49999998  1
  Co  Co3  1  0.00000003  0.50000000  0.00000003  1
  Co  Co4  1  0.50000005  1.00000001  1.00000003  1
  Cu  Cu5  1  0.50000002  0.50000000  1.00000001  1
  Cu  Cu6  1  0.50000005  1.00000001  0.50000005  1
  Cu  Cu7  1  0.00000003  0.50000000  0.50000001  1
  O  O8  1  0.30819700  0.16509500  0.47329200  1
  O  O9  1  0.69180304  0.83490501  0.52670805  1
  O  O10  1  0.30819705  0.83490501  0.14310205  1
  O  O11  1  0.69180299  0.16509500  0.85689800  1
  O  O12  1  0.83490501  0.52670800  0.69180303  1
  O  O13  1  0.16509503  0.47329200  0.30819702  1
  O  O14  1  0.16509505  0.85689801  0.69180303  1
  O  O15  1  0.83490499  0.14310200  0.30819702  1
  O  O16  1  0.14310202  0.30819700  0.83490499  1
  O  O17  1  0.85689802  0.69180300  0.16509505  1
  O  O18  1  0.47329201  0.30819700  0.16509502  1
  O  O19  1  0.52670803  0.69180300  0.83490502  1
