# generated using pymatgen
data_Ti2Co8Ge3
_symmetry_space_group_name_H-M   'P 1'
_cell_length_a   5.11591816
_cell_length_b   5.11658478
_cell_length_c   8.32722759
_cell_angle_alpha   90.00000000
_cell_angle_beta   90.00000000
_cell_angle_gamma   119.99568939
_symmetry_Int_Tables_number   1
_chemical_formula_structural   Ti2Co8Ge3
_chemical_formula_sum   'Ti2 Co8 Ge3'
_cell_volume   188.77900455
_cell_formula_units_Z   1
loop_
 _symmetry_equiv_pos_site_id
 _symmetry_equiv_pos_as_xyz
  1  'x, y, z'
loop_
 _atom_site_type_symbol
 _atom_site_label
 _atom_site_symmetry_multiplicity
 _atom_site_fract_x
 _atom_site_fract_y
 _atom_site_fract_z
 _atom_site_occupancy
  Ti  Ti0  1  0.99997998  0.00000000  -0.00000000  1
  Ti  Ti1  1  0.49998799  0.00000000  0.25050301  1
  Co  Co2  1  0.49998900  0.50000103  0.25045001  1
  Co  Co3  1  0.99998799  0.49999903  0.25045001  1
  Co  Co4  1  0.49998799  0.00000000  0.74949704  1
  Co  Co5  1  0.49998900  0.50000103  0.74955004  1
  Co  Co6  1  0.99998799  0.49999903  0.74955004  1
  Co  Co7  1  0.33324401  0.66652204  -0.00000000  1
  Ge  Ge8  1  0.66666666  0.33347802  -0.00000000  1
  Co  Co9  1  0.33325701  0.66655604  0.50000002  1
  Ge  Ge10  1  0.66666666  0.33344402  0.50000002  1
  Co  Co11  1  0.99998398  0.00000000  0.34612602  1
  Ge  Ge12  1  0.99998398  0.00000000  0.65387403  1
