# generated using pymatgen
data_La2Ge5Pt
_symmetry_space_group_name_H-M   'P 1'
_cell_length_a   4.43878603
_cell_length_b   4.54737091
_cell_length_c   9.32205296
_cell_angle_alpha   90.00000000
_cell_angle_beta   103.77323914
_cell_angle_gamma   90.00000000
_symmetry_Int_Tables_number   1
_chemical_formula_structural   La2Ge5Pt
_chemical_formula_sum   'La2 Ge5 Pt1'
_cell_volume   182.75329376
_cell_formula_units_Z   1
loop_
 _symmetry_equiv_pos_site_id
 _symmetry_equiv_pos_as_xyz
  1  'x, y, z'
loop_
 _atom_site_type_symbol
 _atom_site_label
 _atom_site_symmetry_multiplicity
 _atom_site_fract_x
 _atom_site_fract_y
 _atom_site_fract_z
 _atom_site_occupancy
  La  La0  1  0.60985000  0.25000000  0.21970001  1
  La  La1  1  0.39015000  0.75000001  0.78030002  1
  Ge  Ge2  1  0.81839399  0.25000000  0.63678802  1
  Ge  Ge3  1  0.18160600  0.75000001  0.36321201  1
  Ge  Ge4  1  0.95379999  0.25000000  0.90760002  1
  Ge  Ge5  1  0.04620000  0.75000001  0.09240000  1
  Ge  Ge6  1  0.24905500  0.25000000  0.49811001  1
  Pt  Pt7  1  0.75094500  0.75000001  0.50189001  1
