# generated using pymatgen
data_LiCoO2
_symmetry_space_group_name_H-M   'P 1'
_cell_length_a   5.09053087
_cell_length_b   5.86494064
_cell_length_c   6.63663960
_cell_angle_alpha   103.90927124
_cell_angle_beta   98.06141663
_cell_angle_gamma   107.31041718
_symmetry_Int_Tables_number   1
_chemical_formula_structural   LiCoO2
_chemical_formula_sum   'Li5 Co5 O10'
_cell_volume   178.76178226
_cell_formula_units_Z   5
loop_
 _symmetry_equiv_pos_site_id
 _symmetry_equiv_pos_as_xyz
  1  'x, y, z'
loop_
 _atom_site_type_symbol
 _atom_site_label
 _atom_site_symmetry_multiplicity
 _atom_site_fract_x
 _atom_site_fract_y
 _atom_site_fract_z
 _atom_site_occupancy
  Li  Li0  1  0.80757302  0.60099098  0.10279500  1
  Li  Li1  1  0.61008601  0.19952199  0.68978600  1
  Li  Li2  1  0.00000000  0.00000000  0.50000000  1
  Li  Li3  1  0.19242700  0.39900899  0.89720501  1
  Co  Co4  1  0.38991401  0.80047797  0.31021401  1
  Li  Li5  1  -0.00000000  0.49999998  0.50000001  1
  Co  Co6  1  0.59945201  0.70097597  0.69536301  1
  Co  Co7  1  0.40054801  0.29902399  0.30463700  1
  Co  Co8  1  0.19597500  0.88996997  0.88891802  1
  Co  Co9  1  0.80402502  0.11003000  0.11108199  1
  O  O10  1  0.89760102  0.57703098  0.80451901  1
  O  O11  1  0.67710202  0.15361699  0.38324100  1
  O  O12  1  0.10869700  0.97083297  0.20397302  1
  O  O13  1  0.32583501  0.36588799  0.58828301  1
  O  O14  1  0.51325301  0.75978697  0.97644301  1
  O  O15  1  0.67416501  0.63411198  0.41171701  1
  O  O16  1  0.48674701  0.24021299  0.02355700  1
  O  O17  1  0.89130302  0.02916700  0.79602700  1
  O  O18  1  0.10239900  0.42296898  0.19548101  1
  O  O19  1  0.32289800  0.84638297  0.61675902  1
