# generated using pymatgen
data_SmAl2Co3
_symmetry_space_group_name_H-M   'P 1'
_cell_length_a   3.68712807
_cell_length_b   5.59775591
_cell_length_c   5.59775591
_cell_angle_alpha   120.00000000
_cell_angle_beta   90.00000000
_cell_angle_gamma   90.00000000
_symmetry_Int_Tables_number   1
_chemical_formula_structural   SmAl2Co3
_chemical_formula_sum   'Sm1 Al2 Co3'
_cell_volume   100.05683664
_cell_formula_units_Z   1
loop_
 _symmetry_equiv_pos_site_id
 _symmetry_equiv_pos_as_xyz
  1  'x, y, z'
loop_
 _atom_site_type_symbol
 _atom_site_label
 _atom_site_symmetry_multiplicity
 _atom_site_fract_x
 _atom_site_fract_y
 _atom_site_fract_z
 _atom_site_occupancy
  Sm  Sm0  1  0.00000000  0.00000000  0.00000000  1
  Al  Al1  1  -0.00000000  0.33333334  0.66666669  1
  Al  Al2  1  -0.00000000  0.66666668  0.33333335  1
  Co  Co3  1  0.49999999  0.50000001  0.50000002  1
  Co  Co4  1  0.49999999  0.00000000  0.50000002  1
  Co  Co5  1  0.49999999  0.50000001  1.00000004  1
