# generated using pymatgen
data_Y(MgNi2)4
_symmetry_space_group_name_H-M   'P 1'
_cell_length_a   5.63220406
_cell_length_b   6.67733812
_cell_length_c   6.67733860
_cell_angle_alpha   60.00000381
_cell_angle_beta   90.00000000
_cell_angle_gamma   90.00000000
_symmetry_Int_Tables_number   1
_chemical_formula_structural   Y(MgNi2)4
_chemical_formula_sum   'Y1 Mg4 Ni8'
_cell_volume   217.47823369
_cell_formula_units_Z   1
loop_
 _symmetry_equiv_pos_site_id
 _symmetry_equiv_pos_as_xyz
  1  'x, y, z'
loop_
 _atom_site_type_symbol
 _atom_site_label
 _atom_site_symmetry_multiplicity
 _atom_site_fract_x
 _atom_site_fract_y
 _atom_site_fract_z
 _atom_site_occupancy
  Y  Y0  1  -0.00000000  0.59589798  1.00000001  1
  Mg  Mg1  1  0.00000000  0.00000000  0.40410200  1
  Mg  Mg2  1  0.00000000  0.40410199  0.59589801  1
  Mg  Mg3  1  0.50000000  0.66666665  0.66666668  1
  Mg  Mg4  1  0.50000000  0.33333332  0.33333334  1
  Ni  Ni5  1  0.50000000  0.00000000  -0.00000000  1
  Ni  Ni6  1  0.00000000  0.00000000  0.00000000  1
  Ni  Ni7  1  0.25285900  0.00000000  0.74885000  1
  Ni  Ni8  1  0.74714099  0.25114999  1.00000000  1
  Ni  Ni9  1  0.74714099  0.74884998  0.25115001  1
  Ni  Ni10  1  0.74714099  0.00000000  0.74885000  1
  Ni  Ni11  1  0.25285900  0.25114999  1.00000000  1
  Ni  Ni12  1  0.25285900  0.74884998  0.25115001  1
