# generated using pymatgen
data_La12Ni6Sb
_symmetry_space_group_name_H-M   'P 1'
_cell_length_a   8.67936516
_cell_length_b   8.67936516
_cell_length_c   8.67936516
_cell_angle_alpha   109.47122192
_cell_angle_beta   109.47122192
_cell_angle_gamma   109.47122192
_symmetry_Int_Tables_number   1
_chemical_formula_structural   La12Ni6Sb
_chemical_formula_sum   'La12 Ni6 Sb1'
_cell_volume   503.31742917
_cell_formula_units_Z   1
loop_
 _symmetry_equiv_pos_site_id
 _symmetry_equiv_pos_as_xyz
  1  'x, y, z'
loop_
 _atom_site_type_symbol
 _atom_site_label
 _atom_site_symmetry_multiplicity
 _atom_site_fract_x
 _atom_site_fract_y
 _atom_site_fract_z
 _atom_site_occupancy
  La  La0  1  0.80716606  0.30568702  0.11285304  1
  La  La1  1  0.49852104  0.19283402  0.30568703  1
  La  La2  1  0.69431306  0.50147904  0.80716508  1
  La  La3  1  0.88714805  0.19283502  0.69431406  1
  La  La4  1  0.30568705  0.49852104  0.19283504  1
  La  La5  1  0.50147907  0.80716606  0.69431308  1
  La  La6  1  0.69431309  0.88714707  0.19283407  1
  La  La7  1  0.30568702  0.11285301  0.80716604  1
  La  La8  1  0.11285206  0.80716506  0.30568606  1
  La  La9  1  0.19283403  0.30568602  0.49852104  1
  La  La10  1  0.80716608  0.69431405  0.50147908  1
  La  La11  1  0.19283405  0.69431305  0.88714708  1
  Ni  Ni12  1  0.88930807  0.38930803  0.50000006  1
  Ni  Ni13  1  0.50000003  0.11069201  0.61069204  1
  Ni  Ni14  1  0.61069206  0.50000004  0.11069205  1
  Ni  Ni15  1  0.50000008  0.88930807  0.38930808  1
  Ni  Ni16  1  0.38930805  0.50000004  0.88930807  1
  Ni  Ni17  1  0.11069204  0.61069205  0.50000006  1
  Sb  Sb18  1  0.00000000  0.00000000  0.00000000  1
