# generated using pymatgen
data_Sb9Rh7
_symmetry_space_group_name_H-M   'P 1'
_cell_length_a   7.44435787
_cell_length_b   7.44435787
_cell_length_c   7.44435787
_cell_angle_alpha   109.47122192
_cell_angle_beta   109.47122192
_cell_angle_gamma   109.47122192
_symmetry_Int_Tables_number   1
_chemical_formula_structural   Sb9Rh7
_chemical_formula_sum   'Sb9 Rh7'
_cell_volume   317.58487929
_cell_formula_units_Z   1
loop_
 _symmetry_equiv_pos_site_id
 _symmetry_equiv_pos_as_xyz
  1  'x, y, z'
loop_
 _atom_site_type_symbol
 _atom_site_label
 _atom_site_symmetry_multiplicity
 _atom_site_fract_x
 _atom_site_fract_y
 _atom_site_fract_z
 _atom_site_occupancy
  Sb  Sb0  1  0.65214606  0.85415503  0.50630106  1
  Sb  Sb1  1  0.20200902  0.34785401  0.85415502  1
  Sb  Sb2  1  0.14584505  0.79799103  0.65214605  1
  Sb  Sb3  1  0.49369902  0.34785401  0.14584503  1
  Sb  Sb4  1  0.85415502  0.20200901  0.34785403  1
  Sb  Sb5  1  0.79799104  0.65214602  0.14584505  1
  Sb  Sb6  1  0.14584503  0.49369902  0.34785403  1
  Sb  Sb7  1  0.85415504  0.50630102  0.65214605  1
  Sb  Sb8  1  0.50630104  0.65214602  0.85415504  1
  Rh  Rh9  1  0.34785406  0.85415503  0.20200905  1
  Rh  Rh10  1  0.65214601  0.14584501  0.79799102  1
  Rh  Rh11  1  0.34785401  0.14584501  0.49369901  1
  Rh  Rh12  1  0.50000003  0.50000002  0.50000004  1
  Rh  Rh13  1  1.00000004  0.50000002  1.00000005  1
  Rh  Rh14  1  0.50000000  0.00000000  0.00000001  1
  Rh  Rh15  1  0.00000000  0.00000000  0.50000000  1
