# generated using pymatgen
data_Li2V3O5
_symmetry_space_group_name_H-M   'P 1'
_cell_length_a   5.13022852
_cell_length_b   5.92045736
_cell_length_c   6.64479685
_cell_angle_alpha   77.12847137
_cell_angle_beta   82.42733002
_cell_angle_gamma   106.78836060
_symmetry_Int_Tables_number   1
_chemical_formula_structural   Li2V3O5
_chemical_formula_sum   'Li4 V6 O10'
_cell_volume   184.16107079
_cell_formula_units_Z   2
loop_
 _symmetry_equiv_pos_site_id
 _symmetry_equiv_pos_as_xyz
  1  'x, y, z'
loop_
 _atom_site_type_symbol
 _atom_site_label
 _atom_site_symmetry_multiplicity
 _atom_site_fract_x
 _atom_site_fract_y
 _atom_site_fract_z
 _atom_site_occupancy
  Li  Li0  1  0.79999998  0.10000000  0.39999998  1
  Li  Li1  1  0.60082301  0.70330401  0.79649197  1
  Li  Li2  1  0.60021999  0.19881100  0.79706698  1
  Li  Li3  1  0.20147403  0.90280902  0.59703997  1
  V  V4  1  0.19643701  0.39778901  0.59936998  1
  V  V5  1  0.80000000  0.60000001  0.39999997  1
  V  V6  1  0.40356302  0.80221102  0.20062997  1
  V  V7  1  0.99977997  0.00118900  0.00293299  1
  V  V8  1  0.39852600  0.29719101  0.20295999  1
  V  V9  1  0.99917699  0.49669601  0.00350798  1
  O  O10  1  0.30102500  0.35067101  0.90196998  1
  O  O11  1  0.29897502  0.84932902  0.89802997  1
  O  O12  1  0.90317099  0.54901001  0.69923497  1
  O  O13  1  0.90659897  0.05191800  0.70702698  1
  O  O14  1  0.49236201  0.73839701  0.50423497  1
  O  O15  1  0.49297499  0.25524301  0.50354498  1
  O  O16  1  0.10702503  0.94475702  0.29645497  1
  O  O17  1  0.10763801  0.46160301  0.29576498  1
  O  O18  1  0.69682900  0.65099001  0.10076497  1
  O  O19  1  0.69340098  0.14808200  0.09297299  1
