# generated using pymatgen
data_Ag8Pd3Pb7
_symmetry_space_group_name_H-M   'P 1'
_cell_length_a   4.81059980
_cell_length_b   7.64186049
_cell_length_c   10.97444248
_cell_angle_alpha   90.62686920
_cell_angle_beta   90.00000000
_cell_angle_gamma   108.34591675
_symmetry_Int_Tables_number   1
_chemical_formula_structural   Ag8Pd3Pb7
_chemical_formula_sum   'Ag8 Pd3 Pb7'
_cell_volume   382.91076041
_cell_formula_units_Z   1
loop_
 _symmetry_equiv_pos_site_id
 _symmetry_equiv_pos_as_xyz
  1  'x, y, z'
loop_
 _atom_site_type_symbol
 _atom_site_label
 _atom_site_symmetry_multiplicity
 _atom_site_fract_x
 _atom_site_fract_y
 _atom_site_fract_z
 _atom_site_occupancy
  Ag  Ag0  1  0.58550303  0.17100601  0.21858199  1
  Ag  Ag1  1  0.91791609  0.83583203  0.21446397  1
  Ag  Ag2  1  0.25070204  0.50140402  0.21654198  1
  Ag  Ag3  1  0.08208401  0.16416801  0.78553597  1
  Ag  Ag4  1  0.41449707  0.82899403  0.78141795  1
  Ag  Ag5  1  0.74929806  0.49859602  0.78345796  1
  Ag  Ag6  1  0.58282203  0.16564401  0.93224596  1
  Ag  Ag7  1  0.91659009  0.83318003  0.92655295  1
  Pb  Pb8  1  0.24920804  0.49841602  0.93087595  1
  Pb  Pb9  1  0.08341001  0.16682001  0.07344699  1
  Pb  Pb10  1  0.41717807  0.83435603  0.06775398  1
  Pb  Pb11  1  0.75079206  0.50158402  0.06912399  1
  Pb  Pb12  1  0.91486709  0.82973403  0.63546396  1
  Pd  Pd13  1  0.08513301  0.17026601  0.36453598  1
  Pb  Pb14  1  0.24635504  0.49271002  0.67149096  1
  Pb  Pb15  1  0.58216003  0.16432001  0.67407597  1
  Pd  Pd16  1  0.41784007  0.83568003  0.32592397  1
  Pd  Pd17  1  0.75364506  0.50729002  0.32850898  1
