# generated using pymatgen
data_NdAl5
_symmetry_space_group_name_H-M   'P 1'
_cell_length_a   5.27318192
_cell_length_b   5.27318239
_cell_length_c   9.77134705
_cell_angle_alpha   90.00000000
_cell_angle_beta   90.00000000
_cell_angle_gamma   120.00000000
_symmetry_Int_Tables_number   1
_chemical_formula_structural   NdAl5
_chemical_formula_sum   'Nd2 Al10'
_cell_volume   235.30470827
_cell_formula_units_Z   2
loop_
 _symmetry_equiv_pos_site_id
 _symmetry_equiv_pos_as_xyz
  1  'x, y, z'
loop_
 _atom_site_type_symbol
 _atom_site_label
 _atom_site_symmetry_multiplicity
 _atom_site_fract_x
 _atom_site_fract_y
 _atom_site_fract_z
 _atom_site_occupancy
  Nd  Nd0  1  0.66666669  0.33333334  0.56459300  1
  Nd  Nd1  1  0.33333337  0.66666668  0.43540700  1
  Al  Al2  1  0.33333337  0.66666668  0.06459300  1
  Al  Al3  1  0.66666669  0.33333334  0.93540700  1
  Al  Al4  1  0.00000000  0.00000000  0.50000000  1
  Al  Al5  1  0.00000000  0.00000000  0.00000000  1
  Al  Al6  1  0.16961402  0.33922801  0.75000000  1
  Al  Al7  1  0.16961404  0.83038602  0.75000000  1
  Al  Al8  1  0.66077205  0.83038602  0.75000000  1
  Al  Al9  1  0.83038604  0.66077201  0.25000000  1
  Al  Al10  1  0.83038602  0.16961400  0.25000000  1
  Al  Al11  1  0.33922801  0.16961400  0.25000000  1
