# generated using pymatgen
data_Nb3VP5
_symmetry_space_group_name_H-M   'P 1'
_cell_length_a   5.34118080
_cell_length_b   7.46969795
_cell_length_c   7.46969795
_cell_angle_alpha   120.00000000
_cell_angle_beta   90.00000000
_cell_angle_gamma   90.00000000
_symmetry_Int_Tables_number   1
_chemical_formula_structural   Nb3VP5
_chemical_formula_sum   'Nb6 V2 P10'
_cell_volume   258.09167294
_cell_formula_units_Z   2
loop_
 _symmetry_equiv_pos_site_id
 _symmetry_equiv_pos_as_xyz
  1  'x, y, z'
loop_
 _atom_site_type_symbol
 _atom_site_label
 _atom_site_symmetry_multiplicity
 _atom_site_fract_x
 _atom_site_fract_y
 _atom_site_fract_z
 _atom_site_occupancy
  Nb  Nb0  1  0.25000001  0.59632100  0.59632098  1
  Nb  Nb1  1  0.75000003  0.59632100  -0.00000001  1
  Nb  Nb2  1  0.75000003  0.00000000  0.59632099  1
  Nb  Nb3  1  0.25000001  0.00000000  0.40367899  1
  Nb  Nb4  1  0.25000001  0.40367900  -0.00000001  1
  Nb  Nb5  1  0.75000003  0.40367900  0.40367898  1
  V  V6  1  1.00000004  0.33333333  0.66666665  1
  P  P7  1  0.50000002  0.66666666  0.33333331  1
  V  V8  1  0.50000002  0.33333333  0.66666665  1
  P  P9  1  -0.00000000  0.66666666  0.33333331  1
  P  P10  1  0.25000001  0.22594200  0.22594199  1
  P  P11  1  0.75000003  0.22594200  -0.00000000  1
  P  P12  1  0.75000003  0.00000000  0.22594200  1
  P  P13  1  0.25000001  1.00000000  0.77405797  1
  P  P14  1  0.25000001  0.77405800  -0.00000001  1
  P  P15  1  0.75000003  0.77405800  0.77405797  1
  P  P16  1  0.50000002  0.00000000  -0.00000000  1
  P  P17  1  0.00000000  0.00000000  0.00000000  1
