# generated using pymatgen
data_V4O3F5
_symmetry_space_group_name_H-M   'P 1'
_cell_length_a   4.47124720
_cell_length_b   5.10885286
_cell_length_c   8.79800320
_cell_angle_alpha   90.00000000
_cell_angle_beta   90.00000000
_cell_angle_gamma   90.00000000
_symmetry_Int_Tables_number   1
_chemical_formula_structural   V4O3F5
_chemical_formula_sum   'V4 O3 F5'
_cell_volume   200.97229469
_cell_formula_units_Z   1
loop_
 _symmetry_equiv_pos_site_id
 _symmetry_equiv_pos_as_xyz
  1  'x, y, z'
loop_
 _atom_site_type_symbol
 _atom_site_label
 _atom_site_symmetry_multiplicity
 _atom_site_fract_x
 _atom_site_fract_y
 _atom_site_fract_z
 _atom_site_occupancy
  V  V0  1  0.38207998  0.04133000  0.60328299  1
  V  V1  1  0.88207996  0.45867001  0.39671699  1
  V  V2  1  0.61791997  0.54133001  0.89671698  1
  V  V3  1  0.11791999  0.95867003  0.10328300  1
  F  F4  1  0.78054997  0.14144300  0.53988699  1
  O  O5  1  0.28054999  0.35855701  0.46011299  1
  O  O6  1  0.21944999  0.64144302  0.96011298  1
  O  O7  1  0.71944997  0.85855702  0.03988700  1
  F  F8  1  0.16192099  0.75902202  0.28162099  1
  F  F9  1  0.66192097  0.74097802  0.71837898  1
  F  F10  1  0.83807896  0.25902201  0.21837900  1
  F  F11  1  0.33807899  0.24097801  0.78162098  1
