# generated using pymatgen
data_Li4BeBH8
_symmetry_space_group_name_H-M   'P 1'
_cell_length_a   4.27319098
_cell_length_b   4.50773811
_cell_length_c   6.88532877
_cell_angle_alpha   70.89237213
_cell_angle_beta   90.00000000
_cell_angle_gamma   90.00000000
_symmetry_Int_Tables_number   1
_chemical_formula_structural   Li4BeBH8
_chemical_formula_sum   'Li4 Be1 B1 H8'
_cell_volume   125.32103282
_cell_formula_units_Z   1
loop_
 _symmetry_equiv_pos_site_id
 _symmetry_equiv_pos_as_xyz
  1  'x, y, z'
loop_
 _atom_site_type_symbol
 _atom_site_label
 _atom_site_symmetry_multiplicity
 _atom_site_fract_x
 _atom_site_fract_y
 _atom_site_fract_z
 _atom_site_occupancy
  Li  Li0  1  0.25000000  0.67926098  0.64147801  1
  Li  Li1  1  0.75000000  0.32073899  0.35852200  1
  Li  Li2  1  0.75000000  0.09091700  0.81816601  1
  Li  Li3  1  0.25000000  0.90908298  0.18183400  1
  B  B4  1  0.47039700  0.59878998  0.18418300  1
  Be  Be5  1  0.02960300  0.21702699  0.18418300  1
  H  H6  1  0.97039701  0.40120999  0.81581701  1
  H  H7  1  0.52960300  0.78297298  0.81581701  1
  H  H8  1  0.02948200  0.64982998  0.38936900  1
  H  H9  1  0.47051800  0.96080098  0.38936900  1
  H  H10  1  0.52948200  0.35016999  0.61063101  1
  H  H11  1  0.97051801  0.03919900  0.61063101  1
  H  H12  1  0.00000000  0.83557598  1.00000001  1
  H  H13  1  0.50000000  0.16442400  1.00000001  1
