# generated using pymatgen
data_La2GaGe3Pt
_symmetry_space_group_name_H-M   'P 1'
_cell_length_a   4.52907896
_cell_length_b   4.55051804
_cell_length_c   9.20913506
_cell_angle_alpha   104.30392456
_cell_angle_beta   90.00000000
_cell_angle_gamma   90.00000000
_symmetry_Int_Tables_number   1
_chemical_formula_structural   La2GaGe3Pt
_chemical_formula_sum   'La2 Ga1 Ge3 Pt1'
_cell_volume   183.91316503
_cell_formula_units_Z   1
loop_
 _symmetry_equiv_pos_site_id
 _symmetry_equiv_pos_as_xyz
  1  'x, y, z'
loop_
 _atom_site_type_symbol
 _atom_site_label
 _atom_site_symmetry_multiplicity
 _atom_site_fract_x
 _atom_site_fract_y
 _atom_site_fract_z
 _atom_site_occupancy
  La  La0  1  0.50000000  0.89045398  0.78090799  1
  La  La1  1  0.00000000  0.10209800  0.20419600  1
  Ga  Ga2  1  0.50000000  0.68505099  0.37010199  1
  Ge  Ge3  1  0.50000000  0.54479399  0.08958799  1
  Ge  Ge4  1  0.00000000  0.44163699  0.88327401  1
  Ge  Ge5  1  0.50000000  0.25542899  0.51085800  1
  Pt  Pt6  1  0.00000000  0.75325898  0.50651799  1
