# generated using pymatgen
data_K2Tl2Cu3O11
_symmetry_space_group_name_H-M   'P 1'
_cell_length_a   6.07952976
_cell_length_b   6.07953072
_cell_length_c   9.90047836
_cell_angle_alpha   90.00000000
_cell_angle_beta   90.00000000
_cell_angle_gamma   120.00000000
_symmetry_Int_Tables_number   1
_chemical_formula_structural   K2Tl2Cu3O11
_chemical_formula_sum   'K2 Tl2 Cu3 O11'
_cell_volume   316.90336928
_cell_formula_units_Z   1
loop_
 _symmetry_equiv_pos_site_id
 _symmetry_equiv_pos_as_xyz
  1  'x, y, z'
loop_
 _atom_site_type_symbol
 _atom_site_label
 _atom_site_symmetry_multiplicity
 _atom_site_fract_x
 _atom_site_fract_y
 _atom_site_fract_z
 _atom_site_occupancy
  K  K0  1  0.00000000  0.00000000  0.90439397  1
  K  K1  1  0.00000000  0.00000000  0.40439399  1
  Tl  Tl2  1  0.33333338  0.66666666  0.62771598  1
  Tl  Tl3  1  0.66666671  0.33333333  0.12771600  1
  Cu  Cu4  1  0.33333338  0.66666666  0.24298499  1
  Cu  Cu5  1  0.66666671  0.33333333  0.74298497  1
  Cu  Cu6  1  0.47502607  0.95005199  0.35186099  1
  O  O7  1  0.95005206  0.47502600  0.85186097  1
  O  O8  1  0.52497405  0.47502600  0.85186097  1
  O  O9  1  0.47502605  0.52497400  0.35186099  1
  O  O10  1  0.04994803  0.52497400  0.35186099  1
  O  O11  1  0.52497402  0.04994800  0.85186097  1
  O  O12  1  0.81159107  0.62318199  0.63977398  1
  O  O13  1  0.62318307  0.81159199  0.13977399  1
  O  O14  1  0.18840905  0.81159199  0.13977399  1
  O  O15  1  0.81159104  0.18840800  0.63977398  1
  O  O16  1  0.37681703  0.18840800  0.63977398  1
  O  O17  1  0.18840903  0.37681800  0.13977399  1
