# generated using pymatgen
data_NbSb3
_symmetry_space_group_name_H-M   'P 1'
_cell_length_a   6.96263599
_cell_length_b   8.25757790
_cell_length_c   8.25757790
_cell_angle_alpha   90.00000000
_cell_angle_beta   90.00000000
_cell_angle_gamma   90.00000000
_symmetry_Int_Tables_number   1
_chemical_formula_structural   NbSb3
_chemical_formula_sum   'Nb4 Sb12'
_cell_volume   474.76538735
_cell_formula_units_Z   4
loop_
 _symmetry_equiv_pos_site_id
 _symmetry_equiv_pos_as_xyz
  1  'x, y, z'
loop_
 _atom_site_type_symbol
 _atom_site_label
 _atom_site_symmetry_multiplicity
 _atom_site_fract_x
 _atom_site_fract_y
 _atom_site_fract_z
 _atom_site_occupancy
  Nb  Nb0  1  0.50000000  0.50000001  0.50000001  1
  Nb  Nb1  1  0.00000000  0.50000001  0.50000001  1
  Nb  Nb2  1  0.50000000  0.00000000  0.00000000  1
  Nb  Nb3  1  0.50000000  0.50000001  0.00000000  1
  Sb  Sb4  1  0.00000000  0.00000000  0.50000001  1
  Sb  Sb5  1  0.50000000  0.00000000  0.50000001  1
  Sb  Sb6  1  0.00000000  0.50000001  0.00000000  1
  Sb  Sb7  1  0.00000000  0.00000000  0.00000000  1
  Sb  Sb8  1  0.24950000  0.17140000  0.67220701  1
  Sb  Sb9  1  0.75050000  0.67220701  0.17140000  1
  Sb  Sb10  1  0.75050000  0.32779300  0.82860001  1
  Sb  Sb11  1  0.24950000  0.82860001  0.32779300  1
  Sb  Sb12  1  0.24950000  0.67220701  0.82860001  1
  Sb  Sb13  1  0.75050000  0.17140000  0.32779300  1
  Sb  Sb14  1  0.75050000  0.82860001  0.67220701  1
  Sb  Sb15  1  0.24950000  0.32779300  0.17140000  1
