# generated using pymatgen
data_Nd2In4Au3
_symmetry_space_group_name_H-M   'P 1'
_cell_length_a   4.49209785
_cell_length_b   7.48829794
_cell_length_c   7.48829794
_cell_angle_alpha   120.00000000
_cell_angle_beta   90.00000000
_cell_angle_gamma   90.00000000
_symmetry_Int_Tables_number   1
_chemical_formula_structural   Nd2In4Au3
_chemical_formula_sum   'Nd2 In4 Au3'
_cell_volume   218.14540572
_cell_formula_units_Z   1
loop_
 _symmetry_equiv_pos_site_id
 _symmetry_equiv_pos_as_xyz
  1  'x, y, z'
loop_
 _atom_site_type_symbol
 _atom_site_label
 _atom_site_symmetry_multiplicity
 _atom_site_fract_x
 _atom_site_fract_y
 _atom_site_fract_z
 _atom_site_occupancy
  Nd  Nd0  1  0.50000002  0.57904500  -0.00000001  1
  Nd  Nd1  1  0.50000002  0.42095500  0.42095498  1
  In  In2  1  0.50000002  0.00000000  0.57904498  1
  In  In3  1  -0.00000000  0.24659800  0.99999997  1
  In  In4  1  -0.00000000  0.75340200  0.75340196  1
  In  In5  1  1.00000003  1.00000000  0.24659797  1
  Au  Au6  1  -0.00000000  0.33333333  0.66666664  1
  Au  Au7  1  -0.00000000  0.66666666  0.33333331  1
  Au  Au8  1  0.50000002  0.00000000  -0.00000000  1
