# generated using pymatgen
data_La2Ga5Pd4
_symmetry_space_group_name_H-M   'P 1'
_cell_length_a   4.48579597
_cell_length_b   4.48579597
_cell_length_c   13.47917652
_cell_angle_alpha   99.57841492
_cell_angle_beta   99.57841492
_cell_angle_gamma   90.00000000
_symmetry_Int_Tables_number   1
_chemical_formula_structural   La2Ga5Pd4
_chemical_formula_sum   'La2 Ga5 Pd4'
_cell_volume   263.61605537
_cell_formula_units_Z   1
loop_
 _symmetry_equiv_pos_site_id
 _symmetry_equiv_pos_as_xyz
  1  'x, y, z'
loop_
 _atom_site_type_symbol
 _atom_site_label
 _atom_site_symmetry_multiplicity
 _atom_site_fract_x
 _atom_site_fract_y
 _atom_site_fract_z
 _atom_site_occupancy
  La  La0  1  0.99654801  0.99654801  0.99309598  1
  La  La1  1  0.68481101  0.68481101  0.36962200  1
  Ga  Ga2  1  0.58723401  0.08723400  0.17446800  1
  Ga  Ga3  1  0.08723400  0.58723400  0.17446800  1
  Ga  Ga4  1  0.23512500  0.23512500  0.47024999  1
  Ga  Ga5  1  0.78917501  0.28917500  0.57834999  1
  Ga  Ga6  1  0.28917501  0.78917501  0.57834999  1
  Pd  Pd7  1  0.90086201  0.40086200  0.80172398  1
  Pd  Pd8  1  0.40086201  0.90086201  0.80172398  1
  Pd  Pd9  1  0.13892900  0.13892900  0.27785799  1
  Pd  Pd10  1  0.53064601  0.53064600  0.06129200  1
