# generated using pymatgen
data_Dy(AlFe)6
_symmetry_space_group_name_H-M   'P 1'
_cell_length_a   4.94042206
_cell_length_b   6.55592537
_cell_length_c   6.55592537
_cell_angle_alpha   81.06529999
_cell_angle_beta   67.86497498
_cell_angle_gamma   67.86497498
_symmetry_Int_Tables_number   1
_chemical_formula_structural   Dy(AlFe)6
_chemical_formula_sum   'Dy1 Al6 Fe6'
_cell_volume   182.17193582
_cell_formula_units_Z   1
loop_
 _symmetry_equiv_pos_site_id
 _symmetry_equiv_pos_as_xyz
  1  'x, y, z'
loop_
 _atom_site_type_symbol
 _atom_site_label
 _atom_site_symmetry_multiplicity
 _atom_site_fract_x
 _atom_site_fract_y
 _atom_site_fract_z
 _atom_site_occupancy
  Dy  Dy0  1  0.00000000  0.00000000  0.00000000  1
  Al  Al1  1  0.65129799  0.34870200  0.34870201  1
  Al  Al2  1  0.34870200  0.65129800  0.65129802  1
  Al  Al3  1  0.00000000  0.34198800  0.65801201  1
  Al  Al4  1  0.00000000  0.65801200  0.34198801  1
  Al  Al5  1  0.69946099  0.80053900  0.80053902  1
  Al  Al6  1  0.30053900  0.19946100  0.19946101  1
  Fe  Fe7  1  0.00000000  0.00000000  0.50000000  1
  Fe  Fe8  1  0.49999999  0.00000000  0.50000001  1
  Fe  Fe9  1  0.00000000  0.50000000  0.00000001  1
  Fe  Fe10  1  0.49999999  0.50000000  0.00000001  1
  Fe  Fe11  1  0.50000000  0.76836300  0.23163702  1
  Fe  Fe12  1  0.49999999  0.23163700  0.76836301  1
