# generated using pymatgen
data_La(CoGe)2
_symmetry_space_group_name_H-M   'P 1'
_cell_length_a   4.36564779
_cell_length_b   4.36564779
_cell_length_c   5.88346720
_cell_angle_alpha   111.77790833
_cell_angle_beta   111.77790833
_cell_angle_gamma   90.00000000
_symmetry_Int_Tables_number   1
_chemical_formula_structural   La(CoGe)2
_chemical_formula_sum   'La1 Co2 Ge2'
_cell_volume   95.45768308
_cell_formula_units_Z   1
loop_
 _symmetry_equiv_pos_site_id
 _symmetry_equiv_pos_as_xyz
  1  'x, y, z'
loop_
 _atom_site_type_symbol
 _atom_site_label
 _atom_site_symmetry_multiplicity
 _atom_site_fract_x
 _atom_site_fract_y
 _atom_site_fract_z
 _atom_site_occupancy
  La  La0  1  0.56570203  0.56570203  0.13140400  1
  Co  Co1  1  0.23109001  0.23109001  0.46217999  1
  Co  Co2  1  0.32179201  0.82179204  0.64358398  1
  Ge  Ge3  1  0.00339500  0.00339500  0.00679000  1
  Ge  Ge4  1  0.82179204  0.32179202  0.64358398  1
