# generated using pymatgen
data_CsAgSe2
_symmetry_space_group_name_H-M   'P 1'
_cell_length_a   6.15552998
_cell_length_b   7.81512070
_cell_length_c   12.84197521
_cell_angle_alpha   84.58406830
_cell_angle_beta   76.13326263
_cell_angle_gamma   66.80748749
_symmetry_Int_Tables_number   1
_chemical_formula_structural   CsAgSe2
_chemical_formula_sum   'Cs4 Ag4 Se8'
_cell_volume   551.30441841
_cell_formula_units_Z   4
loop_
 _symmetry_equiv_pos_site_id
 _symmetry_equiv_pos_as_xyz
  1  'x, y, z'
loop_
 _atom_site_type_symbol
 _atom_site_label
 _atom_site_symmetry_multiplicity
 _atom_site_fract_x
 _atom_site_fract_y
 _atom_site_fract_z
 _atom_site_occupancy
  Cs  Cs0  1  0.31954700  0.00000000  0.36090600  1
  Cs  Cs1  1  0.43045302  0.50000001  0.13909398  1
  Cs  Cs2  1  0.68045300  0.00000000  0.63909400  1
  Cs  Cs3  1  0.06954702  0.50000001  0.86090599  1
  Ag  Ag4  1  0.25000002  0.50000001  0.49999999  1
  Ag  Ag5  1  0.50000000  0.00000000  -0.00000000  1
  Ag  Ag6  1  0.75000002  0.50000001  0.49999999  1
  Ag  Ag7  1  0.00000000  0.00000000  0.00000000  1
  Se  Se8  1  0.31090903  0.70229801  0.61447598  1
  Se  Se9  1  0.12231701  0.20229800  0.11447599  1
  Se  Se10  1  0.67538501  0.20229800  0.88552400  1
  Se  Se11  1  0.76320703  0.79770201  0.11447597  1
  Se  Se12  1  0.62768301  0.29770200  0.38552399  1
  Se  Se13  1  0.98679303  0.70229801  0.38552398  1
  Se  Se14  1  0.07461501  0.29770200  0.61447600  1
  Se  Se15  1  0.43909103  0.79770201  0.88552398  1
