# generated using pymatgen
data_Tb2BiO5
_symmetry_space_group_name_H-M   'P 1'
_cell_length_a   6.89363718
_cell_length_b   6.89363718
_cell_length_c   6.89363718
_cell_angle_alpha   108.91370392
_cell_angle_beta   108.91370392
_cell_angle_gamma   110.59210968
_symmetry_Int_Tables_number   1
_chemical_formula_structural   Tb2BiO5
_chemical_formula_sum   'Tb4 Bi2 O10'
_cell_volume   252.11482274
_cell_formula_units_Z   2
loop_
 _symmetry_equiv_pos_site_id
 _symmetry_equiv_pos_as_xyz
  1  'x, y, z'
loop_
 _atom_site_type_symbol
 _atom_site_label
 _atom_site_symmetry_multiplicity
 _atom_site_fract_x
 _atom_site_fract_y
 _atom_site_fract_z
 _atom_site_occupancy
  Tb  Tb0  1  0.00000000  0.00000000  0.00000000  1
  Tb  Tb1  1  0.75000007  0.25000003  0.50000007  1
  Tb  Tb2  1  0.50000009  0.50000005  0.00000007  1
  Tb  Tb3  1  0.25000011  0.75000008  0.50000010  1
  Bi  Bi4  1  0.44556711  0.69272608  0.78998011  1
  Bi  Bi5  1  0.69272715  0.90274710  0.24716013  1
  O  O6  1  0.65558709  0.44556705  0.75284110  1
  O  O7  1  0.90274612  0.65558707  0.21001911  1
  O  O8  1  0.65828603  0.01335800  0.67164405  1
  O  O9  1  0.01335805  0.34171404  0.35507205  1
  O  O10  1  0.98664213  0.65828607  0.64492813  1
  O  O11  1  0.34171414  0.98664211  0.32835613  1
  O  O12  1  0.09725405  0.34441304  0.78998106  1
  O  O13  1  0.34441309  0.55443306  0.24715908  1
  O  O14  1  0.30727303  0.09725301  0.75284005  1
  O  O15  1  0.55443306  0.30727403  0.21002006  1
