# generated using pymatgen
data_Dy4Co5Si11
_symmetry_space_group_name_H-M   'P 1'
_cell_length_a   5.84559202
_cell_length_b   8.15406322
_cell_length_c   8.15406322
_cell_angle_alpha   75.46828461
_cell_angle_beta   68.99517822
_cell_angle_gamma   68.99517822
_symmetry_Int_Tables_number   1
_chemical_formula_structural   Dy4Co5Si11
_chemical_formula_sum   'Dy4 Co5 Si11'
_cell_volume   335.36967840
_cell_formula_units_Z   1
loop_
 _symmetry_equiv_pos_site_id
 _symmetry_equiv_pos_as_xyz
  1  'x, y, z'
loop_
 _atom_site_type_symbol
 _atom_site_label
 _atom_site_symmetry_multiplicity
 _atom_site_fract_x
 _atom_site_fract_y
 _atom_site_fract_z
 _atom_site_occupancy
  Dy  Dy0  1  0.63093299  0.13967801  0.59845605  1
  Dy  Dy1  1  0.36906704  0.86032203  0.40154404  1
  Dy  Dy2  1  0.86906700  0.40154401  0.86032207  1
  Dy  Dy3  1  0.13093303  0.59845602  0.13967801  1
  Co  Co4  1  0.89411103  0.95017203  0.26160505  1
  Si  Si5  1  0.10588900  0.04982800  0.73839504  1
  Co  Co6  1  0.60588802  0.73839603  0.04982803  1
  Si  Si7  1  0.39411201  0.26160401  0.95017206  1
  Co  Co8  1  0.47554403  0.77445603  0.77445606  1
  Co  Co9  1  0.02445601  0.22554401  0.22554401  1
  Co  Co10  1  0.52445600  0.22554401  0.22554403  1
  Si  Si11  1  0.97554402  0.77445603  0.77445607  1
  Si  Si12  1  0.25000002  0.50000002  0.50000004  1
  Si  Si13  1  0.75000001  0.50000002  0.50000005  1
  Si  Si14  1  0.25000000  0.00000000  1.00000006  1
  Si  Si15  1  0.74999999  0.00000000  1.00000007  1
  Si  Si16  1  0.86015302  0.75296503  0.52673006  1
  Si  Si17  1  0.13984701  0.24703501  0.47327003  1
  Si  Si18  1  0.63984801  0.47326902  0.24703504  1
  Si  Si19  1  0.36015202  0.52673102  0.75296505  1
