# generated using pymatgen
data_NdSn2
_symmetry_space_group_name_H-M   'P 1'
_cell_length_a   4.32625484
_cell_length_b   4.68649387
_cell_length_c   8.90161896
_cell_angle_alpha   105.20183563
_cell_angle_beta   90.00000000
_cell_angle_gamma   90.00000000
_symmetry_Int_Tables_number   1
_chemical_formula_structural   NdSn2
_chemical_formula_sum   'Nd2 Sn4'
_cell_volume   174.16468884
_cell_formula_units_Z   2
loop_
 _symmetry_equiv_pos_site_id
 _symmetry_equiv_pos_as_xyz
  1  'x, y, z'
loop_
 _atom_site_type_symbol
 _atom_site_label
 _atom_site_symmetry_multiplicity
 _atom_site_fract_x
 _atom_site_fract_y
 _atom_site_fract_z
 _atom_site_occupancy
  Nd  Nd0  1  0.75000003  0.87752303  0.29444000  1
  Nd  Nd1  1  0.25000001  0.12247700  0.70555997  1
  Sn  Sn2  1  0.75000003  0.22866201  0.01697000  1
  Sn  Sn3  1  0.25000001  0.77133803  0.98302997  1
  Sn  Sn4  1  0.75000003  0.58090102  0.62121898  1
  Sn  Sn5  1  0.25000001  0.41909901  0.37878099  1
