# generated using pymatgen
data_V2O3
_symmetry_space_group_name_H-M   'P 1'
_cell_length_a   5.52383995
_cell_length_b   7.55239868
_cell_length_c   7.55239868
_cell_angle_alpha   77.72654724
_cell_angle_beta   68.54927063
_cell_angle_gamma   68.54927063
_symmetry_Int_Tables_number   1
_chemical_formula_structural   V2O3
_chemical_formula_sum   'V8 O12'
_cell_volume   271.80309097
_cell_formula_units_Z   4
loop_
 _symmetry_equiv_pos_site_id
 _symmetry_equiv_pos_as_xyz
  1  'x, y, z'
loop_
 _atom_site_type_symbol
 _atom_site_label
 _atom_site_symmetry_multiplicity
 _atom_site_fract_x
 _atom_site_fract_y
 _atom_site_fract_z
 _atom_site_occupancy
  V  V0  1  0.04082807  0.70917199  0.70917195  1
  V  V1  1  0.45917202  0.29082800  0.29082799  1
  V  V2  1  0.95917202  0.29082800  0.29082801  1
  V  V3  1  0.54082806  0.70917199  0.70917196  1
  V  V4  1  0.41907002  0.30054300  0.86131599  1
  V  V5  1  0.58093006  0.69945699  0.13868397  1
  V  V6  1  0.91907107  0.86131499  0.30054297  1
  V  V7  1  0.08092901  0.13868500  0.69945699  1
  O  O8  1  0.75000001  0.18710100  0.81289901  1
  O  O9  1  0.75000007  0.81289899  0.18710097  1
  O  O10  1  0.25000007  0.81289899  0.18710095  1
  O  O11  1  0.25000002  0.18710100  0.81289899  1
  O  O12  1  0.20515608  0.90862999  0.68105794  1
  O  O13  1  0.79484400  0.09137000  0.31894202  1
  O  O14  1  0.70515606  0.68105799  0.90862997  1
  O  O15  1  0.29484403  0.31894200  0.09136999  1
  O  O16  1  0.12159902  0.26489200  0.49190998  1
  O  O17  1  0.87840106  0.73510799  0.50808997  1
  O  O18  1  0.62159904  0.49190999  0.26489198  1
  O  O19  1  0.37840104  0.50808999  0.73510797  1
