# generated using pymatgen
data_TlAg3I3O5
_symmetry_space_group_name_H-M   'P 1'
_cell_length_a   4.01938486
_cell_length_b   6.62032890
_cell_length_c   8.29049683
_cell_angle_alpha   90.00000000
_cell_angle_beta   90.00000000
_cell_angle_gamma   90.00000000
_symmetry_Int_Tables_number   1
_chemical_formula_structural   TlAg3I3O5
_chemical_formula_sum   'Tl1 Ag3 I3 O5'
_cell_volume   220.60721695
_cell_formula_units_Z   1
loop_
 _symmetry_equiv_pos_site_id
 _symmetry_equiv_pos_as_xyz
  1  'x, y, z'
loop_
 _atom_site_type_symbol
 _atom_site_label
 _atom_site_symmetry_multiplicity
 _atom_site_fract_x
 _atom_site_fract_y
 _atom_site_fract_z
 _atom_site_occupancy
  Ag  Ag0  1  0.75000003  0.29722400  0.23872201  1
  Tl  Tl1  1  0.75000003  0.20277600  0.73872202  1
  I  I2  1  0.25000001  0.79722401  0.26127801  1
  I  I3  1  0.25000001  0.70277601  0.76127802  1
  Ag  Ag4  1  0.25000001  0.32269900  0.98566202  1
  Ag  Ag5  1  0.25000001  0.17730100  0.48566201  1
  O  O6  1  0.75000003  0.82269901  0.51433801  1
  I  I7  1  0.75000003  0.67730101  0.01433800  1
  O  O8  1  0.25000001  0.05484700  0.77068602  1
  O  O9  1  0.25000001  0.44515301  0.27068601  1
  O  O10  1  0.75000003  0.55484701  0.72931402  1
  O  O11  1  0.75000003  0.94515301  0.22931400  1
