# generated using pymatgen
data_DyNi3
_symmetry_space_group_name_H-M   'P 1'
_cell_length_a   5.31204414
_cell_length_b   5.31204414
_cell_length_c   7.93887377
_cell_angle_alpha   90.00000000
_cell_angle_beta   90.00000000
_cell_angle_gamma   120.00000000
_symmetry_Int_Tables_number   1
_chemical_formula_structural   DyNi3
_chemical_formula_sum   'Dy3 Ni9'
_cell_volume   194.00498038
_cell_formula_units_Z   3
loop_
 _symmetry_equiv_pos_site_id
 _symmetry_equiv_pos_as_xyz
  1  'x, y, z'
loop_
 _atom_site_type_symbol
 _atom_site_label
 _atom_site_symmetry_multiplicity
 _atom_site_fract_x
 _atom_site_fract_y
 _atom_site_fract_z
 _atom_site_occupancy
  Dy  Dy0  1  0.49999999  0.00000000  0.16666700  1
  Dy  Dy1  1  0.49999998  0.49999998  0.50000001  1
  Dy  Dy2  1  -0.00000000  0.49999998  0.83333302  1
  Ni  Ni3  1  0.49999999  0.00000000  0.66666669  1
  Ni  Ni4  1  0.49999998  0.49999998  -0.00000000  1
  Ni  Ni5  1  -0.00000000  0.49999998  0.33333334  1
  Ni  Ni6  1  0.84839997  0.69679997  0.16666700  1
  Ni  Ni7  1  0.84839998  0.15159899  0.50000001  1
  Ni  Ni8  1  0.30319899  0.15159899  0.83333302  1
  Ni  Ni9  1  0.15159999  0.30319999  0.16666700  1
  Ni  Ni10  1  0.15159999  0.84840097  0.50000001  1
  Ni  Ni11  1  0.69680098  0.84840097  0.83333302  1
