# generated using pymatgen
data_InPd
_symmetry_space_group_name_H-M   'P 1'
_cell_length_a   8.72847176
_cell_length_b   8.72847176
_cell_length_c   8.72847176
_cell_angle_alpha   107.03202820
_cell_angle_beta   107.03202820
_cell_angle_gamma   107.03203583
_symmetry_Int_Tables_number   1
_chemical_formula_structural   InPd
_chemical_formula_sum   'In10 Pd10'
_cell_volume   553.32481177
_cell_formula_units_Z   10
loop_
 _symmetry_equiv_pos_site_id
 _symmetry_equiv_pos_as_xyz
  1  'x, y, z'
loop_
 _atom_site_type_symbol
 _atom_site_label
 _atom_site_symmetry_multiplicity
 _atom_site_fract_x
 _atom_site_fract_y
 _atom_site_fract_z
 _atom_site_occupancy
  In  In0  1  0.90515491  0.70113595  0.97678890  1
  In  In1  1  0.97678889  0.90515494  0.70113588  1
  In  In2  1  0.70113590  0.97678893  0.90515489  1
  In  In3  1  0.09484497  0.29886398  0.02321097  1
  In  In4  1  0.02321099  0.09484499  0.29886400  1
  In  In5  1  0.29886399  0.02321100  0.09484498  1
  In  In6  1  0.49999994  0.49999997  0.49999994  1
  Pd  Pd7  1  0.00000000  0.00000000  0.00000000  1
  Pd  Pd8  1  0.93020390  0.77997695  0.31980788  1
  In  In9  1  0.31980792  0.93020394  0.77997691  1
  In  In10  1  0.77997695  0.31980798  0.93020395  1
  In  In11  1  0.06979598  0.22002298  0.68019199  1
  Pd  Pd12  1  0.68019197  0.06979600  0.22002296  1
  Pd  Pd13  1  0.22002294  0.68019195  0.06979593  1
  Pd  Pd14  1  0.54149093  0.61454496  0.83557293  1
  Pd  Pd15  1  0.83557293  0.54149096  0.61454492  1
  Pd  Pd16  1  0.61454491  0.83557294  0.54149090  1
  Pd  Pd17  1  0.45850895  0.38545497  0.16442694  1
  Pd  Pd18  1  0.16442696  0.45850897  0.38545496  1
  Pd  Pd19  1  0.38545497  0.16442699  0.45850897  1
