# generated using pymatgen
data_Zr(CuO2)4
_symmetry_space_group_name_H-M   'P 1'
_cell_length_a   3.24701810
_cell_length_b   7.55467701
_cell_length_c   7.66938782
_cell_angle_alpha   86.71518707
_cell_angle_beta   77.77877045
_cell_angle_gamma   77.59027100
_symmetry_Int_Tables_number   1
_chemical_formula_structural   Zr(CuO2)4
_chemical_formula_sum   'Zr1 Cu4 O8'
_cell_volume   179.55822053
_cell_formula_units_Z   1
loop_
 _symmetry_equiv_pos_site_id
 _symmetry_equiv_pos_as_xyz
  1  'x, y, z'
loop_
 _atom_site_type_symbol
 _atom_site_label
 _atom_site_symmetry_multiplicity
 _atom_site_fract_x
 _atom_site_fract_y
 _atom_site_fract_z
 _atom_site_occupancy
  Zr  Zr0  1  0.49577899  0.00508000  0.00336199  1
  Cu  Cu1  1  0.16576301  0.48602400  0.18245001  1
  Cu  Cu2  1  0.82977199  0.51143100  0.82902500  1
  Cu  Cu3  1  0.65179199  0.19013500  0.50628100  1
  Cu  Cu4  1  0.35692901  0.80733100  0.47881102  1
  O  O5  1  0.16356500  0.30025400  0.37261601  1
  O  O6  1  0.82993499  0.70929300  0.63083701  1
  O  O7  1  0.45728800  0.37774200  0.70768200  1
  O  O8  1  0.54647700  0.61779500  0.28925101  1
  O  O9  1  0.19838701  0.64487600  0.95835002  1
  O  O10  1  0.79841599  0.34954600  0.05362200  1
  O  O11  1  0.84865000  0.95259100  0.35010902  1
  O  O12  1  0.15724700  0.04790000  0.63760600  1
