# generated using pymatgen
data_CeFe5
_symmetry_space_group_name_H-M   'P 1'
_cell_length_a   5.05352211
_cell_length_b   6.42409039
_cell_length_c   6.42409039
_cell_angle_alpha   76.14859009
_cell_angle_beta   66.83839417
_cell_angle_gamma   66.83839417
_symmetry_Int_Tables_number   1
_chemical_formula_structural   CeFe5
_chemical_formula_sum   'Ce2 Fe10'
_cell_volume   175.40193684
_cell_formula_units_Z   2
loop_
 _symmetry_equiv_pos_site_id
 _symmetry_equiv_pos_as_xyz
  1  'x, y, z'
loop_
 _atom_site_type_symbol
 _atom_site_label
 _atom_site_symmetry_multiplicity
 _atom_site_fract_x
 _atom_site_fract_y
 _atom_site_fract_z
 _atom_site_occupancy
  Ce  Ce0  1  0.03189900  0.00000000  -0.00000000  1
  Ce  Ce1  1  0.01133499  0.50000002  0.49999999  1
  Fe  Fe2  1  0.67331599  0.32001701  0.32001697  1
  Fe  Fe3  1  0.31334898  0.67998302  0.67998297  1
  Fe  Fe4  1  0.38443599  0.15603800  0.15603798  1
  Fe  Fe5  1  0.69651198  0.84396203  0.84396196  1
  Fe  Fe6  1  0.51871599  0.25809501  0.74190499  1
  Fe  Fe7  1  0.51871598  0.74190502  0.25809496  1
  Fe  Fe8  1  0.51808098  0.50598702  0.99371198  1
  Fe  Fe9  1  0.01777899  0.49401302  0.00628798  1
  Fe  Fe10  1  0.01777900  0.00628800  0.49401301  1
  Fe  Fe11  1  0.51808097  0.99371203  0.50598695  1
