# generated using pymatgen
data_ScAlFe
_symmetry_space_group_name_H-M   'P 1'
_cell_length_a   5.12752008
_cell_length_b   5.13032579
_cell_length_c   8.30292416
_cell_angle_alpha   90.00000000
_cell_angle_beta   90.00000000
_cell_angle_gamma   119.98191071
_symmetry_Int_Tables_number   1
_chemical_formula_structural   ScAlFe
_chemical_formula_sum   'Sc4 Al4 Fe4'
_cell_volume   189.18781098
_cell_formula_units_Z   4
loop_
 _symmetry_equiv_pos_site_id
 _symmetry_equiv_pos_as_xyz
  1  'x, y, z'
loop_
 _atom_site_type_symbol
 _atom_site_label
 _atom_site_symmetry_multiplicity
 _atom_site_fract_x
 _atom_site_fract_y
 _atom_site_fract_z
 _atom_site_occupancy
  Sc  Sc0  1  0.33333332  0.66666665  0.43785899  1
  Sc  Sc1  1  0.66666665  0.33333333  0.56214099  1
  Sc  Sc2  1  0.66666665  0.33333333  0.93785898  1
  Sc  Sc3  1  0.33333332  0.66666665  0.06214100  1
  Al  Al4  1  0.00000000  0.00000000  0.49999999  1
  Fe  Fe5  1  0.00000000  0.00000000  0.00000000  1
  Al  Al6  1  0.83434799  0.16547800  0.25000000  1
  Fe  Fe7  1  0.83439698  0.66879398  0.25000000  1
  Fe  Fe8  1  0.33112999  0.16547800  0.25000000  1
  Fe  Fe9  1  0.16565199  0.83452198  0.74999999  1
  Al  Al10  1  0.16560300  0.33120599  0.74999999  1
  Al  Al11  1  0.66886998  0.83452198  0.74999999  1
