# generated using pymatgen
data_Er2GaNi2
_symmetry_space_group_name_H-M   'P 1'
_cell_length_a   3.99734807
_cell_length_b   5.30752039
_cell_length_c   5.30752039
_cell_angle_alpha   61.25846100
_cell_angle_beta   67.87837219
_cell_angle_gamma   67.87837219
_symmetry_Int_Tables_number   1
_chemical_formula_structural   Er2GaNi2
_chemical_formula_sum   'Er2 Ga1 Ni2'
_cell_volume   88.77467080
_cell_formula_units_Z   1
loop_
 _symmetry_equiv_pos_site_id
 _symmetry_equiv_pos_as_xyz
  1  'x, y, z'
loop_
 _atom_site_type_symbol
 _atom_site_label
 _atom_site_symmetry_multiplicity
 _atom_site_fract_x
 _atom_site_fract_y
 _atom_site_fract_z
 _atom_site_occupancy
  Er  Er0  1  0.20578299  0.29421700  0.29421701  1
  Er  Er1  1  0.79421697  0.70578301  0.70578303  1
  Ga  Ga2  1  0.00000000  0.00000000  0.00000000  1
  Ni  Ni3  1  0.49999999  0.28283600  0.71716402  1
  Ni  Ni4  1  0.49999997  0.71716401  0.28283602  1
