# generated using pymatgen
data_LiTiO4
_symmetry_space_group_name_H-M   'P 1'
_cell_length_a   5.94250774
_cell_length_b   5.94250774
_cell_length_c   5.94250822
_cell_angle_alpha   60.02667999
_cell_angle_beta   60.02667999
_cell_angle_gamma   60.02667618
_symmetry_Int_Tables_number   1
_chemical_formula_structural   LiTiO4
_chemical_formula_sum   'Li2 Ti2 O8'
_cell_volume   148.47621078
_cell_formula_units_Z   2
loop_
 _symmetry_equiv_pos_site_id
 _symmetry_equiv_pos_as_xyz
  1  'x, y, z'
loop_
 _atom_site_type_symbol
 _atom_site_label
 _atom_site_symmetry_multiplicity
 _atom_site_fract_x
 _atom_site_fract_y
 _atom_site_fract_z
 _atom_site_occupancy
  Li  Li0  1  -0.00000000  0.50000003  0.49999999  1
  Li  Li1  1  0.50000002  0.50000003  -0.00000003  1
  Ti  Ti2  1  0.50000003  0.00000000  0.49999999  1
  Ti  Ti3  1  0.00000000  0.00000000  0.00000000  1
  O  O4  1  0.23317701  0.74302304  0.23317697  1
  O  O5  1  0.23317701  0.23317701  0.74302299  1
  O  O6  1  0.74302304  0.23317701  0.23317697  1
  O  O7  1  0.72303704  0.72303704  0.72303696  1
  O  O8  1  0.27696301  0.27696302  0.27696299  1
  O  O9  1  0.25697701  0.76682304  0.76682298  1
  O  O10  1  0.76682304  0.76682304  0.25697695  1
  O  O11  1  0.76682304  0.25697701  0.76682298  1
