# generated using pymatgen
data_MoWSe3S
_symmetry_space_group_name_H-M   'P 1'
_cell_length_a   3.32366991
_cell_length_b   3.32366943
_cell_length_c   37.82491302
_cell_angle_alpha   90.00000000
_cell_angle_beta   90.00000000
_cell_angle_gamma   120.00000763
_symmetry_Int_Tables_number   1
_chemical_formula_structural   MoWSe3S
_chemical_formula_sum   'Mo2 W2 Se6 S2'
_cell_volume   361.86305457
_cell_formula_units_Z   2
loop_
 _symmetry_equiv_pos_site_id
 _symmetry_equiv_pos_as_xyz
  1  'x, y, z'
loop_
 _atom_site_type_symbol
 _atom_site_label
 _atom_site_symmetry_multiplicity
 _atom_site_fract_x
 _atom_site_fract_y
 _atom_site_fract_z
 _atom_site_occupancy
  Mo  Mo0  1  0.66666670  0.33333334  0.90608002  1
  Mo  Mo1  1  0.66666670  0.33333334  0.53034201  1
  W  W2  1  0.33333337  0.66666668  0.71820002  1
  W  W3  1  0.33333337  0.66666668  0.34246201  1
  Se  Se4  1  0.66666670  0.33333334  0.67388502  1
  Se  Se5  1  0.66666670  0.33333334  0.29793301  1
  Se  Se6  1  0.33333337  0.66666668  0.95037302  1
  Se  Se7  1  0.33333337  0.66666668  0.57464101  1
  Se  Se8  1  0.33333337  0.66666668  0.86177202  1
  Se  Se9  1  0.33333337  0.66666668  0.48605501  1
  S  S10  1  0.66666670  0.33333334  0.76251402  1
  S  S11  1  0.66666670  0.33333334  0.38699501  1
