# generated using pymatgen
data_SmYFe17
_symmetry_space_group_name_H-M   'P 1'
_cell_length_a   6.44061232
_cell_length_b   6.44061232
_cell_length_c   6.44061279
_cell_angle_alpha   82.36081696
_cell_angle_beta   82.36081696
_cell_angle_gamma   82.36080933
_symmetry_Int_Tables_number   1
_chemical_formula_structural   SmYFe17
_chemical_formula_sum   'Sm1 Y1 Fe17'
_cell_volume   260.63205701
_cell_formula_units_Z   1
loop_
 _symmetry_equiv_pos_site_id
 _symmetry_equiv_pos_as_xyz
  1  'x, y, z'
loop_
 _atom_site_type_symbol
 _atom_site_label
 _atom_site_symmetry_multiplicity
 _atom_site_fract_x
 _atom_site_fract_y
 _atom_site_fract_z
 _atom_site_occupancy
  Sm  Sm0  1  0.34129999  0.34130001  0.34130000  1
  Y  Y1  1  0.65869999  0.65870001  0.65870001  1
  Fe  Fe2  1  0.00000000  0.00000000  0.49999999  1
  Fe  Fe3  1  0.50000001  0.00000000  0.00000000  1
  Fe  Fe4  1  -0.00000002  0.50000001  0.00000001  1
  Fe  Fe5  1  0.29419698  0.70580301  0.00000001  1
  Fe  Fe6  1  -0.00000001  0.29419701  0.70580300  1
  Fe  Fe7  1  0.70580301  0.00000000  0.29419700  1
  Fe  Fe8  1  -0.00000002  0.70580301  0.29419701  1
  Fe  Fe9  1  0.29419700  0.00000000  0.70580299  1
  Fe  Fe10  1  0.70580300  0.29419701  0.00000001  1
  Fe  Fe11  1  0.65794599  0.65794601  0.16377401  1
  Fe  Fe12  1  0.16377398  0.65794601  0.65794600  1
  Fe  Fe13  1  0.65794601  0.16377400  0.65794600  1
  Fe  Fe14  1  0.34205399  0.34205401  0.83622600  1
  Fe  Fe15  1  0.83622600  0.34205401  0.34205401  1
  Fe  Fe16  1  0.34205398  0.83622602  0.34205401  1
  Fe  Fe17  1  0.09209100  0.09209100  0.09209100  1
  Fe  Fe18  1  0.90790899  0.90790902  0.90790901  1
