# generated using pymatgen
data_Ac2Pd
_symmetry_space_group_name_H-M   'P 1'
_cell_length_a   5.41660643
_cell_length_b   5.41660643
_cell_length_c   5.41660643
_cell_angle_alpha   60.00000000
_cell_angle_beta   60.00000000
_cell_angle_gamma   60.00000000
_symmetry_Int_Tables_number   1
_chemical_formula_structural   Ac2Pd
_chemical_formula_sum   'Ac2 Pd1'
_cell_volume   112.37425980
_cell_formula_units_Z   1
loop_
 _symmetry_equiv_pos_site_id
 _symmetry_equiv_pos_as_xyz
  1  'x, y, z'
loop_
 _atom_site_type_symbol
 _atom_site_label
 _atom_site_symmetry_multiplicity
 _atom_site_fract_x
 _atom_site_fract_y
 _atom_site_fract_z
 _atom_site_occupancy
  Ac  Ac0  1  0.24999999  0.24999999  0.24999999  1
  Ac  Ac1  1  0.74999997  0.74999997  0.74999997  1
  Pd  Pd2  1  0.00000000  0.00000000  0.00000000  1
