# generated using pymatgen
data_La4Sb3
_symmetry_space_group_name_H-M   'P 1'
_cell_length_a   8.22890949
_cell_length_b   8.22890949
_cell_length_c   8.22890949
_cell_angle_alpha   109.47122192
_cell_angle_beta   109.47122192
_cell_angle_gamma   109.47122192
_symmetry_Int_Tables_number   1
_chemical_formula_structural   La4Sb3
_chemical_formula_sum   'La8 Sb6'
_cell_volume   428.94829460
_cell_formula_units_Z   2
loop_
 _symmetry_equiv_pos_site_id
 _symmetry_equiv_pos_as_xyz
  1  'x, y, z'
loop_
 _atom_site_type_symbol
 _atom_site_label
 _atom_site_symmetry_multiplicity
 _atom_site_fract_x
 _atom_site_fract_y
 _atom_site_fract_z
 _atom_site_occupancy
  La  La0  1  1.00000002  0.50000001  0.14101205  1
  La  La1  1  0.00000003  0.50000001  0.64101201  1
  La  La2  1  0.35898802  0.35898801  0.85898801  1
  La  La3  1  0.64101199  0.00000000  0.00000002  1
  La  La4  1  0.85898804  0.85898801  0.35898806  1
  La  La5  1  0.50000000  0.14101200  0.50000001  1
  La  La6  1  0.14101200  0.00000000  0.00000000  1
  La  La7  1  0.50000003  0.64101201  0.50000004  1
  Sb  Sb8  1  0.25000005  0.87500001  0.62500004  1
  Sb  Sb9  1  0.87499999  0.12500000  0.75000001  1
  Sb  Sb10  1  0.62500001  0.37500001  0.25000003  1
  Sb  Sb11  1  0.75000003  0.62500001  0.87500003  1
  Sb  Sb12  1  0.12500001  0.25000000  0.37500001  1
  Sb  Sb13  1  0.37500004  0.75000001  0.12500005  1
