# generated using pymatgen
data_MnCo2PC
_symmetry_space_group_name_H-M   'P 1'
_cell_length_a   2.86793995
_cell_length_b   5.34181643
_cell_length_c   7.64834595
_cell_angle_alpha   90.00000000
_cell_angle_beta   90.00000000
_cell_angle_gamma   105.57160187
_symmetry_Int_Tables_number   1
_chemical_formula_structural   MnCo2PC
_chemical_formula_sum   'Mn2 Co4 P2 C2'
_cell_volume   112.87198798
_cell_formula_units_Z   2
loop_
 _symmetry_equiv_pos_site_id
 _symmetry_equiv_pos_as_xyz
  1  'x, y, z'
loop_
 _atom_site_type_symbol
 _atom_site_label
 _atom_site_symmetry_multiplicity
 _atom_site_fract_x
 _atom_site_fract_y
 _atom_site_fract_z
 _atom_site_occupancy
  Mn  Mn0  1  0.12557601  0.25115200  0.54433000  1
  Mn  Mn1  1  0.87442403  0.74884800  0.45567000  1
  Co  Co2  1  0.12557601  0.25115200  0.95567001  1
  Co  Co3  1  0.87442403  0.74884800  0.04433000  1
  Co  Co4  1  0.46906303  0.93812600  0.75000001  1
  Co  Co5  1  0.53093701  0.06187400  0.25000000  1
  P  P6  1  0.76019402  0.52038800  0.75000001  1
  P  P7  1  0.23980601  0.47961200  0.25000000  1
  C  C8  1  0.50000001  0.00000000  0.50000000  1
  C  C9  1  0.50000001  0.00000000  0.00000000  1
