# generated using pymatgen
data_DyNi5
_symmetry_space_group_name_H-M   'P 1'
_cell_length_a   3.96605110
_cell_length_b   5.11506844
_cell_length_c   5.11496067
_cell_angle_alpha   119.99450684
_cell_angle_beta   90.00000000
_cell_angle_gamma   90.00000000
_symmetry_Int_Tables_number   1
_chemical_formula_structural   DyNi5
_chemical_formula_sum   'Dy1 Ni5'
_cell_volume   89.86834036
_cell_formula_units_Z   1
loop_
 _symmetry_equiv_pos_site_id
 _symmetry_equiv_pos_as_xyz
  1  'x, y, z'
loop_
 _atom_site_type_symbol
 _atom_site_label
 _atom_site_symmetry_multiplicity
 _atom_site_fract_x
 _atom_site_fract_y
 _atom_site_fract_z
 _atom_site_occupancy
  Dy  Dy0  1  0.00000000  0.99997401  0.00001494  1
  Ni  Ni1  1  0.00000000  0.33333334  0.66666662  1
  Ni  Ni2  1  0.00000000  0.66666667  0.33333328  1
  Ni  Ni3  1  0.49999999  0.50255400  0.00508097  1
  Ni  Ni4  1  0.49999999  0.50252900  0.49745895  1
  Ni  Ni5  1  0.49999999  0.99490301  0.49743392  1
