# generated using pymatgen
data_Dy5In3
_symmetry_space_group_name_H-M   'P 1'
_cell_length_a   7.98989487
_cell_length_b   7.98989487
_cell_length_c   9.12036228
_cell_angle_alpha   115.97793579
_cell_angle_beta   115.97794342
_cell_angle_gamma   90.00000000
_symmetry_Int_Tables_number   1
_chemical_formula_structural   Dy5In3
_chemical_formula_sum   'Dy10 In6'
_cell_volume   457.06615570
_cell_formula_units_Z   2
loop_
 _symmetry_equiv_pos_site_id
 _symmetry_equiv_pos_as_xyz
  1  'x, y, z'
loop_
 _atom_site_type_symbol
 _atom_site_label
 _atom_site_symmetry_multiplicity
 _atom_site_fract_x
 _atom_site_fract_y
 _atom_site_fract_z
 _atom_site_occupancy
  Dy  Dy0  1  0.50000000  0.50000000  1.00000003  1
  Dy  Dy1  1  0.00000000  0.00000000  0.00000000  1
  Dy  Dy2  1  0.49175999  0.99176100  0.30321398  1
  Dy  Dy3  1  0.81145300  0.31145300  0.30321400  1
  Dy  Dy4  1  0.99176100  0.81145400  0.30321398  1
  Dy  Dy5  1  0.31145299  0.49176100  0.30321400  1
  Dy  Dy6  1  0.50823901  0.00823900  0.69678603  1
  Dy  Dy7  1  0.18854699  0.68854600  0.69678601  1
  Dy  Dy8  1  0.00824000  0.18854700  0.69678603  1
  Dy  Dy9  1  0.68854700  0.50823900  0.69678601  1
  In  In10  1  0.75000000  0.75000000  0.50000000  1
  In  In11  1  0.25000000  0.25000000  0.50000002  1
  In  In12  1  0.13615799  0.63615800  1.00000003  1
  In  In13  1  0.86384200  0.36384200  -0.00000002  1
  In  In14  1  0.63615799  0.86384200  -0.00000003  1
  In  In15  1  0.36384200  0.13615800  1.00000004  1
