# generated using pymatgen
data_Dy4Ge6Ir7
_symmetry_space_group_name_H-M   'P 1'
_cell_length_a   7.22391605
_cell_length_b   7.22391605
_cell_length_c   7.22391605
_cell_angle_alpha   109.47122192
_cell_angle_beta   109.47122192
_cell_angle_gamma   109.47122192
_symmetry_Int_Tables_number   1
_chemical_formula_structural   Dy4Ge6Ir7
_chemical_formula_sum   'Dy4 Ge6 Ir7'
_cell_volume   290.19916616
_cell_formula_units_Z   1
loop_
 _symmetry_equiv_pos_site_id
 _symmetry_equiv_pos_as_xyz
  1  'x, y, z'
loop_
 _atom_site_type_symbol
 _atom_site_label
 _atom_site_symmetry_multiplicity
 _atom_site_fract_x
 _atom_site_fract_y
 _atom_site_fract_z
 _atom_site_occupancy
  Dy  Dy0  1  0.50000005  0.50000003  0.50000005  1
  Dy  Dy1  1  0.00000003  0.50000003  0.00000003  1
  Dy  Dy2  1  0.00000000  0.00000000  0.50000001  1
  Dy  Dy3  1  0.50000002  0.00000000  0.00000001  1
  Ge  Ge4  1  0.00000004  0.69218005  0.69218006  1
  Ge  Ge5  1  0.69218007  0.69218005  0.00000006  1
  Ge  Ge6  1  0.69218003  0.00000000  0.69218004  1
  Ge  Ge7  1  0.00000002  0.30782002  0.30782003  1
  Ge  Ge8  1  0.30782003  0.30782002  1.00000005  1
  Ge  Ge9  1  0.30782001  0.00000000  0.30782002  1
  Ir  Ir10  1  0.50000007  0.75000005  0.25000006  1
  Ir  Ir11  1  0.75000004  0.25000002  0.50000005  1
  Ir  Ir12  1  0.25000004  0.50000003  0.75000006  1
  Ir  Ir13  1  0.25000006  0.75000005  0.50000006  1
  Ir  Ir14  1  0.50000003  0.25000002  0.75000005  1
  Ir  Ir15  1  0.75000006  0.50000003  0.25000005  1
  Ir  Ir16  1  0.00000000  0.00000000  0.00000000  1
