# generated using pymatgen
data_Al3Mo
_symmetry_space_group_name_H-M   'P 1'
_cell_length_a   4.61954498
_cell_length_b   6.30057621
_cell_length_c   6.30057621
_cell_angle_alpha   120.00000000
_cell_angle_beta   90.00000000
_cell_angle_gamma   90.00000000
_symmetry_Int_Tables_number   1
_chemical_formula_structural   Al3Mo
_chemical_formula_sum   'Al6 Mo2'
_cell_volume   158.81457992
_cell_formula_units_Z   2
loop_
 _symmetry_equiv_pos_site_id
 _symmetry_equiv_pos_as_xyz
  1  'x, y, z'
loop_
 _atom_site_type_symbol
 _atom_site_label
 _atom_site_symmetry_multiplicity
 _atom_site_fract_x
 _atom_site_fract_y
 _atom_site_fract_z
 _atom_site_occupancy
  Al  Al0  1  0.50000000  0.00000000  -0.00000000  1
  Al  Al1  1  -0.00000000  0.66666665  0.33333334  1
  Al  Al2  1  1.00000000  0.62650998  0.81325499  1
  Al  Al3  1  1.00000000  0.18674499  0.37349000  1
  Al  Al4  1  1.00000000  0.18674499  0.81325499  1
  Al  Al5  1  0.50000000  0.03965300  0.51982599  1
  Mo  Mo6  1  0.50000000  0.48017299  0.96034599  1
  Mo  Mo7  1  0.50000000  0.48017299  0.51982600  1
