# generated using pymatgen
data_Nb2Rh3
_symmetry_space_group_name_H-M   'P 1'
_cell_length_a   5.66502190
_cell_length_b   5.66502190
_cell_length_c   13.96711922
_cell_angle_alpha   90.00000000
_cell_angle_beta   90.00000000
_cell_angle_gamma   120.00000000
_symmetry_Int_Tables_number   1
_chemical_formula_structural   Nb2Rh3
_chemical_formula_sum   'Nb8 Rh12'
_cell_volume   388.18670527
_cell_formula_units_Z   4
loop_
 _symmetry_equiv_pos_site_id
 _symmetry_equiv_pos_as_xyz
  1  'x, y, z'
loop_
 _atom_site_type_symbol
 _atom_site_label
 _atom_site_symmetry_multiplicity
 _atom_site_fract_x
 _atom_site_fract_y
 _atom_site_fract_z
 _atom_site_occupancy
  Nb  Nb0  1  0.00000000  0.00000000  0.74999999  1
  Nb  Nb1  1  0.00000000  0.00000000  0.25000000  1
  Nb  Nb2  1  0.66666668  0.33333334  0.74999999  1
  Nb  Nb3  1  0.33333334  0.66666668  0.25000000  1
  Nb  Nb4  1  0.66666668  0.33333334  0.41317999  1
  Nb  Nb5  1  0.33333334  0.66666668  0.91317999  1
  Nb  Nb6  1  0.33333334  0.66666668  0.58681999  1
  Nb  Nb7  1  0.66666668  0.33333334  0.08682000  1
  Rh  Rh8  1  0.83430702  0.16569300  0.58958399  1
  Rh  Rh9  1  0.83430702  0.66861402  0.58958399  1
  Rh  Rh10  1  0.33138601  0.16569300  0.58958399  1
  Rh  Rh11  1  0.16569300  0.33138601  0.08958400  1
  Rh  Rh12  1  0.66861402  0.83430702  0.08958400  1
  Rh  Rh13  1  0.16569301  0.83430702  0.08958400  1
  Rh  Rh14  1  0.16569301  0.83430702  0.41041599  1
  Rh  Rh15  1  0.16569300  0.33138601  0.41041599  1
  Rh  Rh16  1  0.66861402  0.83430702  0.41041599  1
  Rh  Rh17  1  0.83430702  0.66861402  0.91041599  1
  Rh  Rh18  1  0.33138601  0.16569300  0.91041599  1
  Rh  Rh19  1  0.83430702  0.16569300  0.91041599  1
