# generated using pymatgen
data_NaThSe2
_symmetry_space_group_name_H-M   'P 1'
_cell_length_a   4.38532400
_cell_length_b   4.38532400
_cell_length_c   7.46365833
_cell_angle_alpha   72.91569519
_cell_angle_beta   72.91569519
_cell_angle_gamma   60.00000000
_symmetry_Int_Tables_number   1
_chemical_formula_structural   NaThSe2
_chemical_formula_sum   'Na1 Th1 Se2'
_cell_volume   116.93354946
_cell_formula_units_Z   1
loop_
 _symmetry_equiv_pos_site_id
 _symmetry_equiv_pos_as_xyz
  1  'x, y, z'
loop_
 _atom_site_type_symbol
 _atom_site_label
 _atom_site_symmetry_multiplicity
 _atom_site_fract_x
 _atom_site_fract_y
 _atom_site_fract_z
 _atom_site_occupancy
  Na  Na0  1  0.00000000  0.00000000  0.00000000  1
  Th  Th1  1  0.49999997  0.50000000  0.50000003  1
  Se  Se2  1  0.75514296  0.75514299  0.73457104  1
  Se  Se3  1  0.24485699  0.24485700  0.26542901  1
