# generated using pymatgen
data_KHg2
_symmetry_space_group_name_H-M   'P 1'
_cell_length_a   4.85475779
_cell_length_b   5.30861282
_cell_length_c   4.93656826
_cell_angle_alpha   94.50137329
_cell_angle_beta   90.00000000
_cell_angle_gamma   117.20999146
_symmetry_Int_Tables_number   1
_chemical_formula_structural   KHg2
_chemical_formula_sum   'K1 Hg2'
_cell_volume   112.70475029
_cell_formula_units_Z   1
loop_
 _symmetry_equiv_pos_site_id
 _symmetry_equiv_pos_as_xyz
  1  'x, y, z'
loop_
 _atom_site_type_symbol
 _atom_site_label
 _atom_site_symmetry_multiplicity
 _atom_site_fract_x
 _atom_site_fract_y
 _atom_site_fract_z
 _atom_site_occupancy
  K  K0  1  0.00000000  0.00000000  0.00000000  1
  Hg  Hg1  1  0.34136205  0.68272401  0.45110097  1
  Hg  Hg2  1  0.65863805  0.31727600  0.54889899  1
