# generated using pymatgen
data_Sr4GdSb(WO6)2
_symmetry_space_group_name_H-M   'P 1'
_cell_length_a   5.95908117
_cell_length_b   5.97402477
_cell_length_c   8.43512821
_cell_angle_alpha   90.20971680
_cell_angle_beta   89.81546021
_cell_angle_gamma   89.70517731
_symmetry_Int_Tables_number   1
_chemical_formula_structural   Sr4GdSb(WO6)2
_chemical_formula_sum   'Sr4 Gd1 Sb1 W2 O12'
_cell_volume   300.28045878
_cell_formula_units_Z   1
loop_
 _symmetry_equiv_pos_site_id
 _symmetry_equiv_pos_as_xyz
  1  'x, y, z'
loop_
 _atom_site_type_symbol
 _atom_site_label
 _atom_site_symmetry_multiplicity
 _atom_site_fract_x
 _atom_site_fract_y
 _atom_site_fract_z
 _atom_site_occupancy
  Sr  Sr0  1  0.99578358  0.01772495  0.24982812  1
  Sr  Sr1  1  0.00421644  0.98227506  0.75017191  1
  Sr  Sr2  1  0.50382336  0.52738788  0.25109829  1
  Sr  Sr3  1  0.49617666  0.47261212  0.74890173  1
  Gd  Gd4  1  0.50000001  0.00000000  0.00000001  1
  Sb  Sb5  1  -0.00000001  0.50000000  0.50000000  1
  W  W6  1  -0.00000001  0.50000000  -0.00000001  1
  W  W7  1  0.50000001  0.00000000  0.50000003  1
  O  O8  1  0.21143719  0.23952626  0.96837424  1
  O  O9  1  0.29782988  0.73098925  0.53394742  1
  O  O10  1  0.78856282  0.76047374  0.03162579  1
  O  O11  1  0.70217013  0.26901075  0.46605260  1
  O  O12  1  0.26600786  0.70500798  0.96326063  1
  O  O13  1  0.24028127  0.21342601  0.52785172  1
  O  O14  1  0.73399216  0.29499202  0.03673940  1
  O  O15  1  0.75971874  0.78657399  0.47214831  1
  O  O16  1  0.44916422  0.97728017  0.26402817  1
  O  O17  1  0.07338569  0.49783217  0.23528286  1
  O  O18  1  0.55083579  0.02271984  0.73597185  1
  O  O19  1  0.92661433  0.50216783  0.76471717  1
