# generated using pymatgen
data_Nb4SbTe3Mo3Se
_symmetry_space_group_name_H-M   'P 1'
_cell_length_a   6.89695120
_cell_length_b   7.01564217
_cell_length_c   7.08323765
_cell_angle_alpha   115.94724274
_cell_angle_beta   90.00000000
_cell_angle_gamma   90.00000000
_symmetry_Int_Tables_number   1
_chemical_formula_structural   Nb4SbTe3Mo3Se
_chemical_formula_sum   'Nb4 Sb1 Te3 Mo3 Se1'
_cell_volume   308.18492817
_cell_formula_units_Z   1
loop_
 _symmetry_equiv_pos_site_id
 _symmetry_equiv_pos_as_xyz
  1  'x, y, z'
loop_
 _atom_site_type_symbol
 _atom_site_label
 _atom_site_symmetry_multiplicity
 _atom_site_fract_x
 _atom_site_fract_y
 _atom_site_fract_z
 _atom_site_occupancy
  Nb  Nb0  1  0.64189698  0.34678398  0.17081497  1
  Nb  Nb1  1  0.14189700  0.65321596  0.32918495  1
  Nb  Nb2  1  0.35810299  0.65321596  0.82918495  1
  Nb  Nb3  1  0.85810298  0.34678398  0.67081497  1
  Sb  Sb4  1  0.36369899  0.14539999  0.37425099  1
  Mo  Mo5  1  0.86369898  0.85459995  0.12574894  1
  Mo  Mo6  1  0.63630098  0.85459995  0.62574893  1
  Mo  Mo7  1  0.13630100  0.14539999  0.87425098  1
  Te  Te8  1  0.00300600  0.27085999  0.28605098  1
  Te  Te9  1  0.50300599  0.72913996  0.21394895  1
  Se  Se10  1  0.99699397  0.72913996  0.71394894  1
  Te  Te11  1  0.49699399  0.27085999  0.78605097  1
