# generated using pymatgen
data_Al(PO3)2
_symmetry_space_group_name_H-M   'P 1'
_cell_length_a   4.68418980
_cell_length_b   7.18556738
_cell_length_c   7.39006042
_cell_angle_alpha   74.69898224
_cell_angle_beta   71.52293396
_cell_angle_gamma   70.97720337
_symmetry_Int_Tables_number   1
_chemical_formula_structural   Al(PO3)2
_chemical_formula_sum   'Al2 P4 O12'
_cell_volume   219.42660259
_cell_formula_units_Z   2
loop_
 _symmetry_equiv_pos_site_id
 _symmetry_equiv_pos_as_xyz
  1  'x, y, z'
loop_
 _atom_site_type_symbol
 _atom_site_label
 _atom_site_symmetry_multiplicity
 _atom_site_fract_x
 _atom_site_fract_y
 _atom_site_fract_z
 _atom_site_occupancy
  Al  Al0  1  0.98972210  0.75860200  0.25063292  1
  Al  Al1  1  0.60683904  0.16339700  0.14967998  1
  P  P2  1  0.08008404  0.66339700  0.64967995  1
  P  P3  1  0.92646407  0.32567100  0.35076696  1
  P  P4  1  0.39709807  0.82567100  0.85076693  1
  P  P5  1  0.00104302  0.25860200  0.75063298  1
  O  O6  1  0.69139209  0.93419500  0.22161792  1
  O  O7  1  0.27696706  0.73506100  0.06386594  1
  O  O8  1  0.09068805  0.75669500  0.43467394  1
  O  O9  1  0.15279503  0.43419500  0.72161796  1
  O  O10  1  0.92410606  0.23506100  0.56386596  1
  O  O11  1  0.71794305  0.25669500  0.93467396  1
  O  O12  1  0.86131008  0.55880400  0.28750794  1
  O  O13  1  0.22936103  0.23495700  0.19531598  1
  O  O14  1  0.34036606  0.73495700  0.69531594  1
  O  O15  1  0.65641805  0.28262800  0.29593897  1
  O  O16  1  0.76501509  0.78262800  0.79593893  1
  O  O17  1  0.29237802  0.05880400  0.78750799  1
