# generated using pymatgen
data_LaCoSbPd2
_symmetry_space_group_name_H-M   'P 1'
_cell_length_a   4.25052023
_cell_length_b   4.87702703
_cell_length_c   5.89567995
_cell_angle_alpha   106.56601715
_cell_angle_beta   111.12952423
_cell_angle_gamma   90.00000000
_symmetry_Int_Tables_number   1
_chemical_formula_structural   LaCoSbPd2
_chemical_formula_sum   'La1 Co1 Sb1 Pd2'
_cell_volume   108.54362063
_cell_formula_units_Z   1
loop_
 _symmetry_equiv_pos_site_id
 _symmetry_equiv_pos_as_xyz
  1  'x, y, z'
loop_
 _atom_site_type_symbol
 _atom_site_label
 _atom_site_symmetry_multiplicity
 _atom_site_fract_x
 _atom_site_fract_y
 _atom_site_fract_z
 _atom_site_occupancy
  La  La0  1  0.00000000  0.00000000  0.00000000  1
  Co  Co1  1  0.26325497  0.86672597  0.52650996  1
  Sb  Sb2  1  0.73674496  0.13327400  0.47348999  1
  Pd  Pd3  1  0.64301495  0.56817598  0.28602997  1
  Pd  Pd4  1  0.35698497  0.43182399  0.71396998  1
