# generated using pymatgen
data_Ho4CoNi(RuO6)2
_symmetry_space_group_name_H-M   'P 1'
_cell_length_a   5.27467299
_cell_length_b   5.69122887
_cell_length_c   7.65846395
_cell_angle_alpha   90.00000000
_cell_angle_beta   89.52001190
_cell_angle_gamma   90.00000000
_symmetry_Int_Tables_number   1
_chemical_formula_structural   Ho4CoNi(RuO6)2
_chemical_formula_sum   'Ho4 Co1 Ni1 Ru2 O12'
_cell_volume   229.89420467
_cell_formula_units_Z   1
loop_
 _symmetry_equiv_pos_site_id
 _symmetry_equiv_pos_as_xyz
  1  'x, y, z'
loop_
 _atom_site_type_symbol
 _atom_site_label
 _atom_site_symmetry_multiplicity
 _atom_site_fract_x
 _atom_site_fract_y
 _atom_site_fract_z
 _atom_site_occupancy
  Ho  Ho0  1  0.47464600  0.07705500  0.24663199  1
  Ho  Ho1  1  0.52535400  0.92294502  0.75336798  1
  Ho  Ho2  1  0.02535400  0.57705501  0.25336799  1
  Ho  Ho3  1  0.97464600  0.42294501  0.74663197  1
  Co  Co4  1  0.50000000  0.50000001  -0.00000000  1
  Ni  Ni5  1  0.00000000  0.00000000  0.49999999  1
  Ru  Ru6  1  0.50000000  0.50000001  0.49999998  1
  Ru  Ru7  1  0.00000000  0.00000000  0.00000000  1
  O  O8  1  0.62880700  0.45035401  0.25319999  1
  O  O9  1  0.37119300  0.54964601  0.74679998  1
  O  O10  1  0.87119300  0.95035402  0.24679999  1
  O  O11  1  0.12880700  0.04964600  0.75319998  1
  O  O12  1  0.31811600  0.80204402  0.43167199  1
  O  O13  1  0.68188400  0.19795600  0.56832798  1
  O  O14  1  0.18188400  0.30204401  0.06832800  1
  O  O15  1  0.81811600  0.69795602  0.93167197  1
  O  O16  1  0.18814500  0.31195501  0.44127199  1
  O  O17  1  0.81185500  0.68804502  0.55872798  1
  O  O18  1  0.31185500  0.81195502  0.05872800  1
  O  O19  1  0.68814500  0.18804500  0.94127197  1
