# generated using pymatgen
data_Ni13Rh7
_symmetry_space_group_name_H-M   'P 1'
_cell_length_a   4.06621790
_cell_length_b   4.06621790
_cell_length_c   16.60038376
_cell_angle_alpha   82.96511841
_cell_angle_beta   82.96511841
_cell_angle_gamma   60.00000381
_symmetry_Int_Tables_number   1
_chemical_formula_structural   Ni13Rh7
_chemical_formula_sum   'Ni13 Rh7'
_cell_volume   235.31151236
_cell_formula_units_Z   1
loop_
 _symmetry_equiv_pos_site_id
 _symmetry_equiv_pos_as_xyz
  1  'x, y, z'
loop_
 _atom_site_type_symbol
 _atom_site_label
 _atom_site_symmetry_multiplicity
 _atom_site_fract_x
 _atom_site_fract_y
 _atom_site_fract_z
 _atom_site_occupancy
  Ni  Ni0  1  0.59982301  0.59982299  0.20053101  1
  Ni  Ni1  1  0.19994800  0.19994800  0.40015602  1
  Ni  Ni2  1  0.80005202  0.80005198  0.59984403  1
  Ni  Ni3  1  0.40017701  0.40017699  0.79946903  1
  Ni  Ni4  1  0.00000000  0.00000000  0.00000000  1
  Ni  Ni5  1  0.05009500  0.05009500  0.84971503  1
  Ni  Ni6  1  0.85005302  0.85005298  0.44984102  1
  Ni  Ni7  1  0.45006401  0.45006399  0.64980803  1
  Ni  Ni8  1  0.65029701  0.65029698  0.04910900  1
  Ni  Ni9  1  0.25002001  0.25001999  0.24994001  1
  Rh  Rh10  1  0.34970301  0.34970299  0.95089104  1
  Rh  Rh11  1  0.14994700  0.14994700  0.55015902  1
  Rh  Rh12  1  0.74998002  0.74997998  0.75006003  1
  Ni  Ni13  1  0.94990502  0.94990498  0.15028501  1
  Ni  Ni14  1  0.54993601  0.54993599  0.35019202  1
  Rh  Rh15  1  0.69975302  0.69975298  0.90074104  1
  Ni  Ni16  1  0.50000001  0.49999999  0.50000002  1
  Rh  Rh17  1  0.10008300  0.10008300  0.69975103  1
  Rh  Rh18  1  0.30024701  0.30024699  0.09925900  1
  Rh  Rh19  1  0.89991702  0.89991698  0.30024901  1
