# generated using pymatgen
data_DyGe3
_symmetry_space_group_name_H-M   'P 1'
_cell_length_a   4.30903196
_cell_length_b   5.86852598
_cell_length_c   14.05542564
_cell_angle_alpha   90.00000000
_cell_angle_beta   90.00000000
_cell_angle_gamma   111.53876495
_symmetry_Int_Tables_number   1
_chemical_formula_structural   DyGe3
_chemical_formula_sum   'Dy4 Ge12'
_cell_volume   330.60909175
_cell_formula_units_Z   4
loop_
 _symmetry_equiv_pos_site_id
 _symmetry_equiv_pos_as_xyz
  1  'x, y, z'
loop_
 _atom_site_type_symbol
 _atom_site_label
 _atom_site_symmetry_multiplicity
 _atom_site_fract_x
 _atom_site_fract_y
 _atom_site_fract_z
 _atom_site_occupancy
  Dy  Dy0  1  0.07855699  0.15711399  0.61348902  1
  Dy  Dy1  1  0.92144293  0.84288597  0.38651101  1
  Dy  Dy2  1  0.07855699  0.15711399  0.88651102  1
  Dy  Dy3  1  0.92144293  0.84288597  0.11348900  1
  Ge  Ge4  1  0.35324094  0.70648197  0.75000002  1
  Ge  Ge5  1  0.64675898  0.29351799  0.25000001  1
  Ge  Ge6  1  0.38178894  0.76357797  0.54152901  1
  Ge  Ge7  1  0.61821098  0.23642199  0.45847101  1
  Ge  Ge8  1  0.38178894  0.76357797  0.95847102  1
  Ge  Ge9  1  0.61821098  0.23642199  0.04152900  1
  Ge  Ge10  1  0.66686498  0.33372999  0.75000002  1
  Ge  Ge11  1  0.33313494  0.66626997  0.25000001  1
  Ge  Ge12  1  0.21383596  0.42767198  0.08064700  1
  Ge  Ge13  1  0.78616396  0.57232798  0.91935302  1
  Ge  Ge14  1  0.21383596  0.42767198  0.41935301  1
  Ge  Ge15  1  0.78616396  0.57232798  0.58064701  1
