# generated using pymatgen
data_Tl2Ag9Sb7
_symmetry_space_group_name_H-M   'P 1'
_cell_length_a   5.70269394
_cell_length_b   5.70269394
_cell_length_c   14.07125378
_cell_angle_alpha   90.00000000
_cell_angle_beta   90.00000000
_cell_angle_gamma   120.00000000
_symmetry_Int_Tables_number   1
_chemical_formula_structural   Tl2Ag9Sb7
_chemical_formula_sum   'Tl2 Ag9 Sb7'
_cell_volume   396.29952795
_cell_formula_units_Z   1
loop_
 _symmetry_equiv_pos_site_id
 _symmetry_equiv_pos_as_xyz
  1  'x, y, z'
loop_
 _atom_site_type_symbol
 _atom_site_label
 _atom_site_symmetry_multiplicity
 _atom_site_fract_x
 _atom_site_fract_y
 _atom_site_fract_z
 _atom_site_occupancy
  Tl  Tl0  1  0.00000000  0.00000000  0.41624401  1
  Tl  Tl1  1  0.33333335  0.66666669  0.08650400  1
  Ag  Ag2  1  0.33333335  0.66666669  0.33431101  1
  Ag  Ag3  1  0.66666668  0.33333335  0.99377502  1
  Ag  Ag4  1  0.00000000  0.00000000  0.67128601  1
  Ag  Ag5  1  0.66666668  0.33333335  0.74827501  1
  Sb  Sb6  1  0.16726701  0.33453401  0.87692401  1
  Ag  Ag7  1  0.49998302  0.99996604  0.54086401  1
  Ag  Ag8  1  0.83343402  0.66686802  0.20674100  1
  Sb  Sb9  1  0.16726701  0.83273403  0.87692401  1
  Ag  Ag10  1  0.49998301  0.50001602  0.54086401  1
  Sb  Sb11  1  0.83343401  0.16656701  0.20674100  1
  Sb  Sb12  1  0.33333335  0.66666669  0.70804201  1
  Ag  Ag13  1  0.66666668  0.33333335  0.37558301  1
  Sb  Sb14  1  0.00000000  0.00000000  0.04239200  1
  Sb  Sb15  1  0.66546702  0.83273403  0.87692401  1
  Ag  Ag16  1  0.00003301  0.50001602  0.54086401  1
  Sb  Sb17  1  0.33313301  0.16656701  0.20674100  1
