# generated using pymatgen
data_MgScNi7
_symmetry_space_group_name_H-M   'P 1'
_cell_length_a   4.69122791
_cell_length_b   4.73733139
_cell_length_c   6.28949022
_cell_angle_alpha   82.12991333
_cell_angle_beta   73.94582367
_cell_angle_gamma   60.32141113
_symmetry_Int_Tables_number   1
_chemical_formula_structural   MgScNi7
_chemical_formula_sum   'Mg1 Sc1 Ni7'
_cell_volume   116.70448118
_cell_formula_units_Z   1
loop_
 _symmetry_equiv_pos_site_id
 _symmetry_equiv_pos_as_xyz
  1  'x, y, z'
loop_
 _atom_site_type_symbol
 _atom_site_label
 _atom_site_symmetry_multiplicity
 _atom_site_fract_x
 _atom_site_fract_y
 _atom_site_fract_z
 _atom_site_occupancy
  Sc  Sc0  1  0.39291101  0.00000000  0.77170696  1
  Mg  Mg1  1  0.60708905  0.99999996  0.22829296  1
  Ni  Ni2  1  0.00000000  0.00000000  0.49999998  1
  Ni  Ni3  1  0.03937502  0.66827997  0.84359097  1
  Ni  Ni4  1  0.29234503  0.66827997  0.15640898  1
  Ni  Ni5  1  0.96062504  0.33171999  0.15640896  1
  Ni  Ni6  1  0.70765503  0.33171999  0.84359094  1
  Ni  Ni7  1  0.00000001  0.49999998  0.49999998  1
  Ni  Ni8  1  0.50000003  0.49999998  0.49999996  1
