# generated using pymatgen
data_SrSbO3
_symmetry_space_group_name_H-M   'P 1'
_cell_length_a   5.59490776
_cell_length_b   5.59490776
_cell_length_c   5.60154486
_cell_angle_alpha   90.18833923
_cell_angle_beta   119.75427246
_cell_angle_gamma   119.98935699
_symmetry_Int_Tables_number   1
_chemical_formula_structural   SrSbO3
_chemical_formula_sum   'Sr2 Sb2 O6'
_cell_volume   124.26318455
_cell_formula_units_Z   2
loop_
 _symmetry_equiv_pos_site_id
 _symmetry_equiv_pos_as_xyz
  1  'x, y, z'
loop_
 _atom_site_type_symbol
 _atom_site_label
 _atom_site_symmetry_multiplicity
 _atom_site_fract_x
 _atom_site_fract_y
 _atom_site_fract_z
 _atom_site_occupancy
  Sr  Sr0  1  0.50799712  0.75174505  0.25974210  1
  Sr  Sr1  1  0.48892005  0.25096302  0.73988304  1
  Sb  Sb2  1  0.99821317  0.99923307  0.99744615  1
  Sb  Sb3  1  0.99988910  0.50090603  0.50079511  1
  O  O4  1  0.00236803  0.21630201  0.69865201  1
  O  O5  1  0.51679606  0.29535302  0.30541206  1
  O  O6  1  0.01005911  0.78861605  0.30541207  1
  O  O7  1  0.48235011  0.69628405  0.69865209  1
  O  O8  1  0.07651311  0.73980405  0.81631706  1
  O  O9  1  0.91689406  0.26079502  0.17768908  1
