# generated using pymatgen
data_BaSr(BiO3)2
_symmetry_space_group_name_H-M   'P 1'
_cell_length_a   6.13824654
_cell_length_b   6.13824654
_cell_length_c   6.20465994
_cell_angle_alpha   90.27225494
_cell_angle_beta   119.47113037
_cell_angle_gamma   119.86042023
_symmetry_Int_Tables_number   1
_chemical_formula_structural   BaSr(BiO3)2
_chemical_formula_sum   'Ba1 Sr1 Bi2 O6'
_cell_volume   166.57631652
_cell_formula_units_Z   1
loop_
 _symmetry_equiv_pos_site_id
 _symmetry_equiv_pos_as_xyz
  1  'x, y, z'
loop_
 _atom_site_type_symbol
 _atom_site_label
 _atom_site_symmetry_multiplicity
 _atom_site_fract_x
 _atom_site_fract_y
 _atom_site_fract_z
 _atom_site_occupancy
  Sr  Sr0  1  0.00772498  0.75388798  0.76161302  1
  Ba  Ba1  1  0.99227494  0.24611199  0.23838694  1
  Bi  Bi2  1  0.49999997  0.00000000  0.49999997  1
  Bi  Bi3  1  0.49999996  0.49999998  -0.00000003  1
  O  O4  1  0.43105797  0.27210799  0.70316598  1
  O  O5  1  0.56894195  0.72789198  0.29683397  1
  O  O6  1  0.50563696  0.77102898  0.81160298  1
  O  O7  1  0.95942593  0.69403398  0.18839694  1
  O  O8  1  0.49436297  0.22897099  0.18839697  1
  O  O9  1  0.04057399  0.30596599  0.81160301  1
