# generated using pymatgen
data_SrBiTeSeO4
_symmetry_space_group_name_H-M   'P 1'
_cell_length_a   4.78132820
_cell_length_b   5.52875423
_cell_length_c   6.03048229
_cell_angle_alpha   117.28395081
_cell_angle_beta   113.35518646
_cell_angle_gamma   90.00000000
_symmetry_Int_Tables_number   1
_chemical_formula_structural   SrBiTeSeO4
_chemical_formula_sum   'Sr1 Bi1 Te1 Se1 O4'
_cell_volume   126.80342310
_cell_formula_units_Z   1
loop_
 _symmetry_equiv_pos_site_id
 _symmetry_equiv_pos_as_xyz
  1  'x, y, z'
loop_
 _atom_site_type_symbol
 _atom_site_label
 _atom_site_symmetry_multiplicity
 _atom_site_fract_x
 _atom_site_fract_y
 _atom_site_fract_z
 _atom_site_occupancy
  Sr  Sr0  1  0.49999997  0.00000000  -0.00000001  1
  Bi  Bi1  1  -0.00000001  0.49999997  -0.00000001  1
  Te  Te2  1  0.27183598  0.24999999  0.50000001  1
  Se  Se3  1  0.72816395  0.74999996  0.49999999  1
  O  O4  1  0.84979095  0.34979098  0.19958198  1
  O  O5  1  0.15020899  0.15020899  0.80041802  1
  O  O6  1  0.84979094  0.84979095  0.19958197  1
  O  O7  1  0.15020898  0.65020897  0.80041801  1
