# generated using pymatgen
data_DyRe2
_symmetry_space_group_name_H-M   'P 1'
_cell_length_a   5.42361593
_cell_length_b   5.42361593
_cell_length_c   8.80031204
_cell_angle_alpha   90.00000000
_cell_angle_beta   90.00000000
_cell_angle_gamma   120.00000000
_symmetry_Int_Tables_number   1
_chemical_formula_structural   DyRe2
_chemical_formula_sum   'Dy4 Re8'
_cell_volume   224.18500416
_cell_formula_units_Z   4
loop_
 _symmetry_equiv_pos_site_id
 _symmetry_equiv_pos_as_xyz
  1  'x, y, z'
loop_
 _atom_site_type_symbol
 _atom_site_label
 _atom_site_symmetry_multiplicity
 _atom_site_fract_x
 _atom_site_fract_y
 _atom_site_fract_z
 _atom_site_occupancy
  Dy  Dy0  1  0.66666667  0.33333332  0.56291700  1
  Dy  Dy1  1  0.33333332  0.66666664  0.43708300  1
  Dy  Dy2  1  0.33333332  0.66666664  0.06291700  1
  Dy  Dy3  1  0.66666667  0.33333332  0.93708300  1
  Re  Re4  1  0.00000000  0.00000000  0.50000000  1
  Re  Re5  1  0.00000000  0.00000000  0.00000000  1
  Re  Re6  1  0.17183499  0.34366999  0.75000000  1
  Re  Re7  1  0.17183498  0.82816397  0.75000000  1
  Re  Re8  1  0.65632899  0.82816397  0.75000000  1
  Re  Re9  1  0.82816499  0.65632998  0.25000000  1
  Re  Re10  1  0.82816501  0.17183599  0.25000000  1
  Re  Re11  1  0.34367100  0.17183599  0.25000000  1
