# generated using pymatgen
data_V5Si6Ir
_symmetry_space_group_name_H-M   'P 1'
_cell_length_a   3.90790296
_cell_length_b   6.15626907
_cell_length_c   7.30143499
_cell_angle_alpha   90.00000000
_cell_angle_beta   90.00000000
_cell_angle_gamma   90.00000000
_symmetry_Int_Tables_number   1
_chemical_formula_structural   V5Si6Ir
_chemical_formula_sum   'V5 Si6 Ir1'
_cell_volume   175.65866863
_cell_formula_units_Z   1
loop_
 _symmetry_equiv_pos_site_id
 _symmetry_equiv_pos_as_xyz
  1  'x, y, z'
loop_
 _atom_site_type_symbol
 _atom_site_label
 _atom_site_symmetry_multiplicity
 _atom_site_fract_x
 _atom_site_fract_y
 _atom_site_fract_z
 _atom_site_occupancy
  V  V0  1  0.25000000  0.53050099  0.32159400  1
  V  V1  1  0.25000000  0.03050100  0.17840600  1
  V  V2  1  0.75000001  0.46949899  0.67840600  1
  V  V3  1  0.75000001  0.96949899  0.82159400  1
  V  V4  1  0.25000000  0.24223100  0.88140300  1
  Si  Si5  1  0.25000000  0.74223099  0.61859700  1
  Si  Si6  1  0.75000001  0.75776899  0.11859700  1
  Si  Si7  1  0.75000001  0.25776900  0.38140300  1
  Si  Si8  1  0.25000000  0.64551199  0.93668600  1
  Si  Si9  1  0.25000000  0.14551200  0.56331400  1
  Si  Si10  1  0.75000001  0.35448800  0.06331400  1
  Ir  Ir11  1  0.75000001  0.85448799  0.43668600  1
