# generated using pymatgen
data_CeTe
_symmetry_space_group_name_H-M   'P 1'
_cell_length_a   4.44135046
_cell_length_b   4.44135046
_cell_length_c   7.71868658
_cell_angle_alpha   73.27962494
_cell_angle_beta   73.27962494
_cell_angle_gamma   59.99999237
_symmetry_Int_Tables_number   1
_chemical_formula_structural   CeTe
_chemical_formula_sum   'Ce2 Te2'
_cell_volume   124.36856325
_cell_formula_units_Z   2
loop_
 _symmetry_equiv_pos_site_id
 _symmetry_equiv_pos_as_xyz
  1  'x, y, z'
loop_
 _atom_site_type_symbol
 _atom_site_label
 _atom_site_symmetry_multiplicity
 _atom_site_fract_x
 _atom_site_fract_y
 _atom_site_fract_z
 _atom_site_occupancy
  Ce  Ce0  1  0.49999999  0.50000000  0.49999999  1
  Ce  Ce1  1  0.00000000  0.00000000  0.00000000  1
  Te  Te2  1  0.24973700  0.24973700  0.25078899  1
  Te  Te3  1  0.75026299  0.75026301  0.74921098  1
