# generated using pymatgen
data_YMg(MnGa)2
_symmetry_space_group_name_H-M   'P 1'
_cell_length_a   5.40989590
_cell_length_b   5.40989590
_cell_length_c   5.40989590
_cell_angle_alpha   88.72140503
_cell_angle_beta   60.43506241
_cell_angle_gamma   118.96508026
_symmetry_Int_Tables_number   1
_chemical_formula_structural   YMg(MnGa)2
_chemical_formula_sum   'Y1 Mg1 Mn2 Ga2'
_cell_volume   113.16662571
_cell_formula_units_Z   1
loop_
 _symmetry_equiv_pos_site_id
 _symmetry_equiv_pos_as_xyz
  1  'x, y, z'
loop_
 _atom_site_type_symbol
 _atom_site_label
 _atom_site_symmetry_multiplicity
 _atom_site_fract_x
 _atom_site_fract_y
 _atom_site_fract_z
 _atom_site_occupancy
  Y  Y0  1  0.24999999  0.36968800  0.88031199  1
  Mg  Mg1  1  0.74999999  0.63031200  0.11968800  1
  Mn  Mn2  1  0.00000000  0.00000000  0.50000000  1
  Mn  Mn3  1  0.49999999  0.00000000  1.00000002  1
  Ga  Ga4  1  0.49999999  0.00000000  0.50000002  1
  Ga  Ga5  1  0.99999998  0.50000000  0.50000001  1
