# generated using pymatgen
data_K2Hg3Pb
_symmetry_space_group_name_H-M   'P 1'
_cell_length_a   4.30420780
_cell_length_b   7.18469381
_cell_length_c   7.50476217
_cell_angle_alpha   93.41331482
_cell_angle_beta   106.66439056
_cell_angle_gamma   90.00000000
_symmetry_Int_Tables_number   1
_chemical_formula_structural   K2Hg3Pb
_chemical_formula_sum   'K2 Hg3 Pb1'
_cell_volume   221.90342539
_cell_formula_units_Z   1
loop_
 _symmetry_equiv_pos_site_id
 _symmetry_equiv_pos_as_xyz
  1  'x, y, z'
loop_
 _atom_site_type_symbol
 _atom_site_label
 _atom_site_symmetry_multiplicity
 _atom_site_fract_x
 _atom_site_fract_y
 _atom_site_fract_z
 _atom_site_occupancy
  K  K0  1  0.36573803  0.37038999  0.73147601  1
  K  K1  1  0.63426205  0.62960999  0.26852403  1
  Hg  Hg2  1  0.68545605  0.12812800  0.37091202  1
  Hg  Hg3  1  0.31454404  0.87187198  0.62908802  1
  Hg  Hg4  1  0.94781707  0.81940298  0.89563404  1
  Pb  Pb5  1  0.05218301  0.18059700  0.10436600  1
