# generated using pymatgen
data_Li3TiO3
_symmetry_space_group_name_H-M   'P 1'
_cell_length_a   5.62925434
_cell_length_b   5.62925434
_cell_length_c   5.88613701
_cell_angle_alpha   61.43345261
_cell_angle_beta   61.43345261
_cell_angle_gamma   60.00000000
_symmetry_Int_Tables_number   1
_chemical_formula_structural   Li3TiO3
_chemical_formula_sum   'Li6 Ti2 O6'
_cell_volume   134.67735785
_cell_formula_units_Z   2
loop_
 _symmetry_equiv_pos_site_id
 _symmetry_equiv_pos_as_xyz
  1  'x, y, z'
loop_
 _atom_site_type_symbol
 _atom_site_label
 _atom_site_symmetry_multiplicity
 _atom_site_fract_x
 _atom_site_fract_y
 _atom_site_fract_z
 _atom_site_occupancy
  Li  Li0  1  0.65540602  0.65540597  0.03378194  1
  Li  Li1  1  0.12079804  0.72427597  0.65616396  1
  Li  Li2  1  0.72427601  0.49876198  0.65616395  1
  Li  Li3  1  0.49876199  0.12079799  0.65616398  1
  Li  Li4  1  0.93610899  0.23608599  0.34068496  1
  Li  Li5  1  0.23608602  0.48711998  0.34068497  1
  Ti  Ti6  1  0.48712004  0.93610896  0.34068494  1
  Ti  Ti7  1  0.00143300  0.00143300  0.99570101  1
  O  O8  1  0.79900898  0.07581500  0.75014697  1
  O  O9  1  0.23254604  0.88299396  0.23984195  1
  O  O10  1  0.88299401  0.64461797  0.23984194  1
  O  O11  1  0.37502903  0.79900897  0.75014695  1
  O  O12  1  0.07581502  0.37502898  0.75014698  1
  O  O13  1  0.64461800  0.23254599  0.23984197  1
