# generated using pymatgen
data_Na3LiZr2O8
_symmetry_space_group_name_H-M   'P 1'
_cell_length_a   6.51333714
_cell_length_b   6.51333714
_cell_length_c   6.51333714
_cell_angle_alpha   60.00000000
_cell_angle_beta   60.00000000
_cell_angle_gamma   60.00000000
_symmetry_Int_Tables_number   1
_chemical_formula_structural   Na3LiZr2O8
_chemical_formula_sum   'Na3 Li1 Zr2 O8'
_cell_volume   195.38700538
_cell_formula_units_Z   1
loop_
 _symmetry_equiv_pos_site_id
 _symmetry_equiv_pos_as_xyz
  1  'x, y, z'
loop_
 _atom_site_type_symbol
 _atom_site_label
 _atom_site_symmetry_multiplicity
 _atom_site_fract_x
 _atom_site_fract_y
 _atom_site_fract_z
 _atom_site_occupancy
  Li  Li0  1  0.37500001  0.87500003  0.37500001  1
  Na  Na1  1  0.87500003  0.37500001  0.37500001  1
  Na  Na2  1  0.75000002  0.75000002  0.75000002  1
  Na  Na3  1  0.37500001  0.37500001  0.37500001  1
  Zr  Zr4  1  0.00000000  0.00000000  0.00000000  1
  Zr  Zr5  1  0.37500001  0.37500001  0.87500003  1
  O  O6  1  0.13275900  0.60172102  0.13276000  1
  O  O7  1  0.13275900  0.13276000  0.13276000  1
  O  O8  1  0.60172002  0.13276000  0.13276000  1
  O  O9  1  0.13275900  0.13276000  0.60172102  1
  O  O10  1  0.14828000  0.61724002  0.61724002  1
  O  O11  1  0.61724102  0.61724002  0.14827900  1
  O  O12  1  0.61724102  0.14827900  0.61724002  1
  O  O13  1  0.61724102  0.61724002  0.61724002  1
