# generated using pymatgen
data_YAlSi2
_symmetry_space_group_name_H-M   'P 1'
_cell_length_a   4.01588488
_cell_length_b   5.00968885
_cell_length_c   7.13538408
_cell_angle_alpha   90.00000000
_cell_angle_beta   90.00000000
_cell_angle_gamma   90.00000000
_symmetry_Int_Tables_number   1
_chemical_formula_structural   YAlSi2
_chemical_formula_sum   'Y2 Al2 Si4'
_cell_volume   143.55203809
_cell_formula_units_Z   2
loop_
 _symmetry_equiv_pos_site_id
 _symmetry_equiv_pos_as_xyz
  1  'x, y, z'
loop_
 _atom_site_type_symbol
 _atom_site_label
 _atom_site_symmetry_multiplicity
 _atom_site_fract_x
 _atom_site_fract_y
 _atom_site_fract_z
 _atom_site_occupancy
  Y  Y0  1  0.50000002  0.75000002  0.72043199  1
  Y  Y1  1  0.50000002  0.25000001  0.27956800  1
  Al  Al2  1  0.00000000  0.75000002  0.35184800  1
  Al  Al3  1  0.00000000  0.25000001  0.64815199  1
  Si  Si4  1  0.00000000  0.00000000  0.00000000  1
  Si  Si5  1  0.00000000  0.50000001  0.00000000  1
  Si  Si6  1  0.50000002  0.75000002  0.09124800  1
  Si  Si7  1  0.50000002  0.25000001  0.90875199  1
