# generated using pymatgen
data_Li2MnO6
_symmetry_space_group_name_H-M   'P 1'
_cell_length_a   4.72850418
_cell_length_b   5.70740080
_cell_length_c   7.90600348
_cell_angle_alpha   86.19956970
_cell_angle_beta   88.85620117
_cell_angle_gamma   88.68518829
_symmetry_Int_Tables_number   1
_chemical_formula_structural   Li2MnO6
_chemical_formula_sum   'Li4 Mn2 O12'
_cell_volume   212.80140459
_cell_formula_units_Z   2
loop_
 _symmetry_equiv_pos_site_id
 _symmetry_equiv_pos_as_xyz
  1  'x, y, z'
loop_
 _atom_site_type_symbol
 _atom_site_label
 _atom_site_symmetry_multiplicity
 _atom_site_fract_x
 _atom_site_fract_y
 _atom_site_fract_z
 _atom_site_occupancy
  Li  Li0  1  0.52325900  0.50796499  0.00143003  1
  Li  Li1  1  0.52136502  0.84154698  0.67064205  1
  Li  Li2  1  0.46409299  0.18360100  0.34581703  1
  Li  Li3  1  0.99439498  0.32336699  0.67444706  1
  Mn  Mn4  1  0.00614903  0.65428199  0.31083302  1
  Mn  Mn5  1  0.97674601  0.99074998  0.99357908  1
  O  O6  1  0.80393397  0.04221800  0.78065405  1
  O  O7  1  0.81051800  0.70830099  0.09388305  1
  O  O8  1  0.69438700  0.53866099  0.76952205  1
  O  O9  1  0.30150099  0.12296300  0.57467203  1
  O  O10  1  0.31319801  0.47680099  0.22492703  1
  O  O11  1  0.80817498  0.36414899  0.43362705  1
  O  O12  1  0.69424298  0.19870100  0.12007103  1
  O  O13  1  0.70516601  0.86396698  0.42136506  1
  O  O14  1  0.30027202  0.79574498  0.89626105  1
  O  O15  1  0.19199402  0.62531799  0.55735403  1
  O  O16  1  0.18898404  0.97511098  0.21298003  1
  O  O17  1  0.20162001  0.28655199  0.91793703  1
