# generated using pymatgen
data_SrLaTi2O6
_symmetry_space_group_name_H-M   'P 1'
_cell_length_a   5.59973907
_cell_length_b   5.72728777
_cell_length_c   7.99066067
_cell_angle_alpha   89.77468109
_cell_angle_beta   90.00000000
_cell_angle_gamma   90.00000000
_symmetry_Int_Tables_number   1
_chemical_formula_structural   SrLaTi2O6
_chemical_formula_sum   'Sr2 La2 Ti4 O12'
_cell_volume   256.26903060
_cell_formula_units_Z   2
loop_
 _symmetry_equiv_pos_site_id
 _symmetry_equiv_pos_as_xyz
  1  'x, y, z'
loop_
 _atom_site_type_symbol
 _atom_site_label
 _atom_site_symmetry_multiplicity
 _atom_site_fract_x
 _atom_site_fract_y
 _atom_site_fract_z
 _atom_site_occupancy
  Sr  Sr0  1  0.00000000  0.00037000  0.75515001  1
  Sr  Sr1  1  0.49999999  0.50376702  0.24629502  1
  La  La2  1  0.00000000  0.99169804  0.24448404  1
  La  La3  1  0.49999999  0.50375702  0.76472703  1
  Ti  Ti4  1  0.00000000  0.49861602  0.00018302  1
  Ti  Ti5  1  0.49999999  0.00130800  0.50012601  1
  Ti  Ti6  1  0.00000000  0.50043102  0.49916902  1
  Ti  Ti7  1  0.49999999  0.00134500  0.00255500  1
  O  O8  1  -0.00000000  0.43898102  0.25118502  1
  O  O9  1  0.49999999  0.92762104  0.74681304  1
  O  O10  1  -0.00000000  0.55737302  0.74919803  1
  O  O11  1  0.49999999  0.05992400  0.25388101  1
  O  O12  1  0.25111000  0.25640601  0.53813802  1
  O  O13  1  0.74689899  0.73912503  0.02321902  1
  O  O14  1  0.74888999  0.25640601  0.53813802  1
  O  O15  1  0.25310100  0.73912503  0.02321902  1
  O  O16  1  0.75377999  0.74908703  0.47139003  1
  O  O17  1  0.25606600  0.26278701  0.96037002  1
  O  O18  1  0.24622000  0.74908703  0.47139003  1
  O  O19  1  0.74393399  0.26278701  0.96037002  1
