# generated using pymatgen
data_Dy5Ag3
_symmetry_space_group_name_H-M   'P 1'
_cell_length_a   7.90918589
_cell_length_b   7.90918589
_cell_length_c   9.23409748
_cell_angle_alpha   115.35717773
_cell_angle_beta   115.35717773
_cell_angle_gamma   90.00000000
_symmetry_Int_Tables_number   1
_chemical_formula_structural   Dy5Ag3
_chemical_formula_sum   'Dy10 Ag6'
_cell_volume   459.64654907
_cell_formula_units_Z   2
loop_
 _symmetry_equiv_pos_site_id
 _symmetry_equiv_pos_as_xyz
  1  'x, y, z'
loop_
 _atom_site_type_symbol
 _atom_site_label
 _atom_site_symmetry_multiplicity
 _atom_site_fract_x
 _atom_site_fract_y
 _atom_site_fract_z
 _atom_site_occupancy
  Dy  Dy0  1  0.52848806  0.69188403  0.72037206  1
  Dy  Dy1  1  0.19188401  0.02848800  0.72037201  1
  Dy  Dy2  1  0.02848803  0.52848803  0.72037203  1
  Dy  Dy3  1  0.69188403  0.19188401  0.72037204  1
  Dy  Dy4  1  0.47151203  0.30811601  0.27962804  1
  Dy  Dy5  1  0.80811608  0.97151205  0.27962810  1
  Dy  Dy6  1  0.97151206  0.47151202  0.27962807  1
  Dy  Dy7  1  0.30811605  0.80811604  0.27962806  1
  Dy  Dy8  1  0.50000004  0.50000002  0.00000005  1
  Dy  Dy9  1  0.00000000  0.00000000  0.00000000  1
  Ag  Ag10  1  0.25000002  0.25000001  0.50000002  1
  Ag  Ag11  1  0.75000007  0.75000004  0.50000008  1
  Ag  Ag12  1  0.61415903  0.11415901  0.00000003  1
  Ag  Ag13  1  0.38584106  0.88584104  0.00000007  1
  Ag  Ag14  1  0.11415902  0.38584102  1.00000002  1
  Ag  Ag15  1  0.88584106  0.61415903  0.00000008  1
