# generated using pymatgen
data_LiCr(CO3)2
_symmetry_space_group_name_H-M   'P 1'
_cell_length_a   4.99957085
_cell_length_b   4.99957085
_cell_length_c   6.39088535
_cell_angle_alpha   66.97401428
_cell_angle_beta   66.97401428
_cell_angle_gamma   59.99999237
_symmetry_Int_Tables_number   1
_chemical_formula_structural   LiCr(CO3)2
_chemical_formula_sum   'Li1 Cr1 C2 O6'
_cell_volume   123.42826775
_cell_formula_units_Z   1
loop_
 _symmetry_equiv_pos_site_id
 _symmetry_equiv_pos_as_xyz
  1  'x, y, z'
loop_
 _atom_site_type_symbol
 _atom_site_label
 _atom_site_symmetry_multiplicity
 _atom_site_fract_x
 _atom_site_fract_y
 _atom_site_fract_z
 _atom_site_occupancy
  Li  Li0  1  0.00000000  0.00000000  0.00000000  1
  Cr  Cr1  1  0.50000000  0.49999998  0.50000000  1
  C  C2  1  0.76501899  0.76501896  0.70494300  1
  C  C3  1  0.23498100  0.23498099  0.29505700  1
  O  O4  1  0.71805299  0.50859298  0.71562001  1
  O  O5  1  0.05773402  0.71805297  0.71562001  1
  O  O6  1  0.49140701  0.94226596  0.28437999  1
  O  O7  1  0.28194700  0.49140698  0.28438000  1
  O  O8  1  0.94226597  0.28194699  0.28438000  1
  O  O9  1  0.50859298  0.05773400  0.71562001  1
