# generated using pymatgen
data_BiSb(PbO3)2
_symmetry_space_group_name_H-M   'P 1'
_cell_length_a   6.14410162
_cell_length_b   6.14410162
_cell_length_c   6.24982643
_cell_angle_alpha   60.55802917
_cell_angle_beta   60.55802917
_cell_angle_gamma   60.00000381
_symmetry_Int_Tables_number   1
_chemical_formula_structural   BiSb(PbO3)2
_chemical_formula_sum   'Bi1 Sb1 Pb2 O6'
_cell_volume   168.22162236
_cell_formula_units_Z   1
loop_
 _symmetry_equiv_pos_site_id
 _symmetry_equiv_pos_as_xyz
  1  'x, y, z'
loop_
 _atom_site_type_symbol
 _atom_site_label
 _atom_site_symmetry_multiplicity
 _atom_site_fract_x
 _atom_site_fract_y
 _atom_site_fract_z
 _atom_site_occupancy
  Sb  Sb0  1  0.49999997  0.50000000  0.50000001  1
  Bi  Bi1  1  0.78220596  0.78220599  0.65338201  1
  Pb  Pb2  1  0.21779399  0.21779400  0.34661801  1
  Pb  Pb3  1  0.00000000  0.00000000  0.00000000  1
  O  O4  1  0.36531797  0.79384599  0.71888502  1
  O  O5  1  0.79384598  0.12195100  0.71888501  1
  O  O6  1  0.12195098  0.36531800  0.71888502  1
  O  O7  1  0.63468198  0.20615400  0.28111500  1
  O  O8  1  0.87804896  0.63468200  0.28111501  1
  O  O9  1  0.20615397  0.87804899  0.28111501  1
