# generated using pymatgen
data_La
_symmetry_space_group_name_H-M   'P 1'
_cell_length_a   3.81574202
_cell_length_b   3.81574249
_cell_length_c   11.97962189
_cell_angle_alpha   90.00000000
_cell_angle_beta   90.00000000
_cell_angle_gamma   120.00000000
_symmetry_Int_Tables_number   1
_chemical_formula_structural   La
_chemical_formula_sum   La4
_cell_volume   151.05385211
_cell_formula_units_Z   4
loop_
 _symmetry_equiv_pos_site_id
 _symmetry_equiv_pos_as_xyz
  1  'x, y, z'
loop_
 _atom_site_type_symbol
 _atom_site_label
 _atom_site_symmetry_multiplicity
 _atom_site_fract_x
 _atom_site_fract_y
 _atom_site_fract_z
 _atom_site_occupancy
  La  La0  1  0.33333338  0.66666668  -0.00000000  1
  La  La1  1  0.00000000  0.00000000  0.72952701  1
  La  La2  1  0.00000000  0.00000000  0.27047300  1
  La  La3  1  0.33333338  0.66666668  0.50000000  1
