# generated using pymatgen
data_Cs2Se
_symmetry_space_group_name_H-M   'P 1'
_cell_length_a   6.76139021
_cell_length_b   7.12709713
_cell_length_c   7.12709713
_cell_angle_alpha   76.99699402
_cell_angle_beta   61.68336105
_cell_angle_gamma   61.68336105
_symmetry_Int_Tables_number   1
_chemical_formula_structural   Cs2Se
_chemical_formula_sum   'Cs4 Se2'
_cell_volume   266.17169485
_cell_formula_units_Z   2
loop_
 _symmetry_equiv_pos_site_id
 _symmetry_equiv_pos_as_xyz
  1  'x, y, z'
loop_
 _atom_site_type_symbol
 _atom_site_label
 _atom_site_symmetry_multiplicity
 _atom_site_fract_x
 _atom_site_fract_y
 _atom_site_fract_z
 _atom_site_occupancy
  Cs  Cs0  1  0.33465901  0.49999999  0.83068196  1
  Cs  Cs1  1  0.66534100  0.49999999  0.16931798  1
  Cs  Cs2  1  0.83465901  0.83068198  0.49999996  1
  Cs  Cs3  1  0.16534100  0.16931800  0.49999999  1
  Se  Se4  1  0.24999999  0.00000000  0.99999999  1
  Se  Se5  1  0.74999997  0.00000000  1.00000000  1
