# generated using pymatgen
data_ZrFe2
_symmetry_space_group_name_H-M   'P 1'
_cell_length_a   5.01279068
_cell_length_b   5.01279068
_cell_length_c   8.38835621
_cell_angle_alpha   90.00000000
_cell_angle_beta   90.00000000
_cell_angle_gamma   119.12596893
_symmetry_Int_Tables_number   1
_chemical_formula_structural   ZrFe2
_chemical_formula_sum   'Zr4 Fe8'
_cell_volume   184.13002843
_cell_formula_units_Z   4
loop_
 _symmetry_equiv_pos_site_id
 _symmetry_equiv_pos_as_xyz
  1  'x, y, z'
loop_
 _atom_site_type_symbol
 _atom_site_label
 _atom_site_symmetry_multiplicity
 _atom_site_fract_x
 _atom_site_fract_y
 _atom_site_fract_z
 _atom_site_occupancy
  Zr  Zr0  1  0.32595097  0.67404900  0.68140998  1
  Zr  Zr1  1  0.66225600  0.33774400  0.80634498  1
  Zr  Zr2  1  0.66225600  0.33774400  0.19365500  1
  Zr  Zr3  1  0.32595097  0.67404900  0.31858999  1
  Fe  Fe4  1  0.84490302  0.15509700  0.49999999  1
  Fe  Fe5  1  0.16743098  0.34086300  -0.00000000  1
  Fe  Fe6  1  0.65913697  0.83256900  -0.00000000  1
  Fe  Fe7  1  0.17353795  0.82646200  -0.00000000  1
  Fe  Fe8  1  0.99700603  0.00299400  0.74518298  1
  Fe  Fe9  1  0.99700603  0.00299400  0.25481699  1
  Fe  Fe10  1  0.83875599  0.65443200  0.49999999  1
  Fe  Fe11  1  0.34556800  0.16124400  0.49999999  1
