# generated using pymatgen
data_Li4Bi2O5
_symmetry_space_group_name_H-M   'P 1'
_cell_length_a   5.88119364
_cell_length_b   6.05511379
_cell_length_c   6.05511379
_cell_angle_alpha   73.87374115
_cell_angle_beta   84.21392822
_cell_angle_gamma   95.78607178
_symmetry_Int_Tables_number   1
_chemical_formula_structural   Li4Bi2O5
_chemical_formula_sum   'Li4 Bi2 O5'
_cell_volume   204.21002365
_cell_formula_units_Z   1
loop_
 _symmetry_equiv_pos_site_id
 _symmetry_equiv_pos_as_xyz
  1  'x, y, z'
loop_
 _atom_site_type_symbol
 _atom_site_label
 _atom_site_symmetry_multiplicity
 _atom_site_fract_x
 _atom_site_fract_y
 _atom_site_fract_z
 _atom_site_occupancy
  Li  Li0  1  0.00000000  0.30754800  0.30754800  1
  Li  Li1  1  0.00000001  0.69245199  0.69245199  1
  Li  Li2  1  0.39356801  0.25887400  0.74112599  1
  Li  Li3  1  0.60643203  0.74112599  0.25887399  1
  O  O4  1  0.18242701  0.41369100  0.94550499  1
  Bi  Bi5  1  0.18242701  0.05449500  0.58630899  1
  O  O6  1  0.74492902  0.45740100  0.54259899  1
  Bi  Bi7  1  0.50000001  0.00000000  -0.00000001  1
  O  O8  1  0.25507101  0.54259900  0.45740099  1
  O  O9  1  0.81757303  0.58630900  0.05449499  1
  O  O10  1  0.81757303  0.94550499  0.41369099  1
