# generated using pymatgen
data_Ce2Zr3Ti3O12
_symmetry_space_group_name_H-M   'P 1'
_cell_length_a   6.84340620
_cell_length_b   6.84340620
_cell_length_c   6.84340715
_cell_angle_alpha   107.75692749
_cell_angle_beta   107.75692749
_cell_angle_gamma   107.75692749
_symmetry_Int_Tables_number   1
_chemical_formula_structural   Ce2Zr3Ti3O12
_chemical_formula_sum   'Ce2 Zr3 Ti3 O12'
_cell_volume   261.20162681
_cell_formula_units_Z   1
loop_
 _symmetry_equiv_pos_site_id
 _symmetry_equiv_pos_as_xyz
  1  'x, y, z'
loop_
 _atom_site_type_symbol
 _atom_site_label
 _atom_site_symmetry_multiplicity
 _atom_site_fract_x
 _atom_site_fract_y
 _atom_site_fract_z
 _atom_site_occupancy
  Ce  Ce0  1  0.50431900  0.50431900  0.50431903  1
  Ce  Ce1  1  0.97474900  0.36115800  0.48922404  1
  Zr  Zr2  1  0.48922401  0.97474900  0.36115805  1
  Zr  Zr3  1  0.36115800  0.48922400  0.97474901  1
  Zr  Zr4  1  0.01807300  0.01807300  0.01807300  1
  Ti  Ti5  1  0.93170501  0.80439400  0.34558606  1
  Ti  Ti6  1  0.80439400  0.34558600  0.93170502  1
  Ti  Ti7  1  0.34558601  0.93170500  0.80439403  1
  O  O8  1  0.10561400  0.34523200  0.03776502  1
  O  O9  1  0.34523200  0.03776500  0.10561401  1
  O  O10  1  0.74889400  0.26873500  0.60915602  1
  O  O11  1  0.26873501  0.60915600  0.74889401  1
  O  O12  1  0.03776500  0.10561400  0.34523200  1
  O  O13  1  0.60915601  0.74889400  0.26873504  1
  O  O14  1  0.01433501  0.88244700  0.67856302  1
  O  O15  1  0.67856300  0.01433500  0.88244700  1
  O  O16  1  0.88244701  0.67856300  0.01433506  1
  O  O17  1  0.26398901  0.83574400  0.46420003  1
  O  O18  1  0.46420000  0.26398900  0.83574401  1
  O  O19  1  0.83574400  0.46420000  0.26398904  1
