# generated using pymatgen
data_Cu3SbS6
_symmetry_space_group_name_H-M   'P 1'
_cell_length_a   5.89394569
_cell_length_b   5.89394569
_cell_length_c   6.70653343
_cell_angle_alpha   63.93323135
_cell_angle_beta   63.93323135
_cell_angle_gamma   60.00000381
_symmetry_Int_Tables_number   1
_chemical_formula_structural   Cu3SbS6
_chemical_formula_sum   'Cu3 Sb1 S6'
_cell_volume   173.86153222
_cell_formula_units_Z   1
loop_
 _symmetry_equiv_pos_site_id
 _symmetry_equiv_pos_as_xyz
  1  'x, y, z'
loop_
 _atom_site_type_symbol
 _atom_site_label
 _atom_site_symmetry_multiplicity
 _atom_site_fract_x
 _atom_site_fract_y
 _atom_site_fract_z
 _atom_site_occupancy
  Sb  Sb0  1  0.00000000  0.00000000  0.00000000  1
  Cu  Cu1  1  0.33214302  0.33214300  0.00357099  1
  Cu  Cu2  1  0.66785704  0.66785700  0.99642895  1
  Cu  Cu3  1  0.50000003  0.50000000  0.49999997  1
  S  S4  1  0.58273205  0.91429901  0.25460696  1
  S  S5  1  0.24836203  0.58273200  0.25460698  1
  S  S6  1  0.91429903  0.24836200  0.25460698  1
  S  S7  1  0.08570103  0.75163801  0.74539296  1
  S  S8  1  0.75163803  0.41726800  0.74539296  1
  S  S9  1  0.41726801  0.08570100  0.74539297  1
