# generated using pymatgen
data_NbV2O3
_symmetry_space_group_name_H-M   'P 1'
_cell_length_a   3.32008696
_cell_length_b   4.67442465
_cell_length_c   5.56693745
_cell_angle_alpha   92.42101288
_cell_angle_beta   90.00000000
_cell_angle_gamma   90.00000000
_symmetry_Int_Tables_number   1
_chemical_formula_structural   NbV2O3
_chemical_formula_sum   'Nb1 V2 O3'
_cell_volume   86.31894844
_cell_formula_units_Z   1
loop_
 _symmetry_equiv_pos_site_id
 _symmetry_equiv_pos_as_xyz
  1  'x, y, z'
loop_
 _atom_site_type_symbol
 _atom_site_label
 _atom_site_symmetry_multiplicity
 _atom_site_fract_x
 _atom_site_fract_y
 _atom_site_fract_z
 _atom_site_occupancy
  V  V0  1  0.50000001  0.49188299  0.50724800  1
  Nb  Nb1  1  -0.00000000  0.01063300  0.99239702  1
  V  V2  1  0.50000001  0.69583498  0.13496699  1
  O  O3  1  0.50000001  0.30422499  0.86669301  1
  O  O4  1  0.00000000  0.20891500  0.36826300  1
  O  O5  1  0.00000000  0.78850798  0.63043100  1
