# generated using pymatgen
data_Sc3MnZn2S9
_symmetry_space_group_name_H-M   'P 1'
_cell_length_a   7.44655609
_cell_length_b   7.49668550
_cell_length_c   7.49668550
_cell_angle_alpha   60.03975677
_cell_angle_beta   60.22095490
_cell_angle_gamma   60.22095490
_symmetry_Int_Tables_number   1
_chemical_formula_structural   Sc3MnZn2S9
_chemical_formula_sum   'Sc3 Mn1 Zn2 S9'
_cell_volume   296.99737950
_cell_formula_units_Z   1
loop_
 _symmetry_equiv_pos_site_id
 _symmetry_equiv_pos_as_xyz
  1  'x, y, z'
loop_
 _atom_site_type_symbol
 _atom_site_label
 _atom_site_symmetry_multiplicity
 _atom_site_fract_x
 _atom_site_fract_y
 _atom_site_fract_z
 _atom_site_occupancy
  Sc  Sc0  1  0.49490299  0.24574900  0.24574800  1
  Sc  Sc1  1  0.01360100  0.24574800  0.24574800  1
  Sc  Sc2  1  0.00905700  0.75098800  0.23089800  1
  Mn  Mn3  1  0.00905700  0.23089800  0.75098800  1
  Zn  Zn4  1  0.61860299  0.88139700  0.88139699  1
  Zn  Zn5  1  0.85138699  0.64861300  0.64861299  1
  S  S6  1  0.37468700  0.62531300  0.62531300  1
  S  S7  1  0.75687099  0.00809700  0.00809700  1
  S  S8  1  0.75076799  0.47007300  0.02839200  1
  S  S9  1  0.22693500  0.00809700  0.00809700  1
  S  S10  1  0.75076699  0.02839300  0.47007300  1
  S  S11  1  0.24448000  0.49199700  0.01904300  1
  S  S12  1  0.24448100  0.01904300  0.49199600  1
  S  S13  1  0.77387599  0.48779700  0.48779800  1
  S  S14  1  0.25052800  0.48779800  0.48779800  1
