# generated using pymatgen
data_TaIrO4
_symmetry_space_group_name_H-M   'P 1'
_cell_length_a   4.82812977
_cell_length_b   5.72568178
_cell_length_c   5.75686455
_cell_angle_alpha   112.94599152
_cell_angle_beta   90.00000000
_cell_angle_gamma   90.00000000
_symmetry_Int_Tables_number   1
_chemical_formula_structural   TaIrO4
_chemical_formula_sum   'Ta2 Ir2 O8'
_cell_volume   146.55200967
_cell_formula_units_Z   2
loop_
 _symmetry_equiv_pos_site_id
 _symmetry_equiv_pos_as_xyz
  1  'x, y, z'
loop_
 _atom_site_type_symbol
 _atom_site_label
 _atom_site_symmetry_multiplicity
 _atom_site_fract_x
 _atom_site_fract_y
 _atom_site_fract_z
 _atom_site_occupancy
  Ir  Ir0  1  0.00014900  0.24973301  0.24929901  1
  Ta  Ta1  1  0.49985102  0.24973301  0.74929900  1
  Ta  Ta2  1  0.99984805  0.75026904  0.75070503  1
  Ir  Ir3  1  0.50015202  0.75026904  0.25070503  1
  O  O4  1  0.69488203  0.10366301  0.39235300  1
  O  O5  1  0.80511804  0.10366301  0.89235299  1
  O  O6  1  0.19493401  0.89632805  0.10768804  1
  O  O7  1  0.30506601  0.89632805  0.60768804  1
  O  O8  1  0.19586701  0.39629902  0.60565401  1
  O  O9  1  0.30413301  0.39629902  0.10565402  1
  O  O10  1  0.69591603  0.60370703  0.89430002  1
  O  O11  1  0.80408404  0.60370703  0.39430003  1
