# generated using pymatgen
data_ZrInPd10
_symmetry_space_group_name_H-M   'P 1'
_cell_length_a   3.97089601
_cell_length_b   3.97089601
_cell_length_c   12.51414204
_cell_angle_alpha   99.12891388
_cell_angle_beta   99.12891388
_cell_angle_gamma   90.00000000
_symmetry_Int_Tables_number   1
_chemical_formula_structural   ZrInPd10
_chemical_formula_sum   'Zr1 In1 Pd10'
_cell_volume   192.29205518
_cell_formula_units_Z   1
loop_
 _symmetry_equiv_pos_site_id
 _symmetry_equiv_pos_as_xyz
  1  'x, y, z'
loop_
 _atom_site_type_symbol
 _atom_site_label
 _atom_site_symmetry_multiplicity
 _atom_site_fract_x
 _atom_site_fract_y
 _atom_site_fract_z
 _atom_site_occupancy
  Zr  Zr0  1  0.00000000  0.00000000  0.00000000  1
  In  In1  1  0.66692200  0.66692200  0.33384398  1
  Pd  Pd2  1  0.33307800  0.33307800  0.66615597  1
  Pd  Pd3  1  0.58614100  0.08614100  0.17228199  1
  Pd  Pd4  1  0.25000000  0.75000000  0.49999998  1
  Pd  Pd5  1  0.91385900  0.41385900  0.82771797  1
  Pd  Pd6  1  0.08614100  0.58614100  0.17228199  1
  Pd  Pd7  1  0.75000000  0.25000000  0.49999998  1
  Pd  Pd8  1  0.41385900  0.91385900  0.82771797  1
  Pd  Pd9  1  0.50000000  0.50000000  -0.00000000  1
  Pd  Pd10  1  0.16821500  0.16821500  0.33642999  1
  Pd  Pd11  1  0.83178499  0.83178500  0.66356997  1
