# generated using pymatgen
data_La2Tl3CuSO9
_symmetry_space_group_name_H-M   'P 1'
_cell_length_a   6.24122953
_cell_length_b   6.30515432
_cell_length_c   6.41064596
_cell_angle_alpha   90.00000000
_cell_angle_beta   90.00000000
_cell_angle_gamma   89.63173676
_symmetry_Int_Tables_number   1
_chemical_formula_structural   La2Tl3CuSO9
_chemical_formula_sum   'La2 Tl3 Cu1 S1 O9'
_cell_volume   252.26598659
_cell_formula_units_Z   1
loop_
 _symmetry_equiv_pos_site_id
 _symmetry_equiv_pos_as_xyz
  1  'x, y, z'
loop_
 _atom_site_type_symbol
 _atom_site_label
 _atom_site_symmetry_multiplicity
 _atom_site_fract_x
 _atom_site_fract_y
 _atom_site_fract_z
 _atom_site_occupancy
  La  La0  1  0.50000001  0.00000000  0.00000000  1
  La  La1  1  0.65132903  0.65751898  0.76130800  1
  Tl  Tl2  1  0.34867102  0.34248099  0.76130800  1
  Tl  Tl3  1  0.84454503  0.15189999  0.25571500  1
  Cu  Cu4  1  0.15545503  0.84809997  0.25571500  1
  Tl  Tl5  1  0.34867102  0.34248099  0.23869200  1
  S  S6  1  0.65132903  0.65751898  0.23869200  1
  O  O7  1  0.15545503  0.84809997  0.74428500  1
  O  O8  1  0.84454503  0.15189999  0.74428500  1
  O  O9  1  0.00000001  0.49999998  0.50000000  1
  O  O10  1  0.00000001  0.49999998  -0.00000000  1
  O  O11  1  0.50000001  0.00000000  0.50000000  1
  O  O12  1  0.84520804  0.84410497  0.50000000  1
  O  O13  1  0.15479201  0.15589499  0.50000000  1
  O  O14  1  0.65744703  0.35186599  -0.00000000  1
  O  O15  1  0.34255303  0.64813398  -0.00000000  1
