# generated using pymatgen
data_CeAl2SiGe
_symmetry_space_group_name_H-M   'P 1'
_cell_length_a   4.21073580
_cell_length_b   4.21073675
_cell_length_c   6.82200003
_cell_angle_alpha   90.00000000
_cell_angle_beta   90.00000000
_cell_angle_gamma   119.99999237
_symmetry_Int_Tables_number   1
_chemical_formula_structural   CeAl2SiGe
_chemical_formula_sum   'Ce1 Al2 Si1 Ge1'
_cell_volume   104.75106938
_cell_formula_units_Z   1
loop_
 _symmetry_equiv_pos_site_id
 _symmetry_equiv_pos_as_xyz
  1  'x, y, z'
loop_
 _atom_site_type_symbol
 _atom_site_label
 _atom_site_symmetry_multiplicity
 _atom_site_fract_x
 _atom_site_fract_y
 _atom_site_fract_z
 _atom_site_occupancy
  Ce  Ce0  1  0.00000000  0.00000000  0.00000000  1
  Al  Al1  1  0.66666668  0.33333331  0.36136900  1
  Al  Al2  1  0.33333331  0.66666662  0.63863100  1
  Si  Si3  1  0.66666668  0.33333331  0.73401200  1
  Ge  Ge4  1  0.33333331  0.66666662  0.26598800  1
