# generated using pymatgen
data_TiO
_symmetry_space_group_name_H-M   'P 1'
_cell_length_a   3.06621623
_cell_length_b   3.06621623
_cell_length_c   12.70632839
_cell_angle_alpha   83.06997681
_cell_angle_beta   83.06997681
_cell_angle_gamma   59.99999237
_symmetry_Int_Tables_number   1
_chemical_formula_structural   TiO
_chemical_formula_sum   'Ti5 O5'
_cell_volume   102.44712556
_cell_formula_units_Z   5
loop_
 _symmetry_equiv_pos_site_id
 _symmetry_equiv_pos_as_xyz
  1  'x, y, z'
loop_
 _atom_site_type_symbol
 _atom_site_label
 _atom_site_symmetry_multiplicity
 _atom_site_fract_x
 _atom_site_fract_y
 _atom_site_fract_z
 _atom_site_occupancy
  Ti  Ti0  1  0.09933700  0.09933700  0.70198897  1
  Ti  Ti1  1  0.69974400  0.69974402  0.90076795  1
  Ti  Ti2  1  0.30025600  0.30025601  0.09923199  1
  Ti  Ti3  1  0.90066300  0.90066303  0.29801096  1
  Ti  Ti4  1  0.50000000  0.50000002  0.49999997  1
  O  O5  1  0.59996300  0.59996302  0.20011097  1
  O  O6  1  0.40003700  0.40003701  0.79988896  1
  O  O7  1  0.00000000  0.00000000  0.00000000  1
  O  O8  1  0.20014100  0.20014101  0.39957698  1
  O  O9  1  0.79985900  0.79985903  0.60042295  1
