# generated using pymatgen
data_Ba2SiAgAsP
_symmetry_space_group_name_H-M   'P 1'
_cell_length_a   4.40319014
_cell_length_b   4.40318966
_cell_length_c   9.51733112
_cell_angle_alpha   90.00000000
_cell_angle_beta   90.00000000
_cell_angle_gamma   120.00000000
_symmetry_Int_Tables_number   1
_chemical_formula_structural   Ba2SiAgAsP
_chemical_formula_sum   'Ba2 Si1 Ag1 As1 P1'
_cell_volume   159.80142314
_cell_formula_units_Z   1
loop_
 _symmetry_equiv_pos_site_id
 _symmetry_equiv_pos_as_xyz
  1  'x, y, z'
loop_
 _atom_site_type_symbol
 _atom_site_label
 _atom_site_symmetry_multiplicity
 _atom_site_fract_x
 _atom_site_fract_y
 _atom_site_fract_z
 _atom_site_occupancy
  Ba  Ba0  1  0.00000000  0.00000000  0.24984600  1
  Ba  Ba1  1  0.00000000  0.00000000  0.75015399  1
  Ag  Ag2  1  0.66666663  0.33333332  0.49999999  1
  P  P3  1  0.66666663  0.33333332  -0.00000000  1
  As  As4  1  0.33333329  0.66666665  0.49999999  1
  Si  Si5  1  0.33333329  0.66666665  0.99999999  1
