# generated using pymatgen
data_Li4Mn3O11
_symmetry_space_group_name_H-M   'P 1'
_cell_length_a   4.73215580
_cell_length_b   4.77165270
_cell_length_c   9.49334431
_cell_angle_alpha   90.00000000
_cell_angle_beta   90.00000000
_cell_angle_gamma   94.48669434
_symmetry_Int_Tables_number   1
_chemical_formula_structural   Li4Mn3O11
_chemical_formula_sum   'Li4 Mn3 O11'
_cell_volume   213.70474558
_cell_formula_units_Z   1
loop_
 _symmetry_equiv_pos_site_id
 _symmetry_equiv_pos_as_xyz
  1  'x, y, z'
loop_
 _atom_site_type_symbol
 _atom_site_label
 _atom_site_symmetry_multiplicity
 _atom_site_fract_x
 _atom_site_fract_y
 _atom_site_fract_z
 _atom_site_occupancy
  Li  Li0  1  0.01839100  0.00606900  -0.00000000  1
  Li  Li1  1  0.98760101  0.97481298  0.33912699  1
  Li  Li2  1  0.98760101  0.97481298  0.66087298  1
  Li  Li3  1  0.51809601  0.50820899  0.84175797  1
  Mn  Mn4  1  0.51809601  0.50820899  0.15824199  1
  Mn  Mn5  1  0.48922500  0.54098699  0.49999998  1
  Mn  Mn6  1  0.16700998  0.81146498  0.49999998  1
  O  O7  1  0.71875901  0.70446999  -0.00000000  1
  O  O8  1  0.68315501  0.69280099  0.32497999  1
  O  O9  1  0.68315501  0.69280099  0.67501998  1
  O  O10  1  0.32107000  0.30688899  -0.00000000  1
  O  O11  1  0.20117298  0.80585598  0.16416699  1
  O  O12  1  0.20117298  0.80585598  0.83583297  1
  O  O13  1  0.29269600  0.29526799  0.32625099  1
  O  O14  1  0.29269600  0.29526799  0.67374898  1
  O  O15  1  0.82030703  0.18152600  0.17435599  1
  O  O16  1  0.77949103  0.21317300  0.49999998  1
  O  O17  1  0.82030703  0.18152600  0.82564397  1
