# generated using pymatgen
data_Zn2Sb7
_symmetry_space_group_name_H-M   'P 1'
_cell_length_a   4.16426420
_cell_length_b   4.16426468
_cell_length_c   16.96500206
_cell_angle_alpha   90.00000000
_cell_angle_beta   90.00000000
_cell_angle_gamma   119.99999237
_symmetry_Int_Tables_number   1
_chemical_formula_structural   Zn2Sb7
_chemical_formula_sum   'Zn2 Sb7'
_cell_volume   254.77756504
_cell_formula_units_Z   1
loop_
 _symmetry_equiv_pos_site_id
 _symmetry_equiv_pos_as_xyz
  1  'x, y, z'
loop_
 _atom_site_type_symbol
 _atom_site_label
 _atom_site_symmetry_multiplicity
 _atom_site_fract_x
 _atom_site_fract_y
 _atom_site_fract_z
 _atom_site_occupancy
  Sb  Sb0  1  0.66666661  0.33333331  0.89459000  1
  Zn  Zn1  1  0.33333327  0.66666662  0.10541000  1
  Sb  Sb2  1  0.33333327  0.66666662  0.79170600  1
  Zn  Zn3  1  0.66666661  0.33333331  0.59114700  1
  Sb  Sb4  1  0.33333327  0.66666662  0.40885300  1
  Sb  Sb5  1  0.00000000  0.00000000  0.00000000  1
  Sb  Sb6  1  0.66666661  0.33333331  0.20829400  1
  Sb  Sb7  1  0.00000000  0.00000000  0.68214700  1
  Sb  Sb8  1  0.00000000  0.00000000  0.31785300  1
