# generated using pymatgen
data_BaWO3
_symmetry_space_group_name_H-M   'P 1'
_cell_length_a   5.99082804
_cell_length_b   5.99302959
_cell_length_c   10.53853893
_cell_angle_alpha   74.54491425
_cell_angle_beta   73.48691559
_cell_angle_gamma   60.01214981
_symmetry_Int_Tables_number   1
_chemical_formula_structural   BaWO3
_chemical_formula_sum   'Ba4 W4 O12'
_cell_volume   310.65254218
_cell_formula_units_Z   4
loop_
 _symmetry_equiv_pos_site_id
 _symmetry_equiv_pos_as_xyz
  1  'x, y, z'
loop_
 _atom_site_type_symbol
 _atom_site_label
 _atom_site_symmetry_multiplicity
 _atom_site_fract_x
 _atom_site_fract_y
 _atom_site_fract_z
 _atom_site_occupancy
  Ba  Ba0  1  0.86956100  0.86871897  0.39215898  1
  Ba  Ba1  1  0.13043900  0.13128100  0.60784098  1
  Ba  Ba2  1  0.27963600  0.28760399  0.15312399  1
  Ba  Ba3  1  0.72036400  0.71239597  0.84687597  1
  W  W4  1  0.00000000  0.00000000  0.00000000  1
  W  W5  1  0.50000000  0.49999998  0.49999998  1
  W  W6  1  0.57966900  0.59614498  0.24451699  1
  W  W7  1  0.42033100  0.40385499  0.75548298  1
  O  O8  1  0.76932400  0.33596199  0.12538999  1
  O  O9  1  0.23067600  0.66403798  0.87460998  1
  O  O10  1  0.76535900  0.79452997  0.14232799  1
  O  O11  1  0.23464100  0.20546999  0.85767198  1
  O  O12  1  0.70221700  0.20546999  0.85767197  1
  O  O13  1  0.29778300  0.79452997  0.14232799  1
  O  O14  1  0.61779600  0.14691799  0.61748998  1
  O  O15  1  0.38220400  0.85308197  0.38250999  1
  O  O16  1  0.61338100  0.60821998  0.62845198  1
  O  O17  1  0.38661900  0.39177999  0.37154799  1
  O  O18  1  0.85005300  0.39177999  0.37154798  1
  O  O19  1  0.14994700  0.60821998  0.62845198  1
