# generated using pymatgen
data_MgAlCu2
_symmetry_space_group_name_H-M   'P 1'
_cell_length_a   2.88053012
_cell_length_b   4.91327953
_cell_length_c   4.91327953
_cell_angle_alpha   107.57569122
_cell_angle_beta   90.00000000
_cell_angle_gamma   90.00000000
_symmetry_Int_Tables_number   1
_chemical_formula_structural   MgAlCu2
_chemical_formula_sum   'Mg1 Al1 Cu2'
_cell_volume   66.29084514
_cell_formula_units_Z   1
loop_
 _symmetry_equiv_pos_site_id
 _symmetry_equiv_pos_as_xyz
  1  'x, y, z'
loop_
 _atom_site_type_symbol
 _atom_site_label
 _atom_site_symmetry_multiplicity
 _atom_site_fract_x
 _atom_site_fract_y
 _atom_site_fract_z
 _atom_site_occupancy
  Mg  Mg0  1  0.00000000  0.00000000  0.00000000  1
  Al  Al1  1  -0.00000000  0.50000003  0.50000005  1
  Cu  Cu2  1  0.49999998  0.50000003  0.00000003  1
  Cu  Cu3  1  0.49999998  0.00000000  0.50000002  1
