# generated using pymatgen
data_RbCO2
_symmetry_space_group_name_H-M   'P 1'
_cell_length_a   6.70334101
_cell_length_b   6.84992218
_cell_length_c   7.76653624
_cell_angle_alpha   90.00000000
_cell_angle_beta   90.00000000
_cell_angle_gamma   90.00000000
_symmetry_Int_Tables_number   1
_chemical_formula_structural   RbCO2
_chemical_formula_sum   'Rb4 C4 O8'
_cell_volume   356.61887328
_cell_formula_units_Z   4
loop_
 _symmetry_equiv_pos_site_id
 _symmetry_equiv_pos_as_xyz
  1  'x, y, z'
loop_
 _atom_site_type_symbol
 _atom_site_label
 _atom_site_symmetry_multiplicity
 _atom_site_fract_x
 _atom_site_fract_y
 _atom_site_fract_z
 _atom_site_occupancy
  Rb  Rb0  1  0.75000000  0.80124198  0.49999998  1
  Rb  Rb1  1  0.25000000  0.19875799  0.00000000  1
  Rb  Rb2  1  0.25000000  0.19875799  0.49999998  1
  Rb  Rb3  1  0.75000000  0.80124198  0.00000000  1
  C  C4  1  0.71278500  0.23169399  0.24999999  1
  C  C5  1  0.78721500  0.23169399  0.74999998  1
  C  C6  1  0.28721500  0.76830598  0.74999998  1
  C  C7  1  0.21278500  0.76830598  0.24999999  1
  O  O8  1  0.88966900  0.39518099  0.24999999  1
  O  O9  1  0.61033100  0.39518099  0.74999998  1
  O  O10  1  0.38966900  0.60481898  0.24999999  1
  O  O11  1  0.11033100  0.60481898  0.74999998  1
  O  O12  1  0.08376200  0.88828698  0.24999999  1
  O  O13  1  0.41623800  0.88828698  0.74999998  1
  O  O14  1  0.58376200  0.11171300  0.24999999  1
  O  O15  1  0.91623800  0.11171300  0.74999998  1
