# generated using pymatgen
data_Li4Co3CuO8
_symmetry_space_group_name_H-M   'P 1'
_cell_length_a   2.91212559
_cell_length_b   2.92094469
_cell_length_c   24.61466408
_cell_angle_alpha   92.66542053
_cell_angle_beta   90.35139465
_cell_angle_gamma   119.74377441
_symmetry_Int_Tables_number   1
_chemical_formula_structural   Li4Co3CuO8
_chemical_formula_sum   'Li4 Co3 Cu1 O8'
_cell_volume   181.49181731
_cell_formula_units_Z   1
loop_
 _symmetry_equiv_pos_site_id
 _symmetry_equiv_pos_as_xyz
  1  'x, y, z'
loop_
 _atom_site_type_symbol
 _atom_site_label
 _atom_site_symmetry_multiplicity
 _atom_site_fract_x
 _atom_site_fract_y
 _atom_site_fract_z
 _atom_site_occupancy
  Li  Li0  1  0.37295505  0.74680101  0.12479700  1
  Li  Li1  1  0.62853600  0.25355500  0.87513199  1
  Li  Li2  1  0.87618304  0.75305501  0.62496999  1
  Li  Li3  1  0.12078002  0.24493100  0.37509200  1
  Cu  Cu4  1  0.01222500  0.01162600  0.99996900  1
  Co  Co5  1  0.25282003  0.50389101  0.75005999  1
  Co  Co6  1  0.49933106  0.99938301  0.49996699  1
  Co  Co7  1  0.73662702  0.48622001  0.25001100  1
  O  O8  1  0.76808502  0.54099801  0.33096000  1
  O  O9  1  0.03622000  0.05823100  0.08066600  1
  O  O10  1  0.27733403  0.55095801  0.83100799  1
  O  O11  1  0.52409699  0.04871700  0.58078800  1
  O  O12  1  0.98106305  0.95780701  0.91919299  1
  O  O13  1  0.22845503  0.45717401  0.66916199  1
  O  O14  1  0.47392506  0.94968101  0.41917199  1
  O  O15  1  0.71136602  0.43697001  0.16905200  1
