# generated using pymatgen
data_KCeS2
_symmetry_space_group_name_H-M   'P 1'
_cell_length_a   4.16748190
_cell_length_b   4.16748190
_cell_length_c   8.33399200
_cell_angle_alpha   75.52075958
_cell_angle_beta   75.52075958
_cell_angle_gamma   60.00000381
_symmetry_Int_Tables_number   1
_chemical_formula_structural   KCeS2
_chemical_formula_sum   'K1 Ce1 S2'
_cell_volume   120.01410162
_cell_formula_units_Z   1
loop_
 _symmetry_equiv_pos_site_id
 _symmetry_equiv_pos_as_xyz
  1  'x, y, z'
loop_
 _atom_site_type_symbol
 _atom_site_label
 _atom_site_symmetry_multiplicity
 _atom_site_fract_x
 _atom_site_fract_y
 _atom_site_fract_z
 _atom_site_occupancy
  K  K0  1  0.00000000  0.00000000  0.00000000  1
  Ce  Ce1  1  0.49999996  0.49999998  0.50000002  1
  S  S2  1  0.23062798  0.23062799  0.30811601  1
  S  S3  1  0.76937193  0.76937197  0.69188403  1
