# generated using pymatgen
data_Sm2Y(MgPd)3
_symmetry_space_group_name_H-M   'P 1'
_cell_length_a   4.02648306
_cell_length_b   7.57726192
_cell_length_c   7.57726145
_cell_angle_alpha   120.00000000
_cell_angle_beta   90.00000000
_cell_angle_gamma   90.00000000
_symmetry_Int_Tables_number   1
_chemical_formula_structural   Sm2Y(MgPd)3
_chemical_formula_sum   'Sm2 Y1 Mg3 Pd3'
_cell_volume   200.20784005
_cell_formula_units_Z   1
loop_
 _symmetry_equiv_pos_site_id
 _symmetry_equiv_pos_as_xyz
  1  'x, y, z'
loop_
 _atom_site_type_symbol
 _atom_site_label
 _atom_site_symmetry_multiplicity
 _atom_site_fract_x
 _atom_site_fract_y
 _atom_site_fract_z
 _atom_site_occupancy
  Sm  Sm0  1  0.49999999  0.58630900  0.58630900  1
  Sm  Sm1  1  0.49999999  0.00000000  0.41369101  1
  Y  Y2  1  0.49999999  0.41369100  -0.00000001  1
  Mg  Mg3  1  0.99999999  0.24988900  0.24988900  1
  Mg  Mg4  1  0.00000000  0.00000000  0.75011102  1
  Mg  Mg5  1  0.99999999  0.75011100  -0.00000002  1
  Pd  Pd6  1  -0.00000000  0.66666666  0.33333332  1
  Pd  Pd7  1  0.99999999  0.33333333  0.66666668  1
  Pd  Pd8  1  0.49999999  0.00000000  -0.00000000  1
