# generated using pymatgen
data_DyPuTc4
_symmetry_space_group_name_H-M   'P 1'
_cell_length_a   5.35341597
_cell_length_b   5.35341597
_cell_length_c   8.86738777
_cell_angle_alpha   90.00000000
_cell_angle_beta   90.00000000
_cell_angle_gamma   120.00000000
_symmetry_Int_Tables_number   1
_chemical_formula_structural   DyPuTc4
_chemical_formula_sum   'Dy2 Pu2 Tc8'
_cell_volume   220.08391956
_cell_formula_units_Z   2
loop_
 _symmetry_equiv_pos_site_id
 _symmetry_equiv_pos_as_xyz
  1  'x, y, z'
loop_
 _atom_site_type_symbol
 _atom_site_label
 _atom_site_symmetry_multiplicity
 _atom_site_fract_x
 _atom_site_fract_y
 _atom_site_fract_z
 _atom_site_occupancy
  Dy  Dy0  1  0.66666666  0.33333332  0.56372401  1
  Dy  Dy1  1  0.33333332  0.66666663  0.43627601  1
  Pu  Pu2  1  0.33333332  0.66666663  0.06372400  1
  Pu  Pu3  1  0.66666666  0.33333332  0.93627602  1
  Tc  Tc4  1  0.00000000  0.00000000  0.50000001  1
  Tc  Tc5  1  0.00000000  0.00000000  0.00000000  1
  Tc  Tc6  1  0.17155299  0.34310598  0.75000002  1
  Tc  Tc7  1  0.17155298  0.82844796  0.75000002  1
  Tc  Tc8  1  0.65689498  0.82844796  0.75000002  1
  Tc  Tc9  1  0.82844699  0.65689397  0.25000001  1
  Tc  Tc10  1  0.82844700  0.17155199  0.25000001  1
  Tc  Tc11  1  0.34310500  0.17155199  0.25000001  1
