# generated using pymatgen
data_Y4FeGe12
_symmetry_space_group_name_H-M   'P 1'
_cell_length_a   7.46162653
_cell_length_b   7.46162653
_cell_length_c   7.46162653
_cell_angle_alpha   109.47122192
_cell_angle_beta   109.47122192
_cell_angle_gamma   109.47122192
_symmetry_Int_Tables_number   1
_chemical_formula_structural   Y4FeGe12
_chemical_formula_sum   'Y4 Fe1 Ge12'
_cell_volume   319.80011249
_cell_formula_units_Z   1
loop_
 _symmetry_equiv_pos_site_id
 _symmetry_equiv_pos_as_xyz
  1  'x, y, z'
loop_
 _atom_site_type_symbol
 _atom_site_label
 _atom_site_symmetry_multiplicity
 _atom_site_fract_x
 _atom_site_fract_y
 _atom_site_fract_z
 _atom_site_occupancy
  Y  Y0  1  0.50000003  0.50000001  0.50000003  1
  Y  Y1  1  1.00000002  0.50000001  1.00000003  1
  Y  Y2  1  0.00000000  0.00000000  0.49999999  1
  Y  Y3  1  0.50000006  1.00000002  0.00000007  1
  Fe  Fe4  1  0.00000000  0.00000000  0.00000000  1
  Ge  Ge5  1  0.00000005  0.71438101  0.71438103  1
  Ge  Ge6  1  0.71438104  0.71438101  0.00000006  1
  Ge  Ge7  1  0.71438106  1.00000002  0.71438106  1
  Ge  Ge8  1  1.00000001  0.28561901  0.28561903  1
  Ge  Ge9  1  0.28561901  0.28561901  0.00000002  1
  Ge  Ge10  1  0.28561906  1.00000002  0.28561906  1
  Ge  Ge11  1  0.50000004  0.75000001  0.25000005  1
  Ge  Ge12  1  0.75000001  0.25000000  0.50000002  1
  Ge  Ge13  1  0.25000003  0.50000001  0.75000002  1
  Ge  Ge14  1  0.25000004  0.75000001  0.50000004  1
  Ge  Ge15  1  0.50000001  0.25000000  0.75000001  1
  Ge  Ge16  1  0.75000002  0.50000001  0.25000004  1
