# generated using pymatgen
data_Al7Ga11
_symmetry_space_group_name_H-M   'P 1'
_cell_length_a   4.69252777
_cell_length_b   4.69252825
_cell_length_c   17.08968925
_cell_angle_alpha   90.00000000
_cell_angle_beta   90.00000000
_cell_angle_gamma   120.00000000
_symmetry_Int_Tables_number   1
_chemical_formula_structural   Al7Ga11
_chemical_formula_sum   'Al7 Ga11'
_cell_volume   325.89563587
_cell_formula_units_Z   1
loop_
 _symmetry_equiv_pos_site_id
 _symmetry_equiv_pos_as_xyz
  1  'x, y, z'
loop_
 _atom_site_type_symbol
 _atom_site_label
 _atom_site_symmetry_multiplicity
 _atom_site_fract_x
 _atom_site_fract_y
 _atom_site_fract_z
 _atom_site_occupancy
  Al  Al0  1  0.00000000  0.00000000  0.50000002  1
  Al  Al1  1  0.00000000  0.00000000  0.32835901  1
  Al  Al2  1  0.00000000  0.00000000  0.67164103  1
  Al  Al3  1  0.00000000  0.00000000  0.16352801  1
  Al  Al4  1  0.00000000  0.00000000  0.83647204  1
  Ga  Ga5  1  0.66666672  0.33333336  0.05330500  1
  Ga  Ga6  1  0.33333339  0.66666672  0.94669504  1
  Al  Al7  1  0.66666672  0.33333336  0.55377202  1
  Ga  Ga8  1  0.33333339  0.66666672  0.44622802  1
  Ga  Ga9  1  0.66666672  0.33333336  0.71628203  1
  Al  Al10  1  0.33333339  0.66666672  0.28371801  1
  Ga  Ga11  1  0.66666672  0.33333336  0.88796104  1
  Ga  Ga12  1  0.33333339  0.66666672  0.11203900  1
  Ga  Ga13  1  0.00000000  0.00000000  0.00000000  1
  Ga  Ga14  1  0.66666672  0.33333336  0.22172801  1
  Ga  Ga15  1  0.33333339  0.66666672  0.77827203  1
  Ga  Ga16  1  0.66666672  0.33333336  0.39196302  1
  Ga  Ga17  1  0.33333339  0.66666672  0.60803703  1
