# generated using pymatgen
data_ZrBRh2
_symmetry_space_group_name_H-M   'P 1'
_cell_length_a   3.01969290
_cell_length_b   9.48621941
_cell_length_c   9.48621941
_cell_angle_alpha   90.00000000
_cell_angle_beta   90.00000000
_cell_angle_gamma   90.00000000
_symmetry_Int_Tables_number   1
_chemical_formula_structural   ZrBRh2
_chemical_formula_sum   'Zr5 B5 Rh10'
_cell_volume   271.73720741
_cell_formula_units_Z   5
loop_
 _symmetry_equiv_pos_site_id
 _symmetry_equiv_pos_as_xyz
  1  'x, y, z'
loop_
 _atom_site_type_symbol
 _atom_site_label
 _atom_site_symmetry_multiplicity
 _atom_site_fract_x
 _atom_site_fract_y
 _atom_site_fract_z
 _atom_site_occupancy
  Zr  Zr0  1  0.00000000  0.82380096  0.67619897  1
  Zr  Zr1  1  0.00000000  0.17619899  0.32380099  1
  Zr  Zr2  1  0.00000000  0.32380099  0.82380096  1
  Zr  Zr3  1  0.00000000  0.67619897  0.17619899  1
  Zr  Zr4  1  1.00000003  0.49999998  0.49999998  1
  B  B5  1  0.00000000  0.00000000  0.00000000  1
  B  B6  1  0.00000000  0.62177197  0.87822796  1
  B  B7  1  0.00000000  0.37822798  0.12177199  1
  B  B8  1  0.00000000  0.12177199  0.62177197  1
  B  B9  1  0.00000000  0.87822796  0.37822798  1
  Rh  Rh10  1  0.50000002  0.57103898  0.71897797  1
  Rh  Rh11  1  0.50000002  0.42896098  0.28102199  1
  Rh  Rh12  1  0.50000002  0.07103900  0.78102197  1
  Rh  Rh13  1  0.50000002  0.92896096  0.21897799  1
  Rh  Rh14  1  0.50000002  0.28102199  0.57103898  1
  Rh  Rh15  1  0.50000002  0.71897797  0.42896098  1
  Rh  Rh16  1  0.50000002  0.21897799  0.07103900  1
  Rh  Rh17  1  0.50000002  0.78102197  0.92896096  1
  Rh  Rh18  1  0.50000002  0.49999998  -0.00000000  1
  Rh  Rh19  1  0.50000002  0.99999996  0.49999998  1
