# generated using pymatgen
data_LaBiSe2
_symmetry_space_group_name_H-M   'P 1'
_cell_length_a   4.63301182
_cell_length_b   4.63301182
_cell_length_c   10.55803490
_cell_angle_alpha   102.67420197
_cell_angle_beta   102.67420197
_cell_angle_gamma   90.00000000
_symmetry_Int_Tables_number   1
_chemical_formula_structural   LaBiSe2
_chemical_formula_sum   'La2 Bi2 Se4'
_cell_volume   215.44039780
_cell_formula_units_Z   2
loop_
 _symmetry_equiv_pos_site_id
 _symmetry_equiv_pos_as_xyz
  1  'x, y, z'
loop_
 _atom_site_type_symbol
 _atom_site_label
 _atom_site_symmetry_multiplicity
 _atom_site_fract_x
 _atom_site_fract_y
 _atom_site_fract_z
 _atom_site_occupancy
  La  La0  1  0.11887101  0.11887101  0.23774200  1
  La  La1  1  0.88112904  0.88112904  0.76225802  1
  Bi  Bi2  1  0.38053302  0.38053302  0.76106601  1
  Bi  Bi3  1  0.61946703  0.61946703  0.23893401  1
  Se  Se4  1  0.75000003  0.25000001  0.50000001  1
  Se  Se5  1  0.25000002  0.75000003  0.50000001  1
  Se  Se6  1  0.50000002  0.00000000  0.00000000  1
  Se  Se7  1  0.00000000  0.50000002  1.00000001  1
