# generated using pymatgen
data_ZrAg
_symmetry_space_group_name_H-M   'P 1'
_cell_length_a   5.87679100
_cell_length_b   8.70704174
_cell_length_c   8.70704174
_cell_angle_alpha   120.00000000
_cell_angle_beta   90.00000000
_cell_angle_gamma   90.00000000
_symmetry_Int_Tables_number   1
_chemical_formula_structural   ZrAg
_chemical_formula_sum   'Zr9 Ag9'
_cell_volume   385.84433693
_cell_formula_units_Z   9
loop_
 _symmetry_equiv_pos_site_id
 _symmetry_equiv_pos_as_xyz
  1  'x, y, z'
loop_
 _atom_site_type_symbol
 _atom_site_label
 _atom_site_symmetry_multiplicity
 _atom_site_fract_x
 _atom_site_fract_y
 _atom_site_fract_z
 _atom_site_occupancy
  Zr  Zr0  1  -0.00000000  0.33333334  0.66666664  1
  Zr  Zr1  1  0.75000000  0.00000000  0.25724299  1
  Zr  Zr2  1  0.25000000  0.25724300  0.25724298  1
  Zr  Zr3  1  0.25000000  0.74275701  -0.00000003  1
  Zr  Zr4  1  0.50000000  0.66666667  0.33333330  1
  Zr  Zr5  1  1.00000000  0.66666667  0.33333330  1
  Zr  Zr6  1  0.25000000  0.00000000  0.74275698  1
  Ag  Ag7  1  0.50000000  0.33333334  0.66666664  1
  Zr  Zr8  1  0.75000000  0.25724300  -0.00000001  1
  Zr  Zr9  1  0.75000000  0.74275701  0.74275695  1
  Ag  Ag10  1  0.00000000  0.00000000  0.00000000  1
  Ag  Ag11  1  0.50000000  0.00000000  -0.00000000  1
  Ag  Ag12  1  0.25000000  0.38906300  -0.00000001  1
  Ag  Ag13  1  0.25000000  0.61093701  0.61093696  1
  Ag  Ag14  1  0.75000000  0.00000000  0.61093698  1
  Ag  Ag15  1  0.75000000  0.61093701  -0.00000002  1
  Ag  Ag16  1  0.25000000  0.00000000  0.38906299  1
  Ag  Ag17  1  0.75000000  0.38906300  0.38906298  1
