# generated using pymatgen
data_LiMn3(CoO4)2
_symmetry_space_group_name_H-M   'P 1'
_cell_length_a   5.96309185
_cell_length_b   6.05641079
_cell_length_c   6.05641079
_cell_angle_alpha   61.32986832
_cell_angle_beta   60.50840759
_cell_angle_gamma   60.50840759
_symmetry_Int_Tables_number   1
_chemical_formula_structural   LiMn3(CoO4)2
_chemical_formula_sum   'Li1 Mn3 Co2 O8'
_cell_volume   157.37116369
_cell_formula_units_Z   1
loop_
 _symmetry_equiv_pos_site_id
 _symmetry_equiv_pos_as_xyz
  1  'x, y, z'
loop_
 _atom_site_type_symbol
 _atom_site_label
 _atom_site_symmetry_multiplicity
 _atom_site_fract_x
 _atom_site_fract_y
 _atom_site_fract_z
 _atom_site_occupancy
  Li  Li0  1  0.62586403  0.62413600  0.12413599  1
  Mn  Mn1  1  0.37413602  0.37586400  0.87586400  1
  Mn  Mn2  1  0.50000004  1.00000000  0.49999997  1
  Mn  Mn3  1  0.00000000  0.00000000  0.50000000  1
  Co  Co4  1  0.00000000  0.00000000  0.00000000  1
  Co  Co5  1  0.00000002  0.50000000  0.49999998  1
  O  O6  1  0.24280901  0.23528900  0.27909300  1
  O  O7  1  0.24280903  0.77909300  0.73528897  1
  O  O8  1  0.78341202  0.23703400  0.73703302  1
  O  O9  1  0.24252201  0.23703300  0.73703300  1
  O  O10  1  0.75719104  0.76471100  0.72090699  1
  O  O11  1  0.75719101  0.22090700  0.26471102  1
  O  O12  1  0.21658803  0.76296600  0.26296697  1
  O  O13  1  0.75747804  0.76296700  0.26296699  1
