# generated using pymatgen
data_NdMgPd
_symmetry_space_group_name_H-M   'P 1'
_cell_length_a   4.27330494
_cell_length_b   7.60923386
_cell_length_c   7.60923386
_cell_angle_alpha   120.00000000
_cell_angle_beta   90.00000000
_cell_angle_gamma   90.00000000
_symmetry_Int_Tables_number   1
_chemical_formula_structural   NdMgPd
_chemical_formula_sum   'Nd3 Mg3 Pd3'
_cell_volume   214.27740569
_cell_formula_units_Z   3
loop_
 _symmetry_equiv_pos_site_id
 _symmetry_equiv_pos_as_xyz
  1  'x, y, z'
loop_
 _atom_site_type_symbol
 _atom_site_label
 _atom_site_symmetry_multiplicity
 _atom_site_fract_x
 _atom_site_fract_y
 _atom_site_fract_z
 _atom_site_occupancy
  Nd  Nd0  1  0.50000001  0.58579501  0.00000000  1
  Nd  Nd1  1  0.50000001  0.41420501  0.41420501  1
  Nd  Nd2  1  0.50000001  0.00000000  0.58579501  1
  Mg  Mg3  1  1.00000001  0.24399001  1.00000003  1
  Mg  Mg4  1  1.00000001  0.75601002  0.75601002  1
  Mg  Mg5  1  0.00000000  0.00000000  0.24399001  1
  Pd  Pd6  1  1.00000001  0.33333334  0.66666668  1
  Pd  Pd7  1  1.00000001  0.66666668  0.33333334  1
  Pd  Pd8  1  0.50000001  0.00000000  -0.00000000  1
