# generated using pymatgen
data_Na2Cu2O3
_symmetry_space_group_name_H-M   'P 1'
_cell_length_a   4.32786608
_cell_length_b   6.15336657
_cell_length_c   6.15336657
_cell_angle_alpha   72.28928375
_cell_angle_beta   69.41072083
_cell_angle_gamma   69.41072083
_symmetry_Int_Tables_number   1
_chemical_formula_structural   Na2Cu2O3
_chemical_formula_sum   'Na2 Cu2 O3'
_cell_volume   140.52364674
_cell_formula_units_Z   1
loop_
 _symmetry_equiv_pos_site_id
 _symmetry_equiv_pos_as_xyz
  1  'x, y, z'
loop_
 _atom_site_type_symbol
 _atom_site_label
 _atom_site_symmetry_multiplicity
 _atom_site_fract_x
 _atom_site_fract_y
 _atom_site_fract_z
 _atom_site_occupancy
  Na  Na0  1  0.50000001  0.50000000  0.49999998  1
  Na  Na1  1  0.00000000  0.00000000  0.00000000  1
  Cu  Cu2  1  0.50000003  0.80533001  0.19466996  1
  Cu  Cu3  1  0.50000000  0.19467000  0.80533000  1
  O  O4  1  0.25658403  0.74341601  0.74341597  1
  O  O5  1  0.74341599  0.25658400  0.25658400  1
  O  O6  1  0.00000003  0.50000000  0.49999997  1
