# generated using pymatgen
data_DyAl6
_symmetry_space_group_name_H-M   'P 1'
_cell_length_a   4.31305790
_cell_length_b   8.09040451
_cell_length_c   8.09040451
_cell_angle_alpha   72.77490997
_cell_angle_beta   74.54069519
_cell_angle_gamma   74.54069519
_symmetry_Int_Tables_number   1
_chemical_formula_structural   DyAl6
_chemical_formula_sum   'Dy2 Al12'
_cell_volume   254.43720358
_cell_formula_units_Z   2
loop_
 _symmetry_equiv_pos_site_id
 _symmetry_equiv_pos_as_xyz
  1  'x, y, z'
loop_
 _atom_site_type_symbol
 _atom_site_label
 _atom_site_symmetry_multiplicity
 _atom_site_fract_x
 _atom_site_fract_y
 _atom_site_fract_z
 _atom_site_occupancy
  Dy  Dy0  1  0.00000000  0.00000000  0.00000000  1
  Dy  Dy1  1  0.68293203  0.31706800  0.31706802  1
  Al  Al2  1  0.31706804  0.68293201  0.68293201  1
  Al  Al3  1  0.50000002  0.30422400  0.69577602  1
  Al  Al4  1  0.50000005  0.69577601  0.30422401  1
  Al  Al5  1  0.89200906  0.83467701  0.38130502  1
  Al  Al6  1  0.10799101  0.16532300  0.61869501  1
  Al  Al7  1  0.89200903  0.38130500  0.83467703  1
  Al  Al8  1  0.10799104  0.61869501  0.16532300  1
  Al  Al9  1  0.67678906  0.98093001  0.66549202  1
  Al  Al10  1  0.32321101  0.01907000  0.33450801  1
  Al  Al11  1  0.67678905  0.66549201  0.98093003  1
  Al  Al12  1  0.32321102  0.33450800  0.01907001  1
  Al  Al13  1  0.00000003  0.50000000  0.50000001  1
