# generated using pymatgen
data_CeSn2
_symmetry_space_group_name_H-M   'P 1'
_cell_length_a   4.43125963
_cell_length_b   4.43125963
_cell_length_c   18.27429962
_cell_angle_alpha   90.20847321
_cell_angle_beta   89.79152679
_cell_angle_gamma   89.91562653
_symmetry_Int_Tables_number   1
_chemical_formula_structural   CeSn2
_chemical_formula_sum   'Ce4 Sn8'
_cell_volume   358.83013234
_cell_formula_units_Z   4
loop_
 _symmetry_equiv_pos_site_id
 _symmetry_equiv_pos_as_xyz
  1  'x, y, z'
loop_
 _atom_site_type_symbol
 _atom_site_label
 _atom_site_symmetry_multiplicity
 _atom_site_fract_x
 _atom_site_fract_y
 _atom_site_fract_z
 _atom_site_occupancy
  Ce  Ce0  1  0.13586995  0.86413003  0.61066399  1
  Ce  Ce1  1  0.86413002  0.13587000  0.38933599  1
  Ce  Ce2  1  0.36124097  0.63875902  0.11051100  1
  Ce  Ce3  1  0.63875900  0.36124101  0.88948898  1
  Sn  Sn4  1  0.37833401  0.12834200  0.24935699  1
  Sn  Sn5  1  0.12834198  0.37833401  0.75064299  1
  Sn  Sn6  1  0.62166597  0.87165803  0.75064299  1
  Sn  Sn7  1  0.87165799  0.62166602  0.24935699  1
  Sn  Sn8  1  0.36688397  0.63311602  0.43684899  1
  Sn  Sn9  1  0.63311600  0.36688401  0.56315099  1
  Sn  Sn10  1  0.13363495  0.86636503  0.93629099  1
  Sn  Sn11  1  0.86636502  0.13363500  0.06370899  1
