# generated using pymatgen
data_SrSbPd
_symmetry_space_group_name_H-M   'P 1'
_cell_length_a   4.81768322
_cell_length_b   7.68787718
_cell_length_c   8.06251907
_cell_angle_alpha   90.00000000
_cell_angle_beta   90.00000000
_cell_angle_gamma   90.00000000
_symmetry_Int_Tables_number   1
_chemical_formula_structural   SrSbPd
_chemical_formula_sum   'Sr4 Sb4 Pd4'
_cell_volume   298.61762127
_cell_formula_units_Z   4
loop_
 _symmetry_equiv_pos_site_id
 _symmetry_equiv_pos_as_xyz
  1  'x, y, z'
loop_
 _atom_site_type_symbol
 _atom_site_label
 _atom_site_symmetry_multiplicity
 _atom_site_fract_x
 _atom_site_fract_y
 _atom_site_fract_z
 _atom_site_occupancy
  Sr  Sr0  1  0.24999999  0.01429300  0.29904600  1
  Sr  Sr1  1  0.24999999  0.51429299  0.20095400  1
  Sr  Sr2  1  0.74999997  0.98570698  0.70095399  1
  Sr  Sr3  1  0.74999997  0.48570699  0.79904599  1
  Sb  Sb4  1  0.24999999  0.18476500  0.91341899  1
  Sb  Sb5  1  0.24999999  0.68476498  0.58658099  1
  Sb  Sb6  1  0.74999997  0.81523498  0.08658100  1
  Sb  Sb7  1  0.74999997  0.31523499  0.41341900  1
  Pd  Pd8  1  0.24999999  0.30077599  0.58503799  1
  Pd  Pd9  1  0.24999999  0.80077598  0.91496199  1
  Pd  Pd10  1  0.74999997  0.69922398  0.41496200  1
  Pd  Pd11  1  0.74999997  0.19922400  0.08503800  1
