# generated using pymatgen
data_Na2CuPSe4
_symmetry_space_group_name_H-M   'P 1'
_cell_length_a   5.37102032
_cell_length_b   6.64715624
_cell_length_c   6.64715624
_cell_angle_alpha   63.76598358
_cell_angle_beta   78.46385193
_cell_angle_gamma   101.53614807
_symmetry_Int_Tables_number   1
_chemical_formula_structural   Na2CuPSe4
_chemical_formula_sum   'Na2 Cu1 P1 Se4'
_cell_volume   197.02371411
_cell_formula_units_Z   1
loop_
 _symmetry_equiv_pos_site_id
 _symmetry_equiv_pos_as_xyz
  1  'x, y, z'
loop_
 _atom_site_type_symbol
 _atom_site_label
 _atom_site_symmetry_multiplicity
 _atom_site_fract_x
 _atom_site_fract_y
 _atom_site_fract_z
 _atom_site_occupancy
  Na  Na0  1  0.74999997  0.64188202  0.64188202  1
  Na  Na1  1  0.24999998  0.35811801  0.35811801  1
  Cu  Cu2  1  0.24999996  0.99792003  0.99792001  1
  P  P3  1  0.74999999  0.00208000  0.00208002  1
  Se  Se4  1  0.40275796  0.91556603  0.29667099  1
  Se  Se5  1  0.09724199  0.29667101  0.91556602  1
  Se  Se6  1  0.90275796  0.70332902  0.08443401  1
  Se  Se7  1  0.59724199  0.08443400  0.70332903  1
