# generated using pymatgen
data_AlFe(PS3)2
_symmetry_space_group_name_H-M   'P 1'
_cell_length_a   5.86511183
_cell_length_b   5.89583921
_cell_length_c   6.96370029
_cell_angle_alpha   82.41561127
_cell_angle_beta   74.61191559
_cell_angle_gamma   60.17225266
_symmetry_Int_Tables_number   1
_chemical_formula_structural   AlFe(PS3)2
_chemical_formula_sum   'Al1 Fe1 P2 S6'
_cell_volume   201.41356526
_cell_formula_units_Z   1
loop_
 _symmetry_equiv_pos_site_id
 _symmetry_equiv_pos_as_xyz
  1  'x, y, z'
loop_
 _atom_site_type_symbol
 _atom_site_label
 _atom_site_symmetry_multiplicity
 _atom_site_fract_x
 _atom_site_fract_y
 _atom_site_fract_z
 _atom_site_occupancy
  Al  Al0  1  0.33333335  0.33333333  0.00000001  1
  Fe  Fe1  1  0.66508703  0.66982600  0.00000001  1
  P  P2  1  0.94569903  0.00132800  0.16223800  1
  P  P3  1  0.05297300  0.00132800  0.83776201  1
  S  S4  1  0.60378602  0.35158100  0.23606101  1
  S  S5  1  0.89254503  0.67829400  0.22927202  1
  S  S6  1  0.42916102  0.67829500  0.77072802  1
  S  S7  1  0.04463300  0.35158100  0.76393902  1
  S  S8  1  0.75599803  0.96720400  0.76432403  1
  S  S9  1  0.27679802  0.96720400  0.23567602  1
