# generated using pymatgen
data_K4TeSe5
_symmetry_space_group_name_H-M   'P 1'
_cell_length_a   6.54649019
_cell_length_b   7.05633211
_cell_length_c   8.19011211
_cell_angle_alpha   115.51730347
_cell_angle_beta   113.55680847
_cell_angle_gamma   90.00000000
_symmetry_Int_Tables_number   1
_chemical_formula_structural   K4TeSe5
_chemical_formula_sum   'K4 Te1 Se5'
_cell_volume   306.12454931
_cell_formula_units_Z   1
loop_
 _symmetry_equiv_pos_site_id
 _symmetry_equiv_pos_as_xyz
  1  'x, y, z'
loop_
 _atom_site_type_symbol
 _atom_site_label
 _atom_site_symmetry_multiplicity
 _atom_site_fract_x
 _atom_site_fract_y
 _atom_site_fract_z
 _atom_site_occupancy
  K  K0  1  0.35856299  0.18845900  0.71712497  1
  K  K1  1  0.64143698  0.81154101  0.28287501  1
  K  K2  1  0.85856197  0.52866600  0.71712398  1
  K  K3  1  0.14143800  0.47133400  0.28287601  1
  Te  Te4  1  0.74999997  0.00000000  -0.00000002  1
  Se  Se5  1  0.24999999  0.00000000  0.99999996  1
  Se  Se6  1  0.60491098  0.29449600  0.20982199  1
  Se  Se7  1  0.39508899  0.70550401  0.79017800  1
  Se  Se8  1  0.10491201  0.91532701  0.20982303  1
  Se  Se9  1  0.89508796  0.08467300  0.79017695  1
