# generated using pymatgen
data_VO2F
_symmetry_space_group_name_H-M   'P 1'
_cell_length_a   5.08273315
_cell_length_b   5.30639124
_cell_length_c   7.34852505
_cell_angle_alpha   86.54074097
_cell_angle_beta   89.95862579
_cell_angle_gamma   89.99105835
_symmetry_Int_Tables_number   1
_chemical_formula_structural   VO2F
_chemical_formula_sum   'V4 O8 F4'
_cell_volume   197.83567728
_cell_formula_units_Z   4
loop_
 _symmetry_equiv_pos_site_id
 _symmetry_equiv_pos_as_xyz
  1  'x, y, z'
loop_
 _atom_site_type_symbol
 _atom_site_label
 _atom_site_symmetry_multiplicity
 _atom_site_fract_x
 _atom_site_fract_y
 _atom_site_fract_z
 _atom_site_occupancy
  V  V0  1  0.00000000  0.00000000  0.50000001  1
  V  V1  1  0.49999997  0.49999998  -0.00000004  1
  V  V2  1  0.49999997  0.49999998  0.49999997  1
  V  V3  1  0.00000000  0.00000000  0.00000000  1
  O  O4  1  0.68432598  0.19177399  0.57068997  1
  O  O5  1  0.88392797  0.00509300  0.25427896  1
  O  O6  1  0.69045896  0.81537897  0.94766297  1
  O  O7  1  0.81566096  0.69173598  0.57098896  1
  O  O8  1  0.19309898  0.69785698  0.06136397  1
  O  O9  1  0.63256697  0.50686798  0.25349596  1
  F  F10  1  0.36743298  0.49313198  0.74650398  1
  F  F11  1  0.80690097  0.30214299  0.93863597  1
  O  O12  1  0.18433899  0.30826399  0.42901099  1
  F  F13  1  0.30954099  0.18462099  0.05233698  1
  O  O14  1  0.11607198  0.99490697  0.74572098  1
  F  F15  1  0.31567397  0.80822597  0.42930997  1
