# generated using pymatgen
data_Na2O2
_symmetry_space_group_name_H-M   'P 1'
_cell_length_a   3.60917926
_cell_length_b   3.60917926
_cell_length_c   6.24769640
_cell_angle_alpha   73.21143341
_cell_angle_beta   73.21143341
_cell_angle_gamma   60.00001144
_symmetry_Int_Tables_number   1
_chemical_formula_structural   Na2O2
_chemical_formula_sum   'Na2 O2'
_cell_volume   66.44465993
_cell_formula_units_Z   1
loop_
 _symmetry_equiv_pos_site_id
 _symmetry_equiv_pos_as_xyz
  1  'x, y, z'
loop_
 _atom_site_type_symbol
 _atom_site_label
 _atom_site_symmetry_multiplicity
 _atom_site_fract_x
 _atom_site_fract_y
 _atom_site_fract_z
 _atom_site_occupancy
  Na  Na0  1  0.50000001  0.50000001  0.49999998  1
  Na  Na1  1  0.00000000  0.00000000  0.00000000  1
  O  O2  1  0.24413200  0.24413201  0.26760399  1
  O  O3  1  0.75586801  0.75586802  0.73239597  1
