# generated using pymatgen
data_Li6Mn2VCrO10
_symmetry_space_group_name_H-M   'P 1'
_cell_length_a   5.29568624
_cell_length_b   5.29568624
_cell_length_c   7.95303297
_cell_angle_alpha   83.25207520
_cell_angle_beta   83.25207520
_cell_angle_gamma   66.85741425
_symmetry_Int_Tables_number   1
_chemical_formula_structural   Li6Mn2VCrO10
_chemical_formula_sum   'Li6 Mn2 V1 Cr1 O10'
_cell_volume   203.04643428
_cell_formula_units_Z   1
loop_
 _symmetry_equiv_pos_site_id
 _symmetry_equiv_pos_as_xyz
  1  'x, y, z'
loop_
 _atom_site_type_symbol
 _atom_site_label
 _atom_site_symmetry_multiplicity
 _atom_site_fract_x
 _atom_site_fract_y
 _atom_site_fract_z
 _atom_site_occupancy
  Li  Li0  1  0.03492299  0.36207999  0.35385501  1
  Li  Li1  1  0.63791995  0.96507698  0.14614500  1
  Li  Li2  1  0.22302498  0.56791599  0.94334901  1
  Li  Li3  1  0.43208396  0.77697498  0.55665101  1
  Li  Li4  1  0.77697496  0.43208399  0.05665100  1
  Li  Li5  1  0.56791597  0.22302500  0.44334901  1
  Mn  Mn6  1  0.96507695  0.63791999  0.64614501  1
  Mn  Mn7  1  0.36207999  0.03492300  0.85385501  1
  Cr  Cr8  1  0.17204297  0.82795698  0.25000000  1
  V  V9  1  0.82795697  0.17204300  0.75000001  1
  O  O10  1  0.34972899  0.00549700  0.33988700  1
  O  O11  1  0.99450295  0.65027099  0.16011300  1
  O  O12  1  0.12838597  0.87161398  0.75000001  1
  O  O13  1  0.87161397  0.12838600  0.25000000  1
  O  O14  1  0.76698796  0.41084499  0.57347901  1
  O  O15  1  0.58915497  0.23301200  0.92652101  1
  O  O16  1  0.23301197  0.58915499  0.42652101  1
  O  O17  1  0.41084496  0.76698798  0.07347900  1
  O  O18  1  0.00549699  0.34972899  0.83988701  1
  O  O19  1  0.65027095  0.99450298  0.66011301  1
