# generated using pymatgen
data_Sr3Mn(WO3)4
_symmetry_space_group_name_H-M   'P 1'
_cell_length_a   5.63622713
_cell_length_b   5.68271399
_cell_length_c   9.83466148
_cell_angle_alpha   89.21588898
_cell_angle_beta   73.41853333
_cell_angle_gamma   60.48772430
_symmetry_Int_Tables_number   1
_chemical_formula_structural   Sr3Mn(WO3)4
_chemical_formula_sum   'Sr3 Mn1 W4 O12'
_cell_volume   259.66653523
_cell_formula_units_Z   1
loop_
 _symmetry_equiv_pos_site_id
 _symmetry_equiv_pos_as_xyz
  1  'x, y, z'
loop_
 _atom_site_type_symbol
 _atom_site_label
 _atom_site_symmetry_multiplicity
 _atom_site_fract_x
 _atom_site_fract_y
 _atom_site_fract_z
 _atom_site_occupancy
  Sr  Sr0  1  0.75445997  0.37350901  0.61491902  1
  Sr  Sr1  1  0.74583297  0.87480303  0.13754204  1
  Sr  Sr2  1  0.25416699  0.12519700  0.86245800  1
  Mn  Mn3  1  0.24553999  0.62649102  0.38508101  1
  W  W4  1  0.00061000  0.74826003  0.74644200  1
  W  W5  1  0.99938996  0.25174001  0.25355803  1
  W  W6  1  0.49999998  0.00000000  0.50000001  1
  W  W7  1  0.49999998  0.50000002  0.00000002  1
  O  O8  1  0.74114897  0.14059301  0.88074901  1
  O  O9  1  0.75761397  0.61444702  0.36673903  1
  O  O10  1  0.24238599  0.38555301  0.63326100  1
  O  O11  1  0.25885099  0.85940703  0.11925102  1
  O  O12  1  0.20517399  0.90319303  0.61384101  1
  O  O13  1  0.22805199  0.38789001  0.09985401  1
  O  O14  1  0.79482597  0.09680700  0.38615902  1
  O  O15  1  0.77194797  0.61211002  0.90014602  1
  O  O16  1  0.71205497  0.35792301  0.13605102  1
  O  O17  1  0.71229398  0.86002803  0.64651603  1
  O  O18  1  0.28770599  0.13997201  0.35348400  1
  O  O19  1  0.28794499  0.64207702  0.86394901  1
