# generated using pymatgen
data_LaGa5
_symmetry_space_group_name_H-M   'P 1'
_cell_length_a   5.69977999
_cell_length_b   5.69977999
_cell_length_c   9.54831696
_cell_angle_alpha   72.63424683
_cell_angle_beta   72.63424683
_cell_angle_gamma   60.00000000
_symmetry_Int_Tables_number   1
_chemical_formula_structural   LaGa5
_chemical_formula_sum   'La2 Ga10'
_cell_volume   252.18308861
_cell_formula_units_Z   2
loop_
 _symmetry_equiv_pos_site_id
 _symmetry_equiv_pos_as_xyz
  1  'x, y, z'
loop_
 _atom_site_type_symbol
 _atom_site_label
 _atom_site_symmetry_multiplicity
 _atom_site_fract_x
 _atom_site_fract_y
 _atom_site_fract_z
 _atom_site_occupancy
  La  La0  1  0.85913096  0.85913100  0.42260706  1
  La  La1  1  0.14086899  0.14086900  0.57739301  1
  Ga  Ga2  1  0.00000000  0.00000000  0.00000000  1
  Ga  Ga3  1  0.92256697  0.41473500  0.24796304  1
  Ga  Ga4  1  0.41473498  0.41473500  0.24796303  1
  Ga  Ga5  1  0.41473497  0.92256699  0.24796304  1
  Ga  Ga6  1  0.07743298  0.58526500  0.75203702  1
  Ga  Ga7  1  0.58526497  0.58526500  0.75203704  1
  Ga  Ga8  1  0.58526499  0.07743300  0.75203702  1
  Ga  Ga9  1  0.66502997  0.66503000  0.00491004  1
  Ga  Ga10  1  0.33496998  0.33497000  0.99509002  1
  Ga  Ga11  1  0.49999998  0.50000000  0.50000003  1
