# generated using pymatgen
data_Dy8Co3Sn5
_symmetry_space_group_name_H-M   'P 1'
_cell_length_a   7.58245182
_cell_length_b   8.56053352
_cell_length_c   7.58245182
_cell_angle_alpha   116.28730774
_cell_angle_beta   90.00000000
_cell_angle_gamma   116.28730774
_symmetry_Int_Tables_number   1
_chemical_formula_structural   Dy8Co3Sn5
_chemical_formula_sum   'Dy8 Co3 Sn5'
_cell_volume   383.68487679
_cell_formula_units_Z   1
loop_
 _symmetry_equiv_pos_site_id
 _symmetry_equiv_pos_as_xyz
  1  'x, y, z'
loop_
 _atom_site_type_symbol
 _atom_site_label
 _atom_site_symmetry_multiplicity
 _atom_site_fract_x
 _atom_site_fract_y
 _atom_site_fract_z
 _atom_site_occupancy
  Dy  Dy0  1  0.48010300  0.27391700  0.98010301  1
  Dy  Dy1  1  0.98010301  0.27391700  0.79381400  1
  Dy  Dy2  1  0.29381399  0.27391700  0.48010300  1
  Dy  Dy3  1  0.01989696  0.72608299  0.20618597  1
  Dy  Dy4  1  0.79381400  0.27391700  0.29381399  1
  Dy  Dy5  1  0.51989697  0.72608299  0.01989696  1
  Dy  Dy6  1  0.20618597  0.72608299  0.70618598  1
  Dy  Dy7  1  0.70618598  0.72608299  0.51989697  1
  Sn  Sn8  1  0.00000000  0.00000000  0.00000000  1
  Sn  Sn9  1  0.50000001  0.00000000  0.50000001  1
  Co  Co10  1  0.63125001  0.00000000  0.86875002  1
  Co  Co11  1  0.13125000  0.00000000  0.63125001  1
  Co  Co12  1  0.36874995  0.99999999  0.13124995  1
  Sn  Sn13  1  0.86875002  0.00000000  0.36875001  1
  Sn  Sn14  1  0.24999998  0.49999999  0.24999998  1
  Sn  Sn15  1  0.74999999  0.49999999  0.74999999  1
