# generated using pymatgen
data_SrBiClO2
_symmetry_space_group_name_H-M   'P 1'
_cell_length_a   3.93069792
_cell_length_b   6.25812960
_cell_length_c   8.42014503
_cell_angle_alpha   89.84506989
_cell_angle_beta   90.00000000
_cell_angle_gamma   108.30331421
_symmetry_Int_Tables_number   1
_chemical_formula_structural   SrBiClO2
_chemical_formula_sum   'Sr2 Bi2 Cl2 O4'
_cell_volume   196.64576816
_cell_formula_units_Z   2
loop_
 _symmetry_equiv_pos_site_id
 _symmetry_equiv_pos_as_xyz
  1  'x, y, z'
loop_
 _atom_site_type_symbol
 _atom_site_label
 _atom_site_symmetry_multiplicity
 _atom_site_fract_x
 _atom_site_fract_y
 _atom_site_fract_z
 _atom_site_occupancy
  Sr  Sr0  1  0.72805603  0.45611200  0.69296202  1
  Sr  Sr1  1  0.27194403  0.54388800  0.30703802  1
  Bi  Bi2  1  0.00000000  0.00000000  0.50000001  1
  Bi  Bi3  1  0.50000001  0.00000000  0.00000000  1
  Cl  Cl4  1  0.85979305  0.71958600  0.02833402  1
  Cl  Cl5  1  0.14020701  0.28041400  0.97166602  1
  O  O6  1  0.54703002  0.09406000  0.30118501  1
  O  O7  1  0.45297005  0.90594000  0.69881503  1
  O  O8  1  0.83370105  0.66740200  0.44142502  1
  O  O9  1  0.16629902  0.33259800  0.55857502  1
