# generated using pymatgen
data_Dy10P6CN
_symmetry_space_group_name_H-M   'P 1'
_cell_length_a   6.28473377
_cell_length_b   8.39292049
_cell_length_c   8.39292049
_cell_angle_alpha   120.00000000
_cell_angle_beta   90.00000000
_cell_angle_gamma   90.00000000
_symmetry_Int_Tables_number   1
_chemical_formula_structural   Dy10P6CN
_chemical_formula_sum   'Dy10 P6 C1 N1'
_cell_volume   383.39260790
_cell_formula_units_Z   1
loop_
 _symmetry_equiv_pos_site_id
 _symmetry_equiv_pos_as_xyz
  1  'x, y, z'
loop_
 _atom_site_type_symbol
 _atom_site_label
 _atom_site_symmetry_multiplicity
 _atom_site_fract_x
 _atom_site_fract_y
 _atom_site_fract_z
 _atom_site_occupancy
  Dy  Dy0  1  -0.00000000  0.33333331  0.66666663  1
  Dy  Dy1  1  -0.00000000  0.66666663  0.33333331  1
  Dy  Dy2  1  0.50000002  0.66666663  0.33333331  1
  Dy  Dy3  1  0.50000002  0.33333331  0.66666663  1
  Dy  Dy4  1  0.25000001  0.22415899  -0.00000000  1
  Dy  Dy5  1  0.25000001  0.77584096  0.77584095  1
  Dy  Dy6  1  0.25000001  0.99999994  0.22415898  1
  Dy  Dy7  1  0.75000003  0.77584096  -0.00000001  1
  Dy  Dy8  1  0.75000003  0.22415899  0.22415899  1
  Dy  Dy9  1  0.75000003  0.99999994  0.77584095  1
  P  P10  1  0.25000001  0.59373497  -0.00000001  1
  P  P11  1  0.25000001  0.40626498  0.40626498  1
  P  P12  1  0.25000001  0.00000000  0.59373497  1
  P  P13  1  0.75000003  0.40626498  -0.00000000  1
  P  P14  1  0.75000003  0.59373497  0.59373496  1
  P  P15  1  0.75000003  0.99999994  0.40626497  1
  C  C16  1  0.00000000  0.00000000  0.00000000  1
  N  N17  1  0.50000002  0.00000000  -0.00000000  1
