# generated using pymatgen
data_La2ScSi2
_symmetry_space_group_name_H-M   'P 1'
_cell_length_a   4.41918898
_cell_length_b   7.39105320
_cell_length_c   7.39105320
_cell_angle_alpha   90.00000000
_cell_angle_beta   90.00000000
_cell_angle_gamma   90.00000000
_symmetry_Int_Tables_number   1
_chemical_formula_structural   La2ScSi2
_chemical_formula_sum   'La4 Sc2 Si4'
_cell_volume   241.40998558
_cell_formula_units_Z   2
loop_
 _symmetry_equiv_pos_site_id
 _symmetry_equiv_pos_as_xyz
  1  'x, y, z'
loop_
 _atom_site_type_symbol
 _atom_site_label
 _atom_site_symmetry_multiplicity
 _atom_site_fract_x
 _atom_site_fract_y
 _atom_site_fract_z
 _atom_site_occupancy
  La  La0  1  0.50000000  0.67768498  0.17768500  1
  La  La1  1  0.50000000  0.82231498  0.67768498  1
  La  La2  1  0.50000000  0.17768500  0.32231499  1
  La  La3  1  0.50000000  0.32231499  0.82231498  1
  Sc  Sc4  1  0.00000000  0.49999999  0.49999999  1
  Sc  Sc5  1  0.00000000  0.00000000  0.00000000  1
  Si  Si6  1  -0.00000000  0.61806898  0.88193098  1
  Si  Si7  1  0.00000000  0.88193098  0.38193099  1
  Si  Si8  1  1.00000001  0.11806900  0.61806898  1
  Si  Si9  1  0.00000000  0.38193099  0.11806900  1
