# generated using pymatgen
data_Ba3TlAg12
_symmetry_space_group_name_H-M   'P 1'
_cell_length_a   6.41493416
_cell_length_b   8.59957790
_cell_length_c   10.47264957
_cell_angle_alpha   90.00000000
_cell_angle_beta   90.00000000
_cell_angle_gamma   90.00000000
_symmetry_Int_Tables_number   1
_chemical_formula_structural   Ba3TlAg12
_chemical_formula_sum   'Ba3 Tl1 Ag12'
_cell_volume   577.73131735
_cell_formula_units_Z   1
loop_
 _symmetry_equiv_pos_site_id
 _symmetry_equiv_pos_as_xyz
  1  'x, y, z'
loop_
 _atom_site_type_symbol
 _atom_site_label
 _atom_site_symmetry_multiplicity
 _atom_site_fract_x
 _atom_site_fract_y
 _atom_site_fract_z
 _atom_site_occupancy
  Tl  Tl0  1  0.24999999  0.50000001  0.78616503  1
  Ba  Ba1  1  0.74999998  0.50000001  0.21383501  1
  Ba  Ba2  1  0.49999999  0.00000000  0.00000000  1
  Ba  Ba3  1  0.00000000  0.00000000  0.00000000  1
  Ag  Ag4  1  0.24999999  0.00000000  0.34035001  1
  Ag  Ag5  1  0.74999998  0.00000000  0.65965003  1
  Ag  Ag6  1  0.24999999  0.75504801  0.12225500  1
  Ag  Ag7  1  0.74999998  0.75504801  0.87774504  1
  Ag  Ag8  1  0.74999998  0.24495200  0.87774504  1
  Ag  Ag9  1  0.24999999  0.24495200  0.12225500  1
  Ag  Ag10  1  0.49999999  0.75865701  0.50000002  1
  Ag  Ag11  1  -0.00000000  0.75865701  0.50000002  1
  Ag  Ag12  1  0.49999999  0.24134300  0.50000002  1
  Ag  Ag13  1  0.00000000  0.24134300  0.50000002  1
  Ag  Ag14  1  0.24999999  0.00000000  0.76620803  1
  Ag  Ag15  1  0.74999998  0.00000000  0.23379201  1
