# generated using pymatgen
data_CeGaGeRu2
_symmetry_space_group_name_H-M   'P 1'
_cell_length_a   4.08615208
_cell_length_b   4.08615208
_cell_length_c   6.11386156
_cell_angle_alpha   109.52214050
_cell_angle_beta   109.52214050
_cell_angle_gamma   90.00000000
_symmetry_Int_Tables_number   1
_chemical_formula_structural   CeGaGeRu2
_chemical_formula_sum   'Ce1 Ga1 Ge1 Ru2'
_cell_volume   89.96217416
_cell_formula_units_Z   1
loop_
 _symmetry_equiv_pos_site_id
 _symmetry_equiv_pos_as_xyz
  1  'x, y, z'
loop_
 _atom_site_type_symbol
 _atom_site_label
 _atom_site_symmetry_multiplicity
 _atom_site_fract_x
 _atom_site_fract_y
 _atom_site_fract_z
 _atom_site_occupancy
  Ce  Ce0  1  0.00000000  0.00000000  0.00000000  1
  Ga  Ga1  1  0.61340597  0.61340598  0.22681198  1
  Ge  Ge2  1  0.38659398  0.38659399  0.77318800  1
  Ru  Ru3  1  0.74999997  0.24999999  0.49999999  1
  Ru  Ru4  1  0.24999998  0.74999998  0.49999999  1
