# generated using pymatgen
data_DyIn10Ni3
_symmetry_space_group_name_H-M   'P 1'
_cell_length_a   4.20423222
_cell_length_b   8.17359924
_cell_length_c   8.17359924
_cell_angle_alpha   74.44520569
_cell_angle_beta   75.09698486
_cell_angle_gamma   75.09698486
_symmetry_Int_Tables_number   1
_chemical_formula_structural   DyIn10Ni3
_chemical_formula_sum   'Dy1 In10 Ni3'
_cell_volume   256.08632206
_cell_formula_units_Z   1
loop_
 _symmetry_equiv_pos_site_id
 _symmetry_equiv_pos_as_xyz
  1  'x, y, z'
loop_
 _atom_site_type_symbol
 _atom_site_label
 _atom_site_symmetry_multiplicity
 _atom_site_fract_x
 _atom_site_fract_y
 _atom_site_fract_z
 _atom_site_occupancy
  Dy  Dy0  1  0.49999997  0.50000001  0.49999999  1
  In  In1  1  0.16806798  0.83193202  0.83193199  1
  In  In2  1  0.83193196  0.16806800  0.16806799  1
  In  In3  1  0.37470298  0.33989901  0.91069500  1
  In  In4  1  0.62529696  0.66010102  0.08930498  1
  In  In5  1  0.37470397  0.91069502  0.33989798  1
  In  In6  1  0.62529597  0.08930500  0.66010200  1
  In  In7  1  0.16794999  0.46053901  0.20356099  1
  In  In8  1  0.83204995  0.53946101  0.79643900  1
  In  In9  1  0.16794999  0.20356100  0.46053900  1
  In  In10  1  0.83204995  0.79643902  0.53946098  1
  Ni  Ni11  1  0.49999998  0.00000000  1.00000001  1
  Ni  Ni12  1  -0.00000001  0.78120802  0.21879199  1
  Ni  Ni13  1  -0.00000000  0.21879201  0.78120801  1
