# generated using pymatgen
data_Al7Ni5
_symmetry_space_group_name_H-M   'P 1'
_cell_length_a   3.97244501
_cell_length_b   5.50540018
_cell_length_c   7.44653082
_cell_angle_alpha   90.00000000
_cell_angle_beta   90.00000000
_cell_angle_gamma   90.00000000
_symmetry_Int_Tables_number   1
_chemical_formula_structural   Al7Ni5
_chemical_formula_sum   'Al7 Ni5'
_cell_volume   162.85488050
_cell_formula_units_Z   1
loop_
 _symmetry_equiv_pos_site_id
 _symmetry_equiv_pos_as_xyz
  1  'x, y, z'
loop_
 _atom_site_type_symbol
 _atom_site_label
 _atom_site_symmetry_multiplicity
 _atom_site_fract_x
 _atom_site_fract_y
 _atom_site_fract_z
 _atom_site_occupancy
  Al  Al0  1  0.25000000  0.27778899  0.89427402  1
  Al  Al1  1  0.75000000  0.72221098  0.10572600  1
  Al  Al2  1  0.25000000  0.77778897  0.60572601  1
  Al  Al3  1  0.75000000  0.22221099  0.39427401  1
  Al  Al4  1  0.75000000  0.52578198  0.80379602  1
  Ni  Ni5  1  0.25000000  0.47421798  0.19620400  1
  Al  Al6  1  0.75000000  0.02578200  0.69620402  1
  Al  Al7  1  0.25000000  0.97421797  0.30379601  1
  Ni  Ni8  1  0.25000000  0.84132697  0.92967802  1
  Ni  Ni9  1  0.75000000  0.15867299  0.07032200  1
  Ni  Ni10  1  0.25000000  0.34132699  0.57032201  1
  Ni  Ni11  1  0.75000000  0.65867298  0.42967801  1
