# generated using pymatgen
data_La(Fe2Ge)4
_symmetry_space_group_name_H-M   'P 1'
_cell_length_a   3.86506605
_cell_length_b   7.46811199
_cell_length_c   7.46811199
_cell_angle_alpha   86.16045380
_cell_angle_beta   75.00283051
_cell_angle_gamma   75.00283051
_symmetry_Int_Tables_number   1
_chemical_formula_structural   La(Fe2Ge)4
_chemical_formula_sum   'La1 Fe8 Ge4'
_cell_volume   201.13035347
_cell_formula_units_Z   1
loop_
 _symmetry_equiv_pos_site_id
 _symmetry_equiv_pos_as_xyz
  1  'x, y, z'
loop_
 _atom_site_type_symbol
 _atom_site_label
 _atom_site_symmetry_multiplicity
 _atom_site_fract_x
 _atom_site_fract_y
 _atom_site_fract_z
 _atom_site_occupancy
  La  La0  1  0.00000000  0.00000000  0.00000000  1
  Fe  Fe1  1  0.22903499  0.10957000  0.43236000  1
  Fe  Fe2  1  0.66139495  0.56764001  0.10956999  1
  Fe  Fe3  1  0.98635797  0.37927201  0.64801199  1
  Fe  Fe4  1  0.01364195  0.62072802  0.35198801  1
  Fe  Fe5  1  0.36562895  0.64801302  0.62072801  1
  Fe  Fe6  1  0.33860496  0.43236001  0.89043001  1
  Fe  Fe7  1  0.63437097  0.35198701  0.37927200  1
  Fe  Fe8  1  0.77096492  0.89043002  0.56764000  1
  Ge  Ge9  1  0.42484893  0.80879502  0.34150701  1
  Ge  Ge10  1  0.57515098  0.19120501  0.65849300  1
  Ge  Ge11  1  0.23364397  0.34150701  0.19120500  1
  Ge  Ge12  1  0.76635594  0.65849302  0.80879500  1
