# generated using pymatgen
data_SrLaTlCu4O9
_symmetry_space_group_name_H-M   'P 1'
_cell_length_a   3.81128454
_cell_length_b   3.81128454
_cell_length_c   15.02858639
_cell_angle_alpha   97.22341919
_cell_angle_beta   97.22341919
_cell_angle_gamma   90.48007965
_symmetry_Int_Tables_number   1
_chemical_formula_structural   SrLaTlCu4O9
_chemical_formula_sum   'Sr1 La1 Tl1 Cu4 O9'
_cell_volume   214.78725851
_cell_formula_units_Z   1
loop_
 _symmetry_equiv_pos_site_id
 _symmetry_equiv_pos_as_xyz
  1  'x, y, z'
loop_
 _atom_site_type_symbol
 _atom_site_label
 _atom_site_symmetry_multiplicity
 _atom_site_fract_x
 _atom_site_fract_y
 _atom_site_fract_z
 _atom_site_occupancy
  Sr  Sr0  1  0.59177404  0.57859300  0.17036701  1
  La  La1  1  0.42140703  0.40822600  0.82963300  1
  Cu  Cu2  1  0.70406504  0.70262500  0.40669001  1
  Tl  Tl3  1  0.29737502  0.29593500  0.59331000  1
  Cu  Cu4  1  0.04358405  0.95641601  0.00000001  1
  Cu  Cu5  1  0.15010001  0.14677800  0.29687800  1
  Cu  Cu6  1  0.85322205  0.84990001  0.70312201  1
  O  O7  1  0.65327901  0.14980900  0.30238600  1
  O  O8  1  0.15257604  0.64910700  0.30238500  1
  O  O9  1  0.35089305  0.84742401  0.69761400  1
  O  O10  1  0.85019102  0.34672100  0.69761500  1
  O  O11  1  0.22130701  0.22050500  0.44181200  1
  O  O12  1  0.77949505  0.77869300  0.55818801  1
  O  O13  1  0.47922903  0.52077100  0.00000001  1
  O  O14  1  0.07108300  0.07158000  0.14266300  1
  O  O15  1  0.92842006  0.92891701  0.85733700  1
