# generated using pymatgen
data_VH7F9
_symmetry_space_group_name_H-M   'P 1'
_cell_length_a   4.84069395
_cell_length_b   6.28643608
_cell_length_c   6.28643656
_cell_angle_alpha   60.00000381
_cell_angle_beta   90.00000000
_cell_angle_gamma   90.00000000
_symmetry_Int_Tables_number   1
_chemical_formula_structural   VH7F9
_chemical_formula_sum   'V1 H7 F9'
_cell_volume   165.67131335
_cell_formula_units_Z   1
loop_
 _symmetry_equiv_pos_site_id
 _symmetry_equiv_pos_as_xyz
  1  'x, y, z'
loop_
 _atom_site_type_symbol
 _atom_site_label
 _atom_site_symmetry_multiplicity
 _atom_site_fract_x
 _atom_site_fract_y
 _atom_site_fract_z
 _atom_site_occupancy
  V  V0  1  0.00000000  0.00000000  0.00000000  1
  H  H1  1  0.15323000  0.33333333  0.33333334  1
  H  H2  1  0.84677001  0.66666665  0.66666668  1
  H  H3  1  0.44252700  0.24466700  0.24466701  1
  H  H4  1  0.44252700  0.24466700  0.51066601  1
  H  H5  1  0.44252700  0.51066599  0.24466701  1
  H  H6  1  0.55747301  0.75533299  0.48933401  1
  H  H7  1  0.55747301  0.75533299  0.75533302  1
  F  F8  1  0.55747301  0.48933399  0.75533301  1
  F  F9  1  0.36512500  0.33333333  0.33333334  1
  F  F10  1  0.63487501  0.66666665  0.66666668  1
  F  F11  1  0.23273200  0.84751498  0.84751402  1
  F  F12  1  0.23273200  0.84751498  0.30497001  1
  F  F13  1  0.23273200  0.30497099  0.84751401  1
  F  F14  1  0.76726801  0.15248500  0.69503001  1
  F  F15  1  0.76726801  0.15248500  0.15248600  1
  F  F16  1  0.76726801  0.69502899  0.15248601  1
