# generated using pymatgen
data_CeBiO2
_symmetry_space_group_name_H-M   'P 1'
_cell_length_a   4.10862589
_cell_length_b   4.10862589
_cell_length_c   9.13010311
_cell_angle_alpha   90.00000000
_cell_angle_beta   90.00000000
_cell_angle_gamma   90.00000000
_symmetry_Int_Tables_number   1
_chemical_formula_structural   CeBiO2
_chemical_formula_sum   'Ce2 Bi2 O4'
_cell_volume   154.12350572
_cell_formula_units_Z   2
loop_
 _symmetry_equiv_pos_site_id
 _symmetry_equiv_pos_as_xyz
  1  'x, y, z'
loop_
 _atom_site_type_symbol
 _atom_site_label
 _atom_site_symmetry_multiplicity
 _atom_site_fract_x
 _atom_site_fract_y
 _atom_site_fract_z
 _atom_site_occupancy
  Ce  Ce0  1  -0.00000000  0.50000001  0.84394499  1
  Ce  Ce1  1  0.50000001  0.00000000  0.15605500  1
  Bi  Bi2  1  0.50000001  0.50000001  0.49999999  1
  Bi  Bi3  1  0.00000000  0.00000000  0.49999999  1
  O  O4  1  -0.00000000  0.50000001  0.30829300  1
  O  O5  1  0.50000001  0.00000000  0.69170699  1
  O  O6  1  0.50000001  0.50000001  -0.00000000  1
  O  O7  1  0.00000000  0.00000000  0.00000000  1
