# generated using pymatgen
data_SrWO3
_symmetry_space_group_name_H-M   'P 1'
_cell_length_a   5.64449787
_cell_length_b   5.64450645
_cell_length_c   9.74214268
_cell_angle_alpha   74.28632355
_cell_angle_beta   74.28639221
_cell_angle_gamma   60.71813583
_symmetry_Int_Tables_number   1
_chemical_formula_structural   SrWO3
_chemical_formula_sum   'Sr4 W4 O12'
_cell_volume   257.04752918
_cell_formula_units_Z   4
loop_
 _symmetry_equiv_pos_site_id
 _symmetry_equiv_pos_as_xyz
  1  'x, y, z'
loop_
 _atom_site_type_symbol
 _atom_site_label
 _atom_site_symmetry_multiplicity
 _atom_site_fract_x
 _atom_site_fract_y
 _atom_site_fract_z
 _atom_site_occupancy
  Sr  Sr0  1  0.37500298  0.37500401  0.87500904  1
  Sr  Sr1  1  0.87499895  0.87499902  0.37502804  1
  Sr  Sr2  1  0.62498397  0.62498402  0.12499602  1
  Sr  Sr3  1  0.12497999  0.12497900  0.62501203  1
  W  W4  1  0.50069797  0.50069801  0.49937403  1
  W  W5  1  0.00068700  0.00068600  0.99934703  1
  W  W6  1  0.74967596  0.74967602  0.75033005  1
  W  W7  1  0.24967899  0.24967901  0.25032702  1
  O  O8  1  0.87203095  0.87203402  0.87207906  1
  O  O9  1  0.37203498  0.37203401  0.37209002  1
  O  O10  1  0.12792499  0.12792600  0.12791701  1
  O  O11  1  0.62792897  0.62792702  0.62793204  1
  O  O12  1  0.62589899  0.12470900  0.12469301  1
  O  O13  1  0.12588697  0.62471402  0.62470104  1
  O  O14  1  0.87389597  0.37518601  0.37544403  1
  O  O15  1  0.37389996  0.87518302  0.87544205  1
  O  O16  1  0.12470797  0.62589902  0.12469302  1
  O  O17  1  0.62471399  0.12588800  0.62470103  1
  O  O18  1  0.37518596  0.87389602  0.37544404  1
  O  O19  1  0.87518297  0.37389901  0.87544105  1
