# generated using pymatgen
data_Dy(CoGe)2
_symmetry_space_group_name_H-M   'P 1'
_cell_length_a   3.97711802
_cell_length_b   3.97711802
_cell_length_c   5.81413460
_cell_angle_alpha   110.00008392
_cell_angle_beta   110.00008392
_cell_angle_gamma   90.00000000
_symmetry_Int_Tables_number   1
_chemical_formula_structural   Dy(CoGe)2
_chemical_formula_sum   'Dy1 Co2 Ge2'
_cell_volume   80.49121583
_cell_formula_units_Z   1
loop_
 _symmetry_equiv_pos_site_id
 _symmetry_equiv_pos_as_xyz
  1  'x, y, z'
loop_
 _atom_site_type_symbol
 _atom_site_label
 _atom_site_symmetry_multiplicity
 _atom_site_fract_x
 _atom_site_fract_y
 _atom_site_fract_z
 _atom_site_occupancy
  Dy  Dy0  1  0.00000000  0.00000000  0.00000000  1
  Co  Co1  1  0.75000001  0.25000000  0.50000002  1
  Co  Co2  1  0.25000002  0.75000001  0.50000003  1
  Ge  Ge3  1  0.62780202  0.62780201  0.25560403  1
  Ge  Ge4  1  0.37219801  0.37219800  0.74439602  1
