# generated using pymatgen
data_Dy5Al4Si2Mo7
_symmetry_space_group_name_H-M   'P 1'
_cell_length_a   6.70175505
_cell_length_b   6.89154196
_cell_length_c   6.82772446
_cell_angle_alpha   90.00000000
_cell_angle_beta   71.05633545
_cell_angle_gamma   90.00000000
_symmetry_Int_Tables_number   1
_chemical_formula_structural   Dy5Al4Si2Mo7
_chemical_formula_sum   'Dy5 Al4 Si2 Mo7'
_cell_volume   298.26191686
_cell_formula_units_Z   1
loop_
 _symmetry_equiv_pos_site_id
 _symmetry_equiv_pos_as_xyz
  1  'x, y, z'
loop_
 _atom_site_type_symbol
 _atom_site_label
 _atom_site_symmetry_multiplicity
 _atom_site_fract_x
 _atom_site_fract_y
 _atom_site_fract_z
 _atom_site_occupancy
  Dy  Dy0  1  0.43862000  0.67007600  0.19088400  1
  Dy  Dy1  1  0.06138000  0.17007600  0.80911602  1
  Dy  Dy2  1  0.56138000  0.32992400  0.80911601  1
  Dy  Dy3  1  0.93862000  0.82992401  0.19088399  1
  Dy  Dy4  1  0.13385400  0.45735500  0.08936900  1
  Al  Al5  1  0.36614600  0.95735501  0.91063102  1
  Al  Al6  1  0.86614600  0.54264500  0.91063101  1
  Al  Al7  1  0.63385400  0.04264500  0.08936899  1
  Si  Si8  1  0.12853500  0.86845201  0.50343701  1
  Al  Al9  1  0.37146500  0.36845200  0.49656301  1
  Mo  Mo10  1  0.87146500  0.13154800  0.49656300  1
  Si  Si11  1  0.62853500  0.63154800  0.50343700  1
  Mo  Mo12  1  0.00000000  0.50000000  0.50000001  1
  Mo  Mo13  1  0.50000000  0.00000000  0.50000000  1
  Mo  Mo14  1  0.25108100  0.16323500  0.24745800  1
  Mo  Mo15  1  0.24891900  0.66323500  0.75254201  1
  Mo  Mo16  1  0.74891900  0.83676501  0.75254201  1
  Mo  Mo17  1  0.75108100  0.33676500  0.24745799  1
