# generated using pymatgen
data_Li3Ni2O5
_symmetry_space_group_name_H-M   'P 1'
_cell_length_a   5.20630932
_cell_length_b   5.23841476
_cell_length_c   7.62885952
_cell_angle_alpha   69.92057800
_cell_angle_beta   82.51593781
_cell_angle_gamma   67.70925903
_symmetry_Int_Tables_number   1
_chemical_formula_structural   Li3Ni2O5
_chemical_formula_sum   'Li6 Ni4 O10'
_cell_volume   180.81092173
_cell_formula_units_Z   2
loop_
 _symmetry_equiv_pos_site_id
 _symmetry_equiv_pos_as_xyz
  1  'x, y, z'
loop_
 _atom_site_type_symbol
 _atom_site_label
 _atom_site_symmetry_multiplicity
 _atom_site_fract_x
 _atom_site_fract_y
 _atom_site_fract_z
 _atom_site_occupancy
  Li  Li0  1  0.49999699  0.90000400  0.19999800  1
  Li  Li1  1  0.99999798  0.39999500  0.20001098  1
  Li  Li2  1  0.49998899  0.09731900  0.80533097  1
  Li  Li3  1  0.50000899  0.70271700  0.59460398  1
  Li  Li4  1  0.49999899  0.30304000  0.39394798  1
  Li  Li5  1  0.49999899  0.49696700  0.00604300  1
  Ni  Ni6  1  0.99997798  0.80081900  0.39840898  1
  Ni  Ni7  1  0.00001700  0.20102600  0.59791899  1
  Ni  Ni8  1  0.00001900  0.99916001  0.00162702  1
  Ni  Ni9  1  0.00000800  0.59894200  0.80212499  1
  O  O10  1  0.76462299  0.11976100  0.19997798  1
  O  O11  1  0.23537300  0.68025800  0.19998500  1
  O  O12  1  0.76474299  0.32152200  0.80614097  1
  O  O13  1  0.76470399  0.92770501  0.59387798  1
  O  O14  1  0.23530100  0.87227200  0.80612999  1
  O  O15  1  0.23525000  0.47849400  0.59386699  1
  O  O16  1  0.78728499  0.55499700  0.40986898  1
  O  O17  1  0.78731299  0.76481000  0.99015197  1
  O  O18  1  0.21266800  0.03520500  0.40985198  1
  O  O19  1  0.21272700  0.24498700  0.99013397  1
