# generated using pymatgen
data_NdCdPd
_symmetry_space_group_name_H-M   'P 1'
_cell_length_a   4.17851877
_cell_length_b   7.67590189
_cell_length_c   7.67590094
_cell_angle_alpha   120.00000763
_cell_angle_beta   90.00000000
_cell_angle_gamma   90.00000000
_symmetry_Int_Tables_number   1
_chemical_formula_structural   NdCdPd
_chemical_formula_sum   'Nd3 Cd3 Pd3'
_cell_volume   213.21204329
_cell_formula_units_Z   3
loop_
 _symmetry_equiv_pos_site_id
 _symmetry_equiv_pos_as_xyz
  1  'x, y, z'
loop_
 _atom_site_type_symbol
 _atom_site_label
 _atom_site_symmetry_multiplicity
 _atom_site_fract_x
 _atom_site_fract_y
 _atom_site_fract_z
 _atom_site_occupancy
  Nd  Nd0  1  -0.00000000  0.41067602  0.00000003  1
  Nd  Nd1  1  -0.00000000  0.58932403  0.58932405  1
  Nd  Nd2  1  0.00000000  0.00000000  0.41067600  1
  Cd  Cd3  1  0.50000003  1.00000005  0.74762208  1
  Cd  Cd4  1  0.50000003  0.74762204  0.00000005  1
  Cd  Cd5  1  0.50000003  0.25237801  0.25237802  1
  Pd  Pd6  1  0.50000003  0.33333335  0.66666670  1
  Pd  Pd7  1  0.00000000  0.00000000  0.00000000  1
  Pd  Pd8  1  0.50000003  0.66666670  0.33333338  1
