# generated using pymatgen
data_Ce2Sn7
_symmetry_space_group_name_H-M   'P 1'
_cell_length_a   4.86093187
_cell_length_b   4.86093140
_cell_length_c   11.04473877
_cell_angle_alpha   90.00000000
_cell_angle_beta   90.00000000
_cell_angle_gamma   120.00000000
_symmetry_Int_Tables_number   1
_chemical_formula_structural   Ce2Sn7
_chemical_formula_sum   'Ce2 Sn7'
_cell_volume   226.00867349
_cell_formula_units_Z   1
loop_
 _symmetry_equiv_pos_site_id
 _symmetry_equiv_pos_as_xyz
  1  'x, y, z'
loop_
 _atom_site_type_symbol
 _atom_site_label
 _atom_site_symmetry_multiplicity
 _atom_site_fract_x
 _atom_site_fract_y
 _atom_site_fract_z
 _atom_site_occupancy
  Ce  Ce0  1  0.00000000  0.00000000  0.17207500  1
  Ce  Ce1  1  0.00000000  0.00000000  0.50442601  1
  Sn  Sn2  1  0.00000000  0.00000000  0.83684102  1
  Sn  Sn3  1  0.33333329  0.66666665  0.01166100  1
  Sn  Sn4  1  0.66666666  0.33333333  0.31678801  1
  Sn  Sn5  1  0.66666666  0.33333333  0.69499201  1
  Sn  Sn6  1  0.33333329  0.66666665  0.35562301  1
  Sn  Sn7  1  0.33333329  0.66666665  0.65003701  1
  Sn  Sn8  1  0.66666666  0.33333333  0.00155800  1
