# generated using pymatgen
data_Dy2Co17
_symmetry_space_group_name_H-M   'P 1'
_cell_length_a   6.43143082
_cell_length_b   6.43143177
_cell_length_c   6.43143082
_cell_angle_alpha   81.84911346
_cell_angle_beta   81.84911346
_cell_angle_gamma   81.84912109
_symmetry_Int_Tables_number   1
_chemical_formula_structural   Dy2Co17
_chemical_formula_sum   'Dy2 Co17'
_cell_volume   258.66014752
_cell_formula_units_Z   1
loop_
 _symmetry_equiv_pos_site_id
 _symmetry_equiv_pos_as_xyz
  1  'x, y, z'
loop_
 _atom_site_type_symbol
 _atom_site_label
 _atom_site_symmetry_multiplicity
 _atom_site_fract_x
 _atom_site_fract_y
 _atom_site_fract_z
 _atom_site_occupancy
  Dy  Dy0  1  0.34175403  0.34175399  0.34175397  1
  Dy  Dy1  1  0.65824606  0.65824598  0.65824594  1
  Co  Co2  1  0.65786406  0.65786398  0.15631495  1
  Co  Co3  1  0.15631505  0.65786398  0.65786396  1
  Co  Co4  1  0.90478208  0.90478197  0.90478192  1
  Co  Co5  1  0.09521801  0.09521800  0.09521799  1
  Co  Co6  1  0.00000000  0.00000000  0.49999999  1
  Co  Co7  1  0.00000004  0.49999998  -0.00000002  1
  Co  Co8  1  0.50000008  0.99999997  -0.00000006  1
  Co  Co9  1  0.29588206  0.70411798  -0.00000004  1
  Co  Co10  1  0.70411808  0.99999997  0.29588193  1
  Co  Co11  1  0.00000002  0.29588199  0.70411798  1
  Co  Co12  1  0.70411803  0.29588199  0.99999995  1
  Co  Co13  1  0.29588208  0.99999997  0.70411794  1
  Co  Co14  1  0.00000005  0.70411798  0.29588197  1
  Co  Co15  1  0.84368503  0.34213599  0.34213596  1
  Co  Co16  1  0.34213603  0.34213599  0.84368496  1
  Co  Co17  1  0.34213607  0.84368497  0.34213595  1
  Co  Co18  1  0.65786402  0.15631499  0.65786396  1
