# generated using pymatgen
data_Mg2Zn7
_symmetry_space_group_name_H-M   'P 1'
_cell_length_a   4.77484417
_cell_length_b   4.77484465
_cell_length_c   8.97549725
_cell_angle_alpha   90.00000000
_cell_angle_beta   90.00000000
_cell_angle_gamma   119.99999237
_symmetry_Int_Tables_number   1
_chemical_formula_structural   Mg2Zn7
_chemical_formula_sum   'Mg2 Zn7'
_cell_volume   177.21791869
_cell_formula_units_Z   1
loop_
 _symmetry_equiv_pos_site_id
 _symmetry_equiv_pos_as_xyz
  1  'x, y, z'
loop_
 _atom_site_type_symbol
 _atom_site_label
 _atom_site_symmetry_multiplicity
 _atom_site_fract_x
 _atom_site_fract_y
 _atom_site_fract_z
 _atom_site_occupancy
  Mg  Mg0  1  0.33333328  0.66666665  0.61741098  1
  Mg  Mg1  1  0.66666662  0.33333333  0.38258899  1
  Zn  Zn2  1  0.00000000  0.00000000  0.49999999  1
  Zn  Zn3  1  0.33333328  0.66666665  0.95166997  1
  Zn  Zn4  1  0.66666662  0.33333333  0.04833000  1
  Zn  Zn5  1  0.00000000  0.00000000  0.16500600  1
  Zn  Zn6  1  0.00000000  0.00000000  0.83499398  1
  Zn  Zn7  1  0.33333328  0.66666665  0.29713399  1
  Zn  Zn8  1  0.66666662  0.33333333  0.70286598  1
