# generated using pymatgen
data_La2InAg
_symmetry_space_group_name_H-M   'P 1'
_cell_length_a   4.44462013
_cell_length_b   4.44462013
_cell_length_c   6.26485968
_cell_angle_alpha   110.77666473
_cell_angle_beta   110.77666473
_cell_angle_gamma   90.00000000
_symmetry_Int_Tables_number   1
_chemical_formula_structural   La2InAg
_chemical_formula_sum   'La2 In1 Ag1'
_cell_volume   107.06061484
_cell_formula_units_Z   1
loop_
 _symmetry_equiv_pos_site_id
 _symmetry_equiv_pos_as_xyz
  1  'x, y, z'
loop_
 _atom_site_type_symbol
 _atom_site_label
 _atom_site_symmetry_multiplicity
 _atom_site_fract_x
 _atom_site_fract_y
 _atom_site_fract_z
 _atom_site_occupancy
  La  La0  1  0.00000000  0.00000000  0.00000000  1
  La  La1  1  0.49999997  0.49999998  -0.00000002  1
  In  In2  1  0.24999997  0.74999997  0.49999997  1
  Ag  Ag3  1  0.74999996  0.24999999  0.49999998  1
