# generated using pymatgen
data_Li8BiO11
_symmetry_space_group_name_H-M   'P 1'
_cell_length_a   5.50293398
_cell_length_b   6.58202887
_cell_length_c   6.89488649
_cell_angle_alpha   83.31857300
_cell_angle_beta   83.66283417
_cell_angle_gamma   83.84485626
_symmetry_Int_Tables_number   1
_chemical_formula_structural   Li8BiO11
_chemical_formula_sum   'Li8 Bi1 O11'
_cell_volume   245.39498170
_cell_formula_units_Z   1
loop_
 _symmetry_equiv_pos_site_id
 _symmetry_equiv_pos_as_xyz
  1  'x, y, z'
loop_
 _atom_site_type_symbol
 _atom_site_label
 _atom_site_symmetry_multiplicity
 _atom_site_fract_x
 _atom_site_fract_y
 _atom_site_fract_z
 _atom_site_occupancy
  Li  Li0  1  0.79765903  0.69492902  0.40892698  1
  Li  Li1  1  0.69983801  0.12262300  0.76718801  1
  Li  Li2  1  0.30016203  0.87737702  0.23281197  1
  Li  Li3  1  0.20234101  0.30507101  0.59107300  1
  Li  Li4  1  0.74633502  0.59812302  0.91070999  1
  Li  Li5  1  0.24747303  0.79454902  0.71771498  1
  Li  Li6  1  0.75252701  0.20545101  0.28228500  1
  Li  Li7  1  0.25366502  0.40187701  0.08928999  1
  Bi  Bi8  1  0.38229403  0.69287402  0.02034998  1
  O  O9  1  0.88850904  0.87152302  0.84789098  1
  O  O10  1  0.11284702  0.48199801  0.81602899  1
  O  O11  1  0.60140103  0.64037102  0.65387099  1
  O  O12  1  0.61871504  0.93030302  0.28834797  1
  O  O13  1  0.88516501  0.24037501  0.54026600  1
  O  O14  1  0.11483503  0.75962502  0.45973398  1
  O  O15  1  0.38128500  0.06969700  0.71165201  1
  O  O16  1  0.39859901  0.35962901  0.34612899  1
  O  O17  1  0.88715302  0.51800201  0.18397099  1
  O  O18  1  0.11149101  0.12847700  0.15210900  1
  O  O19  1  0.61770601  0.30712601  0.97965001  1
