# generated using pymatgen
data_Ag2S3
_symmetry_space_group_name_H-M   'P 1'
_cell_length_a   3.94832206
_cell_length_b   9.74261093
_cell_length_c   12.71390915
_cell_angle_alpha   90.00000000
_cell_angle_beta   90.00000000
_cell_angle_gamma   90.00000000
_symmetry_Int_Tables_number   1
_chemical_formula_structural   Ag2S3
_chemical_formula_sum   'Ag8 S12'
_cell_volume   489.06550639
_cell_formula_units_Z   4
loop_
 _symmetry_equiv_pos_site_id
 _symmetry_equiv_pos_as_xyz
  1  'x, y, z'
loop_
 _atom_site_type_symbol
 _atom_site_label
 _atom_site_symmetry_multiplicity
 _atom_site_fract_x
 _atom_site_fract_y
 _atom_site_fract_z
 _atom_site_occupancy
  Ag  Ag0  1  0.74999999  0.50042400  0.76933899  1
  Ag  Ag1  1  0.25000000  0.99957601  0.26933900  1
  Ag  Ag2  1  0.25000000  0.49957600  0.23066100  1
  Ag  Ag3  1  0.74999999  0.00042400  0.73066099  1
  Ag  Ag4  1  0.74999999  0.31679300  0.46728999  1
  Ag  Ag5  1  0.74999999  0.81679301  0.03271000  1
  Ag  Ag6  1  0.25000000  0.68320700  0.53270999  1
  Ag  Ag7  1  0.25000000  0.18320700  0.96728999  1
  S  S8  1  0.74999999  0.74035501  0.66597699  1
  S  S9  1  0.74999999  0.55173600  0.38948500  1
  S  S10  1  0.25000000  0.94826401  0.88948499  1
  S  S11  1  0.74999999  0.05173600  0.11051500  1
  S  S12  1  0.25000000  0.25964500  0.33402300  1
  S  S13  1  0.25000000  0.44826400  0.61051499  1
  S  S14  1  0.25000000  0.75964501  0.16597700  1
  S  S15  1  0.74999999  0.24035500  0.83402299  1
  S  S16  1  0.25000000  0.57281000  0.89378699  1
  S  S17  1  0.25000000  0.07281000  0.60621299  1
  S  S18  1  0.74999999  0.92719001  0.39378700  1
  S  S19  1  0.74999999  0.42719000  0.10621300  1
