# generated using pymatgen
data_Tl4HgTe2I13
_symmetry_space_group_name_H-M   'P 1'
_cell_length_a   10.93400764
_cell_length_b   11.07363319
_cell_length_c   11.37309647
_cell_angle_alpha   93.65627289
_cell_angle_beta   110.77201080
_cell_angle_gamma   100.66255188
_symmetry_Int_Tables_number   1
_chemical_formula_structural   Tl4HgTe2I13
_chemical_formula_sum   'Tl4 Hg1 Te2 I13'
_cell_volume   1252.69756105
_cell_formula_units_Z   1
loop_
 _symmetry_equiv_pos_site_id
 _symmetry_equiv_pos_as_xyz
  1  'x, y, z'
loop_
 _atom_site_type_symbol
 _atom_site_label
 _atom_site_symmetry_multiplicity
 _atom_site_fract_x
 _atom_site_fract_y
 _atom_site_fract_z
 _atom_site_occupancy
  Tl  Tl0  1  0.73145010  0.89701399  0.06623703  1
  Tl  Tl1  1  0.26855002  0.10298600  0.93376297  1
  Tl  Tl2  1  0.74643206  0.37380500  0.75461100  1
  Tl  Tl3  1  0.25356806  0.62619499  0.24538901  1
  Te  Te4  1  0.74204209  0.79988599  0.61110601  1
  Hg  Hg5  1  0.76851207  0.42372600  0.23165302  1
  Te  Te6  1  0.25795803  0.20011400  0.38889400  1
  I  I7  1  0.23148805  0.57627399  0.76834698  1
  I  I8  1  0.54117307  0.65890799  0.67433100  1
  I  I9  1  0.06919503  0.33734100  0.39396599  1
  I  I10  1  0.45882705  0.34109200  0.32566901  1
  I  I11  1  0.93080509  0.66265899  0.60603402  1
  I  I12  1  0.12854604  0.39397800  0.92462797  1
  I  I13  1  0.38018003  0.13191300  0.62464599  1
  I  I14  1  0.87145409  0.60602199  0.07537204  1
  I  I15  1  0.61982009  0.86808699  0.37535402  1
  I  I16  1  0.86457104  0.01125800  0.78995400  1
  I  I17  1  0.64315105  0.21179800  0.00547403  1
  I  I18  1  0.13542908  0.98874199  0.21004601  1
  I  I19  1  0.35684908  0.78820199  0.99452598  1
