# generated using pymatgen
data_Sr3Ca(B2O5)2
_symmetry_space_group_name_H-M   'P 1'
_cell_length_a   5.59760618
_cell_length_b   5.59760618
_cell_length_c   7.68543291
_cell_angle_alpha   90.00000000
_cell_angle_beta   90.00000000
_cell_angle_gamma   90.00000000
_symmetry_Int_Tables_number   1
_chemical_formula_structural   Sr3Ca(B2O5)2
_chemical_formula_sum   'Sr3 Ca1 B4 O10'
_cell_volume   240.80916783
_cell_formula_units_Z   1
loop_
 _symmetry_equiv_pos_site_id
 _symmetry_equiv_pos_as_xyz
  1  'x, y, z'
loop_
 _atom_site_type_symbol
 _atom_site_label
 _atom_site_symmetry_multiplicity
 _atom_site_fract_x
 _atom_site_fract_y
 _atom_site_fract_z
 _atom_site_occupancy
  Sr  Sr0  1  0.49999998  0.49999998  0.49591401  1
  Sr  Sr1  1  0.00000000  0.00000000  0.49591401  1
  Sr  Sr2  1  0.49999998  0.49999998  0.99000701  1
  Ca  Ca3  1  0.00000000  0.00000000  0.99000701  1
  B  B4  1  0.00000000  0.49999998  0.76312401  1
  B  B5  1  0.49999998  0.00000000  0.76312401  1
  B  B6  1  0.00000000  0.49999998  0.25464100  1
  B  B7  1  0.49999998  0.00000000  0.25464100  1
  O  O8  1  0.84595397  0.34595399  0.16740400  1
  O  O9  1  0.65404598  0.84595397  0.16740400  1
  O  O10  1  0.34595399  0.15404599  0.16740400  1
  O  O11  1  0.15404599  0.65404598  0.16740400  1
  O  O12  1  0.25186399  0.75186398  0.78011701  1
  O  O13  1  0.24813599  0.25186399  0.78011701  1
  O  O14  1  0.75186398  0.74813598  0.78011701  1
  O  O15  1  0.74813598  0.24813599  0.78011701  1
  O  O16  1  0.49999998  0.00000000  0.43627201  1
  O  O17  1  0.00000000  0.49999998  0.43627201  1
