# generated using pymatgen
data_Tl2TeSe2
_symmetry_space_group_name_H-M   'P 1'
_cell_length_a   7.20690298
_cell_length_b   7.20690298
_cell_length_c   7.65355492
_cell_angle_alpha   87.47129059
_cell_angle_beta   87.47129059
_cell_angle_gamma   76.15618896
_symmetry_Int_Tables_number   1
_chemical_formula_structural   Tl2TeSe2
_chemical_formula_sum   'Tl4 Te2 Se4'
_cell_volume   385.36733707
_cell_formula_units_Z   2
loop_
 _symmetry_equiv_pos_site_id
 _symmetry_equiv_pos_as_xyz
  1  'x, y, z'
loop_
 _atom_site_type_symbol
 _atom_site_label
 _atom_site_symmetry_multiplicity
 _atom_site_fract_x
 _atom_site_fract_y
 _atom_site_fract_z
 _atom_site_occupancy
  Tl  Tl0  1  0.19595800  0.19595800  0.55775299  1
  Tl  Tl1  1  0.80404199  0.80404199  0.44224693  1
  Tl  Tl2  1  0.44973199  0.83156599  0.65121595  1
  Tl  Tl3  1  0.16843400  0.55026799  0.34878397  1
  Se  Se4  1  0.05014600  0.05014600  0.26801100  1
  Te  Te5  1  0.94985399  0.94985399  0.73198892  1
  Te  Te6  1  0.67718299  0.67718299  0.16082693  1
  Se  Se7  1  0.32281700  0.32281700  0.83917299  1
  Se  Se8  1  0.83156599  0.44973199  0.65121595  1
  Se  Se9  1  0.55026799  0.16843400  0.34878397  1
