# generated using pymatgen
data_DyInNi
_symmetry_space_group_name_H-M   'P 1'
_cell_length_a   4.03301620
_cell_length_b   7.04090595
_cell_length_c   7.04090643
_cell_angle_alpha   120.00000000
_cell_angle_beta   90.00000000
_cell_angle_gamma   90.00000000
_symmetry_Int_Tables_number   1
_chemical_formula_structural   DyInNi
_chemical_formula_sum   'Dy3 In3 Ni3'
_cell_volume   173.14809384
_cell_formula_units_Z   3
loop_
 _symmetry_equiv_pos_site_id
 _symmetry_equiv_pos_as_xyz
  1  'x, y, z'
loop_
 _atom_site_type_symbol
 _atom_site_label
 _atom_site_symmetry_multiplicity
 _atom_site_fract_x
 _atom_site_fract_y
 _atom_site_fract_z
 _atom_site_occupancy
  Dy  Dy0  1  0.49999997  0.00000000  0.41801700  1
  Dy  Dy1  1  0.49999997  0.41801701  0.00000002  1
  Dy  Dy2  1  0.49999997  0.58198302  0.58198303  1
  In  In3  1  -0.00000000  1.00000003  0.76334205  1
  In  In4  1  -0.00000000  0.76334202  0.00000003  1
  In  In5  1  -0.00000000  0.23665801  0.23665801  1
  Ni  Ni6  1  -0.00000000  0.66666669  0.33333336  1
  Ni  Ni7  1  -0.00000000  0.33333334  0.66666669  1
  Ni  Ni8  1  0.49999997  0.00000000  -0.00000000  1
