# generated using pymatgen
data_Cs6NO2F9
_symmetry_space_group_name_H-M   'P 1'
_cell_length_a   6.93276978
_cell_length_b   8.38332558
_cell_length_c   9.79974079
_cell_angle_alpha   90.70927429
_cell_angle_beta   90.00000000
_cell_angle_gamma   90.00000000
_symmetry_Int_Tables_number   1
_chemical_formula_structural   Cs6NO2F9
_chemical_formula_sum   'Cs6 N1 O2 F9'
_cell_volume   569.51402334
_cell_formula_units_Z   1
loop_
 _symmetry_equiv_pos_site_id
 _symmetry_equiv_pos_as_xyz
  1  'x, y, z'
loop_
 _atom_site_type_symbol
 _atom_site_label
 _atom_site_symmetry_multiplicity
 _atom_site_fract_x
 _atom_site_fract_y
 _atom_site_fract_z
 _atom_site_occupancy
  Cs  Cs0  1  0.50000002  0.50000002  -0.00000002  1
  Cs  Cs1  1  0.00000000  0.00000000  0.00000000  1
  Cs  Cs2  1  0.04152300  0.62128103  0.28256498  1
  Cs  Cs3  1  0.54152302  0.87871904  0.71743497  1
  Cs  Cs4  1  0.95847703  0.37871902  0.71743499  1
  Cs  Cs5  1  0.45847701  0.12128101  0.28256500  1
  N  N6  1  0.34387401  0.83244204  0.44332497  1
  O  O7  1  0.84387403  0.66755803  0.55667498  1
  F  F8  1  0.65612602  0.16755801  0.55667500  1
  O  O9  1  0.15612601  0.33244202  0.44332499  1
  F  F10  1  0.29599601  0.85478604  0.06541797  1
  F  F11  1  0.79599603  0.64521403  0.93458198  1
  F  F12  1  0.62658602  0.47269302  0.23557898  1
  F  F13  1  0.12658600  0.02730700  0.76442101  1
  F  F14  1  0.37341401  0.52730703  0.76442099  1
  F  F15  1  0.87341403  0.97269305  0.23557897  1
  F  F16  1  0.20400401  0.35478602  0.06541799  1
  F  F17  1  0.70400402  0.14521401  0.93458200  1
