# generated using pymatgen
data_VOF
_symmetry_space_group_name_H-M   'P 1'
_cell_length_a   2.85572410
_cell_length_b   5.11111307
_cell_length_c   8.30677891
_cell_angle_alpha   82.55342865
_cell_angle_beta   80.10220337
_cell_angle_gamma   73.77774048
_symmetry_Int_Tables_number   1
_chemical_formula_structural   VOF
_chemical_formula_sum   'V4 O4 F4'
_cell_volume   114.25768455
_cell_formula_units_Z   4
loop_
 _symmetry_equiv_pos_site_id
 _symmetry_equiv_pos_as_xyz
  1  'x, y, z'
loop_
 _atom_site_type_symbol
 _atom_site_label
 _atom_site_symmetry_multiplicity
 _atom_site_fract_x
 _atom_site_fract_y
 _atom_site_fract_z
 _atom_site_occupancy
  V  V0  1  0.33366904  0.48826097  0.84440104  1
  V  V1  1  0.00000005  0.49999997  0.50000003  1
  V  V2  1  0.66633103  0.51173897  0.15559900  1
  V  V3  1  0.66941608  0.98835195  0.67281603  1
  O  O4  1  0.33058399  0.01164800  0.32718401  1
  O  O5  1  0.00000000  0.00000000  0.00000000  1
  O  O6  1  0.35011301  0.23141999  0.06835400  1
  O  O7  1  0.01584602  0.21761599  0.75069204  1
  F  F8  1  0.67700701  0.23884299  0.40714301  1
  F  F9  1  0.32299307  0.76115696  0.59285703  1
  F  F10  1  0.98415405  0.78238396  0.24930800  1
  F  F11  1  0.64988706  0.76857996  0.93164604  1
