# generated using pymatgen
data_CsScBiF9
_symmetry_space_group_name_H-M   'P 1'
_cell_length_a   7.20784187
_cell_length_b   7.20784187
_cell_length_c   7.20784187
_cell_angle_alpha   60.00000000
_cell_angle_beta   60.00000000
_cell_angle_gamma   60.00000000
_symmetry_Int_Tables_number   1
_chemical_formula_structural   CsScBiF9
_chemical_formula_sum   'Cs1 Sc1 Bi1 F9'
_cell_volume   264.78949633
_cell_formula_units_Z   1
loop_
 _symmetry_equiv_pos_site_id
 _symmetry_equiv_pos_as_xyz
  1  'x, y, z'
loop_
 _atom_site_type_symbol
 _atom_site_label
 _atom_site_symmetry_multiplicity
 _atom_site_fract_x
 _atom_site_fract_y
 _atom_site_fract_z
 _atom_site_occupancy
  Sc  Sc0  1  0.45717601  0.84760802  0.84760802  1
  Cs  Cs1  1  0.84760802  0.84760802  0.45717601  1
  Bi  Bi2  1  0.84760802  0.45717601  0.84760802  1
  F  F3  1  0.84760802  0.84760802  0.84760802  1
  F  F4  1  0.12220900  0.12220900  0.12220900  1
  F  F5  1  0.12220900  0.63337302  0.12220900  1
  F  F6  1  0.12220900  0.12220900  0.63337302  1
  F  F7  1  0.63337302  0.12220900  0.12220900  1
  F  F8  1  0.13569200  0.62143602  0.62143602  1
  F  F9  1  0.62143702  0.62143602  0.13569100  1
  F  F10  1  0.62143702  0.13569100  0.62143602  1
  F  F11  1  0.62143702  0.62143602  0.62143602  1
