# generated using pymatgen
data_Fe3NiAs2
_symmetry_space_group_name_H-M   'P 1'
_cell_length_a   3.00104308
_cell_length_b   5.31028175
_cell_length_c   6.10350561
_cell_angle_alpha   92.04016876
_cell_angle_beta   90.00000000
_cell_angle_gamma   90.00000000
_symmetry_Int_Tables_number   1
_chemical_formula_structural   Fe3NiAs2
_chemical_formula_sum   'Fe3 Ni1 As2'
_cell_volume   97.20615441
_cell_formula_units_Z   1
loop_
 _symmetry_equiv_pos_site_id
 _symmetry_equiv_pos_as_xyz
  1  'x, y, z'
loop_
 _atom_site_type_symbol
 _atom_site_label
 _atom_site_symmetry_multiplicity
 _atom_site_fract_x
 _atom_site_fract_y
 _atom_site_fract_z
 _atom_site_occupancy
  Fe  Fe0  1  0.49999999  0.67111598  0.13663397  1
  Fe  Fe1  1  0.49999999  0.32888399  0.86336600  1
  Fe  Fe2  1  -0.00000000  0.16503400  0.37179200  1
  Ni  Ni3  1  0.00000000  0.83496598  0.62820797  1
  As  As4  1  0.49999999  0.49999999  0.49999999  1
  As  As5  1  0.00000000  0.00000000  0.00000000  1
