# generated using pymatgen
data_Fe3B6Mo6Ir
_symmetry_space_group_name_H-M   'P 1'
_cell_length_a   4.46244621
_cell_length_b   6.68693686
_cell_length_c   6.74908495
_cell_angle_alpha   85.43453979
_cell_angle_beta   71.05046082
_cell_angle_gamma   71.09970093
_symmetry_Int_Tables_number   1
_chemical_formula_structural   Fe3B6Mo6Ir
_chemical_formula_sum   'Fe3 B6 Mo6 Ir1'
_cell_volume   180.13518582
_cell_formula_units_Z   1
loop_
 _symmetry_equiv_pos_site_id
 _symmetry_equiv_pos_as_xyz
  1  'x, y, z'
loop_
 _atom_site_type_symbol
 _atom_site_label
 _atom_site_symmetry_multiplicity
 _atom_site_fract_x
 _atom_site_fract_y
 _atom_site_fract_z
 _atom_site_occupancy
  Fe  Fe0  1  0.06349492  0.97007404  0.39662896  1
  Fe  Fe1  1  0.39696498  0.05204100  0.60329900  1
  B  B2  1  0.98529392  0.61516102  0.94338397  1
  B  B3  1  0.54757895  0.38193301  0.06091297  1
  Fe  Fe4  1  0.67283890  0.98500404  0.18330295  1
  Mo  Mo5  1  0.83337797  0.02347800  0.82856400  1
  B  B6  1  0.33485693  0.82603403  0.97840698  1
  Mo  Mo7  1  0.14227498  0.18446701  0.03830599  1
  Mo  Mo8  1  0.65249995  0.32339301  0.37998098  1
  Mo  Mo9  1  0.35493194  0.66705703  0.61470097  1
  Mo  Mo10  1  0.03352695  0.59591902  0.32241198  1
  Mo  Mo11  1  0.97948294  0.37162801  0.65586598  1
  B  B12  1  0.22068097  0.24929801  0.33251999  1
  Ir  Ir13  1  0.78854391  0.75121203  0.65932196  1
  B  B14  1  0.53717393  0.67020203  0.24932296  1
  B  B15  1  0.45647796  0.33310001  0.75306999  1
