# generated using pymatgen
data_Nb3C
_symmetry_space_group_name_H-M   'P 1'
_cell_length_a   4.36367416
_cell_length_b   4.36367416
_cell_length_c   7.55943918
_cell_angle_alpha   73.22439575
_cell_angle_beta   73.22439575
_cell_angle_gamma   60.00000000
_symmetry_Int_Tables_number   1
_chemical_formula_structural   Nb3C
_chemical_formula_sum   'Nb3 C1'
_cell_volume   117.53255085
_cell_formula_units_Z   1
loop_
 _symmetry_equiv_pos_site_id
 _symmetry_equiv_pos_as_xyz
  1  'x, y, z'
loop_
 _atom_site_type_symbol
 _atom_site_label
 _atom_site_symmetry_multiplicity
 _atom_site_fract_x
 _atom_site_fract_y
 _atom_site_fract_z
 _atom_site_occupancy
  Nb  Nb0  1  0.50769296  0.50769298  0.47692100  1
  Nb  Nb1  1  0.99357292  0.99357296  0.01928102  1
  Nb  Nb2  1  0.12201299  0.12201299  0.63396099  1
  C  C3  1  0.62671995  0.62671997  0.11984001  1
