# generated using pymatgen
data_LaGe4
_symmetry_space_group_name_H-M   'P 1'
_cell_length_a   4.37521791
_cell_length_b   8.87780190
_cell_length_c   8.87780190
_cell_angle_alpha   77.70074463
_cell_angle_beta   75.73462677
_cell_angle_gamma   75.73462677
_symmetry_Int_Tables_number   1
_chemical_formula_structural   LaGe4
_chemical_formula_sum   'La3 Ge12'
_cell_volume   319.61016523
_cell_formula_units_Z   3
loop_
 _symmetry_equiv_pos_site_id
 _symmetry_equiv_pos_as_xyz
  1  'x, y, z'
loop_
 _atom_site_type_symbol
 _atom_site_label
 _atom_site_symmetry_multiplicity
 _atom_site_fract_x
 _atom_site_fract_y
 _atom_site_fract_z
 _atom_site_occupancy
  La  La0  1  0.00000000  0.00962600  0.99037400  1
  La  La1  1  0.33258502  0.66380199  0.67102802  1
  La  La2  1  0.66741502  0.32897200  0.33619802  1
  Ge  Ge3  1  0.00000001  0.60858599  0.39141402  1
  Ge  Ge4  1  0.00000001  0.37869200  0.62130801  1
  Ge  Ge5  1  0.50000001  0.24816500  0.75183501  1
  Ge  Ge6  1  0.50000002  0.74550999  0.25449003  1
  Ge  Ge7  1  0.83927603  0.91340199  0.40804604  1
  Ge  Ge8  1  0.16072501  0.59195399  0.08659702  1
  Ge  Ge9  1  0.67066103  0.94885299  0.70982504  1
  Ge  Ge10  1  0.32933901  0.29017500  0.05114701  1
  Ge  Ge11  1  0.66129802  0.72769099  0.94971303  1
  Ge  Ge12  1  0.33870101  0.05028700  0.27231001  1
  Ge  Ge13  1  0.82658302  0.42605900  0.92077402  1
  Ge  Ge14  1  0.17341600  0.07922700  0.57394100  1
