# generated using pymatgen
data_Cr2BrCl8
_symmetry_space_group_name_H-M   'P 1'
_cell_length_a   6.70367289
_cell_length_b   6.75469685
_cell_length_c   7.05456305
_cell_angle_alpha   89.95334625
_cell_angle_beta   82.19915009
_cell_angle_gamma   82.96276855
_symmetry_Int_Tables_number   1
_chemical_formula_structural   Cr2BrCl8
_chemical_formula_sum   'Cr2 Br1 Cl8'
_cell_volume   314.05870425
_cell_formula_units_Z   1
loop_
 _symmetry_equiv_pos_site_id
 _symmetry_equiv_pos_as_xyz
  1  'x, y, z'
loop_
 _atom_site_type_symbol
 _atom_site_label
 _atom_site_symmetry_multiplicity
 _atom_site_fract_x
 _atom_site_fract_y
 _atom_site_fract_z
 _atom_site_occupancy
  Cr  Cr0  1  0.05102401  0.58935700  0.23164902  1
  Cr  Cr1  1  0.94897602  0.41064300  0.76835106  1
  Br  Br2  1  0.00000001  0.50000000  1.00000004  1
  Cl  Cl3  1  0.64547902  0.60948800  0.77377306  1
  Cl  Cl4  1  0.89472702  0.31972600  0.41018805  1
  Cl  Cl5  1  0.25701701  0.21926200  0.69531403  1
  Cl  Cl6  1  0.79155701  0.13992700  0.86927605  1
  Cl  Cl7  1  0.20844302  0.86007300  0.13072403  1
  Cl  Cl8  1  0.35452101  0.39051200  0.22622703  1
  Cl  Cl9  1  0.10527301  0.68027400  0.58981204  1
  Cl  Cl10  1  0.74298302  0.78073800  0.30468605  1
