# generated using pymatgen
data_NaTiB2NO7
_symmetry_space_group_name_H-M   'P 1'
_cell_length_a   4.85398626
_cell_length_b   4.85398626
_cell_length_c   9.05986595
_cell_angle_alpha   74.46160126
_cell_angle_beta   74.46160126
_cell_angle_gamma   59.99999619
_symmetry_Int_Tables_number   1
_chemical_formula_structural   NaTiB2NO7
_chemical_formula_sum   'Na1 Ti1 B2 N1 O7'
_cell_volume   175.79638158
_cell_formula_units_Z   1
loop_
 _symmetry_equiv_pos_site_id
 _symmetry_equiv_pos_as_xyz
  1  'x, y, z'
loop_
 _atom_site_type_symbol
 _atom_site_label
 _atom_site_symmetry_multiplicity
 _atom_site_fract_x
 _atom_site_fract_y
 _atom_site_fract_z
 _atom_site_occupancy
  Na  Na0  1  0.50000003  0.50000001  0.49999999  1
  Ti  Ti1  1  0.00000000  0.00000000  0.00000000  1
  B  B2  1  0.73516604  0.73516601  0.79450199  1
  B  B3  1  0.26483402  0.26483400  0.20549800  1
  O  O4  1  0.79282805  0.79282801  0.62151599  1
  N  N5  1  0.99851704  0.39650700  0.86189799  1
  O  O6  1  0.20717201  0.20717200  0.37848400  1
  O  O7  1  0.74307805  0.99851701  0.86189699  1
  O  O8  1  0.25692201  0.00148300  0.13810200  1
  O  O9  1  0.39650804  0.74307801  0.86189699  1
  O  O10  1  0.60349203  0.25692200  0.13810299  1
  O  O11  1  0.00148302  0.60349201  0.13810300  1
