# generated using pymatgen
data_Na4AsO5
_symmetry_space_group_name_H-M   'P 1'
_cell_length_a   6.03520823
_cell_length_b   6.03520823
_cell_length_c   7.74659252
_cell_angle_alpha   70.76380157
_cell_angle_beta   70.76380157
_cell_angle_gamma   85.15093231
_symmetry_Int_Tables_number   1
_chemical_formula_structural   Na4AsO5
_chemical_formula_sum   'Na4 As1 O5'
_cell_volume   251.44124509
_cell_formula_units_Z   1
loop_
 _symmetry_equiv_pos_site_id
 _symmetry_equiv_pos_as_xyz
  1  'x, y, z'
loop_
 _atom_site_type_symbol
 _atom_site_label
 _atom_site_symmetry_multiplicity
 _atom_site_fract_x
 _atom_site_fract_y
 _atom_site_fract_z
 _atom_site_occupancy
  Na  Na0  1  0.50000001  0.00000000  0.00000000  1
  Na  Na1  1  -0.00000003  0.50000001  0.00000001  1
  Na  Na2  1  0.70665697  0.70665701  0.57162602  1
  Na  Na3  1  0.29334299  0.29334301  0.42837401  1
  O  O4  1  0.63814097  0.63814101  0.91574502  1
  O  O5  1  0.36185898  0.36185901  0.08425501  1
  As  As6  1  0.72261600  0.27738401  0.50000001  1
  O  O7  1  0.27738396  0.72261601  0.50000002  1
  O  O8  1  0.10755000  0.10755000  0.77883100  1
  O  O9  1  0.89244996  0.89245002  0.22116903  1
