# generated using pymatgen
data_SmAl2Cu3
_symmetry_space_group_name_H-M   'P 1'
_cell_length_a   4.01146793
_cell_length_b   5.59442616
_cell_length_c   5.59442663
_cell_angle_alpha   119.99999237
_cell_angle_beta   90.00000000
_cell_angle_gamma   90.00000000
_symmetry_Int_Tables_number   1
_chemical_formula_structural   SmAl2Cu3
_chemical_formula_sum   'Sm1 Al2 Cu3'
_cell_volume   108.72893105
_cell_formula_units_Z   1
loop_
 _symmetry_equiv_pos_site_id
 _symmetry_equiv_pos_as_xyz
  1  'x, y, z'
loop_
 _atom_site_type_symbol
 _atom_site_label
 _atom_site_symmetry_multiplicity
 _atom_site_fract_x
 _atom_site_fract_y
 _atom_site_fract_z
 _atom_site_occupancy
  Sm  Sm0  1  0.00000000  0.00000000  0.00000000  1
  Al  Al1  1  -0.00000000  0.66666663  0.33333331  1
  Al  Al2  1  -0.00000000  0.33333332  0.66666667  1
  Cu  Cu3  1  0.50000001  0.49999997  0.49999999  1
  Cu  Cu4  1  0.50000001  0.49999997  1.00000001  1
  Cu  Cu5  1  0.50000001  0.00000000  0.50000002  1
