# generated using pymatgen
data_SrCaBi2(ClF3)2
_symmetry_space_group_name_H-M   'P 1'
_cell_length_a   4.66334581
_cell_length_b   7.66179085
_cell_length_c   8.25736713
_cell_angle_alpha   90.00000000
_cell_angle_beta   90.00000000
_cell_angle_gamma   90.00000000
_symmetry_Int_Tables_number   1
_chemical_formula_structural   SrCaBi2(ClF3)2
_chemical_formula_sum   'Sr1 Ca1 Bi2 Cl2 F6'
_cell_volume   295.03226188
_cell_formula_units_Z   1
loop_
 _symmetry_equiv_pos_site_id
 _symmetry_equiv_pos_as_xyz
  1  'x, y, z'
loop_
 _atom_site_type_symbol
 _atom_site_label
 _atom_site_symmetry_multiplicity
 _atom_site_fract_x
 _atom_site_fract_y
 _atom_site_fract_z
 _atom_site_occupancy
  Ca  Ca0  1  0.25000001  0.15665900  0.92562498  1
  Sr  Sr1  1  0.25000001  0.65665901  0.57437499  1
  Bi  Bi2  1  0.75000003  0.84334102  0.07437500  1
  Bi  Bi3  1  0.75000003  0.34334101  0.42562499  1
  Cl  Cl4  1  0.25000001  0.00705200  0.29343700  1
  Cl  Cl5  1  0.25000001  0.50705201  0.20656300  1
  F  F6  1  0.75000003  0.99294802  0.70656299  1
  F  F7  1  0.75000003  0.49294801  0.79343699  1
  F  F8  1  0.25000001  0.26977801  0.59661699  1
  F  F9  1  0.25000001  0.76977802  0.90338299  1
  F  F10  1  0.75000003  0.73022201  0.40338299  1
  F  F11  1  0.75000003  0.23022200  0.09661700  1
