# generated using pymatgen
data_LaSn2
_symmetry_space_group_name_H-M   'P 1'
_cell_length_a   3.98289299
_cell_length_b   4.66031122
_cell_length_c   8.46835423
_cell_angle_alpha   90.00000000
_cell_angle_beta   90.00000000
_cell_angle_gamma   90.00000000
_symmetry_Int_Tables_number   1
_chemical_formula_structural   LaSn2
_chemical_formula_sum   'La2 Sn4'
_cell_volume   157.18553392
_cell_formula_units_Z   2
loop_
 _symmetry_equiv_pos_site_id
 _symmetry_equiv_pos_as_xyz
  1  'x, y, z'
loop_
 _atom_site_type_symbol
 _atom_site_label
 _atom_site_symmetry_multiplicity
 _atom_site_fract_x
 _atom_site_fract_y
 _atom_site_fract_z
 _atom_site_occupancy
  La  La0  1  0.00000000  0.00000000  0.99135197  1
  La  La1  1  0.00000000  0.49999998  0.50954899  1
  Sn  Sn2  1  0.50000000  0.00000000  0.33593899  1
  Sn  Sn3  1  0.50000000  0.49999998  0.83622198  1
  Sn  Sn4  1  0.50000000  0.49999998  0.16067000  1
  Sn  Sn5  1  0.50000000  0.00000000  0.66626798  1
