# generated using pymatgen
data_Ba2Ge4Ir
_symmetry_space_group_name_H-M   'P 1'
_cell_length_a   4.69123793
_cell_length_b   4.72994280
_cell_length_c   8.90440941
_cell_angle_alpha   105.40233612
_cell_angle_beta   90.00000000
_cell_angle_gamma   90.00000000
_symmetry_Int_Tables_number   1
_chemical_formula_structural   Ba2Ge4Ir
_chemical_formula_sum   'Ba2 Ge4 Ir1'
_cell_volume   190.48623720
_cell_formula_units_Z   1
loop_
 _symmetry_equiv_pos_site_id
 _symmetry_equiv_pos_as_xyz
  1  'x, y, z'
loop_
 _atom_site_type_symbol
 _atom_site_label
 _atom_site_symmetry_multiplicity
 _atom_site_fract_x
 _atom_site_fract_y
 _atom_site_fract_z
 _atom_site_occupancy
  Ba  Ba0  1  0.25000000  0.10264600  0.20529201  1
  Ba  Ba1  1  0.75000001  0.89750502  0.79501101  1
  Ge  Ge2  1  0.25000000  0.45970601  0.91941202  1
  Ge  Ge3  1  0.75000001  0.57325902  0.14651699  1
  Ge  Ge4  1  0.25000000  0.73810502  0.47621100  1
  Ge  Ge5  1  0.75000001  0.23636801  0.47273601  1
  Ir  Ir6  1  0.25000000  0.30841001  0.61682002  1
