# generated using pymatgen
data_LiNbN2
_symmetry_space_group_name_H-M   'P 1'
_cell_length_a   3.20779610
_cell_length_b   3.20779610
_cell_length_c   10.81773186
_cell_angle_alpha   90.00000000
_cell_angle_beta   90.00000000
_cell_angle_gamma   120.00000000
_symmetry_Int_Tables_number   1
_chemical_formula_structural   LiNbN2
_chemical_formula_sum   'Li2 Nb2 N4'
_cell_volume   96.40073677
_cell_formula_units_Z   2
loop_
 _symmetry_equiv_pos_site_id
 _symmetry_equiv_pos_as_xyz
  1  'x, y, z'
loop_
 _atom_site_type_symbol
 _atom_site_label
 _atom_site_symmetry_multiplicity
 _atom_site_fract_x
 _atom_site_fract_y
 _atom_site_fract_z
 _atom_site_occupancy
  Li  Li0  1  0.66666666  0.33333334  0.25000000  1
  Li  Li1  1  0.33333334  0.66666669  0.75000001  1
  Nb  Nb2  1  0.00000000  0.00000000  0.00000000  1
  Nb  Nb3  1  0.00000000  0.00000000  0.50000001  1
  N  N4  1  0.66666666  0.33333334  0.88583001  1
  N  N5  1  0.66666666  0.33333334  0.61417001  1
  N  N6  1  0.33333334  0.66666669  0.38583001  1
  N  N7  1  0.33333334  0.66666669  0.11417000  1
