# generated using pymatgen
data_LiSbO4
_symmetry_space_group_name_H-M   'P 1'
_cell_length_a   4.86399078
_cell_length_b   5.05773687
_cell_length_c   5.85400915
_cell_angle_alpha   90.00000000
_cell_angle_beta   90.00000000
_cell_angle_gamma   90.97122192
_symmetry_Int_Tables_number   1
_chemical_formula_structural   LiSbO4
_chemical_formula_sum   'Li2 Sb2 O8'
_cell_volume   143.99253401
_cell_formula_units_Z   2
loop_
 _symmetry_equiv_pos_site_id
 _symmetry_equiv_pos_as_xyz
  1  'x, y, z'
loop_
 _atom_site_type_symbol
 _atom_site_label
 _atom_site_symmetry_multiplicity
 _atom_site_fract_x
 _atom_site_fract_y
 _atom_site_fract_z
 _atom_site_occupancy
  Li  Li0  1  0.00000001  0.75000003  0.81720798  1
  Li  Li1  1  0.00000000  0.25000001  0.18277900  1
  Sb  Sb2  1  0.49999999  0.75000003  0.31916399  1
  Sb  Sb3  1  0.49999999  0.25000001  0.68083898  1
  O  O4  1  0.71194898  0.44252202  0.39563699  1
  O  O5  1  0.28805099  0.05747800  0.39563699  1
  O  O6  1  0.28804800  0.55747902  0.60436898  1
  O  O7  1  0.71195099  0.94252103  0.60436898  1
  O  O8  1  0.75263698  0.39546201  0.87371598  1
  O  O9  1  0.24736299  0.10453800  0.87371598  1
  O  O10  1  0.24736400  0.60454302  0.12628300  1
  O  O11  1  0.75263599  0.89545703  0.12628300  1
