# generated using pymatgen
data_In7CuS12
_symmetry_space_group_name_H-M   'P 1'
_cell_length_a   3.79988790
_cell_length_b   11.15213871
_cell_length_c   12.03682423
_cell_angle_alpha   90.00000000
_cell_angle_beta   90.00000000
_cell_angle_gamma   90.00000000
_symmetry_Int_Tables_number   1
_chemical_formula_structural   In7CuS12
_chemical_formula_sum   'In7 Cu1 S12'
_cell_volume   510.08301844
_cell_formula_units_Z   1
loop_
 _symmetry_equiv_pos_site_id
 _symmetry_equiv_pos_as_xyz
  1  'x, y, z'
loop_
 _atom_site_type_symbol
 _atom_site_label
 _atom_site_symmetry_multiplicity
 _atom_site_fract_x
 _atom_site_fract_y
 _atom_site_fract_z
 _atom_site_occupancy
  In  In0  1  0.50000001  0.58463702  0.46312199  1
  Cu  Cu1  1  0.50000001  0.41536301  0.96312198  1
  In  In2  1  0.50000001  0.21451001  0.63960999  1
  In  In3  1  0.50000001  0.78549002  0.13961000  1
  In  In4  1  0.00000000  0.27799101  0.35725899  1
  In  In5  1  0.00000000  0.72200902  0.85725898  1
  In  In6  1  0.00000000  0.93110702  0.54843299  1
  In  In7  1  0.00000000  0.06889300  0.04843300  1
  S  S8  1  0.00000000  0.36915701  0.54551699  1
  S  S9  1  0.00000000  0.63084302  0.04551700  1
  S  S10  1  0.50000001  0.11668800  0.45453099  1
  S  S11  1  0.50000001  0.88331202  0.95453098  1
  S  S12  1  0.50000001  0.81616402  0.61674099  1
  S  S13  1  0.50000001  0.18383600  0.11674100  1
  S  S14  1  0.00000000  0.69954102  0.37317699  1
  S  S15  1  0.00000000  0.30045901  0.87317698  1
  S  S16  1  0.00000000  0.05392900  0.70150299  1
  S  S17  1  0.00000000  0.94607102  0.20150300  1
  S  S18  1  0.50000001  0.43685101  0.30010599  1
  S  S19  1  0.50000001  0.56314901  0.80010598  1
