# generated using pymatgen
data_Dy3FeO6
_symmetry_space_group_name_H-M   'P 1'
_cell_length_a   5.36967802
_cell_length_b   5.48663902
_cell_length_c   7.71809483
_cell_angle_alpha   90.00000000
_cell_angle_beta   90.00000000
_cell_angle_gamma   90.00000000
_symmetry_Int_Tables_number   1
_chemical_formula_structural   Dy3FeO6
_chemical_formula_sum   'Dy6 Fe2 O12'
_cell_volume   227.38653468
_cell_formula_units_Z   2
loop_
 _symmetry_equiv_pos_site_id
 _symmetry_equiv_pos_as_xyz
  1  'x, y, z'
loop_
 _atom_site_type_symbol
 _atom_site_label
 _atom_site_symmetry_multiplicity
 _atom_site_fract_x
 _atom_site_fract_y
 _atom_site_fract_z
 _atom_site_occupancy
  Dy  Dy0  1  0.00000000  0.50000000  0.50000001  1
  Dy  Dy1  1  0.50000000  0.00000000  0.50000001  1
  Dy  Dy2  1  0.50000000  0.00000000  0.00000000  1
  Dy  Dy3  1  0.00000000  0.50000000  0.00000000  1
  Dy  Dy4  1  0.00862700  0.96105000  0.75000002  1
  Dy  Dy5  1  0.50862700  0.53895000  0.25000001  1
  Fe  Fe6  1  0.49137300  0.46105000  0.75000002  1
  Fe  Fe7  1  0.99137300  0.03895000  0.25000001  1
  O  O8  1  0.70111900  0.29623600  0.45330001  1
  O  O9  1  0.20111900  0.20376400  0.54670001  1
  O  O10  1  0.79888100  0.79623600  0.04670000  1
  O  O11  1  0.29888100  0.70376400  0.95330002  1
  O  O12  1  0.29888100  0.70376400  0.54670001  1
  O  O13  1  0.79888100  0.79623600  0.45330001  1
  O  O14  1  0.20111900  0.20376400  0.95330002  1
  O  O15  1  0.70111900  0.29623600  0.04670000  1
  O  O16  1  0.08944000  0.47196000  0.25000001  1
  O  O17  1  0.58944000  0.02804000  0.75000002  1
  O  O18  1  0.41056000  0.97196000  0.25000001  1
  O  O19  1  0.91056000  0.52804000  0.75000002  1
