# generated using pymatgen
data_Dy2Ni7
_symmetry_space_group_name_H-M   'P 1'
_cell_length_a   4.91202402
_cell_length_b   4.91202450
_cell_length_c   12.32794189
_cell_angle_alpha   78.50846100
_cell_angle_beta   78.50846100
_cell_angle_gamma   60.00000381
_symmetry_Int_Tables_number   1
_chemical_formula_structural   Dy2Ni7
_chemical_formula_sum   'Dy4 Ni14'
_cell_volume   250.68918483
_cell_formula_units_Z   2
loop_
 _symmetry_equiv_pos_site_id
 _symmetry_equiv_pos_as_xyz
  1  'x, y, z'
loop_
 _atom_site_type_symbol
 _atom_site_label
 _atom_site_symmetry_multiplicity
 _atom_site_fract_x
 _atom_site_fract_y
 _atom_site_fract_z
 _atom_site_occupancy
  Dy  Dy0  1  0.05068800  0.05068800  0.84793601  1
  Dy  Dy1  1  0.94931204  0.94931197  0.15206397  1
  Dy  Dy2  1  0.14731101  0.14731099  0.55806700  1
  Dy  Dy3  1  0.85268903  0.85268897  0.44193298  1
  Ni  Ni4  1  0.50000002  0.49999998  0.49999999  1
  Ni  Ni5  1  0.27816901  0.27816899  0.16549199  1
  Ni  Ni6  1  0.72183103  0.72183098  0.83450798  1
  Ni  Ni7  1  0.38840102  0.38840099  0.83479800  1
  Ni  Ni8  1  0.61159902  0.61159898  0.16520198  1
  Ni  Ni9  1  0.50000000  0.00000000  1.00000000  1
  Ni  Ni10  1  0.00000002  0.49999998  1.00000000  1
  Ni  Ni11  1  0.50000002  0.49999998  -0.00000002  1
  Ni  Ni12  1  0.61055002  0.61054998  0.67021999  1
  Ni  Ni13  1  0.61055001  0.10868100  0.67022000  1
  Ni  Ni14  1  0.10868102  0.61054998  0.67021999  1
  Ni  Ni15  1  0.38945002  0.38944999  0.32977999  1
  Ni  Ni16  1  0.38945003  0.89131897  0.32977998  1
  Ni  Ni17  1  0.89131902  0.38944999  0.32977998  1
