# generated using pymatgen
data_DyAlSi
_symmetry_space_group_name_H-M   'P 1'
_cell_length_a   4.11036015
_cell_length_b   6.96955585
_cell_length_c   8.05779743
_cell_angle_alpha   90.00000000
_cell_angle_beta   90.00000000
_cell_angle_gamma   90.00000000
_symmetry_Int_Tables_number   1
_chemical_formula_structural   DyAlSi
_chemical_formula_sum   'Dy4 Al4 Si4'
_cell_volume   230.83482221
_cell_formula_units_Z   4
loop_
 _symmetry_equiv_pos_site_id
 _symmetry_equiv_pos_as_xyz
  1  'x, y, z'
loop_
 _atom_site_type_symbol
 _atom_site_label
 _atom_site_symmetry_multiplicity
 _atom_site_fract_x
 _atom_site_fract_y
 _atom_site_fract_z
 _atom_site_occupancy
  Dy  Dy0  1  0.24999999  0.53193301  0.18525799  1
  Dy  Dy1  1  0.74999997  0.46806701  0.81474196  1
  Dy  Dy2  1  0.74999997  0.96806702  0.68525796  1
  Dy  Dy3  1  0.24999999  0.03193300  0.31474198  1
  Al  Al4  1  0.24999999  0.64281701  0.56526197  1
  Al  Al5  1  0.74999997  0.35718301  0.43473798  1
  Al  Al6  1  0.74999997  0.85718302  0.06526200  1
  Al  Al7  1  0.24999999  0.14281700  0.93473795  1
  Si  Si8  1  0.24999999  0.76195602  0.87820095  1
  Si  Si9  1  0.74999997  0.23804400  0.12179899  1
  Si  Si10  1  0.74999997  0.73804402  0.37820098  1
  Si  Si11  1  0.24999999  0.26195601  0.62179897  1
