# generated using pymatgen
data_Na4TiFeCO7
_symmetry_space_group_name_H-M   'P 1'
_cell_length_a   5.05922985
_cell_length_b   6.62503910
_cell_length_c   6.62503910
_cell_angle_alpha   69.81763458
_cell_angle_beta   67.55313873
_cell_angle_gamma   67.55313873
_symmetry_Int_Tables_number   1
_chemical_formula_structural   Na4TiFeCO7
_chemical_formula_sum   'Na4 Ti1 Fe1 C1 O7'
_cell_volume   184.45098496
_cell_formula_units_Z   1
loop_
 _symmetry_equiv_pos_site_id
 _symmetry_equiv_pos_as_xyz
  1  'x, y, z'
loop_
 _atom_site_type_symbol
 _atom_site_label
 _atom_site_symmetry_multiplicity
 _atom_site_fract_x
 _atom_site_fract_y
 _atom_site_fract_z
 _atom_site_occupancy
  Na  Na0  1  0.35404102  0.80116801  0.49074999  1
  Na  Na1  1  0.64595902  0.19883200  0.50925000  1
  Na  Na2  1  0.85404103  0.49075001  0.80116800  1
  Na  Na3  1  0.14595901  0.50925001  0.19883199  1
  Fe  Fe4  1  0.75000002  0.00000000  0.00000000  1
  Ti  Ti5  1  0.25000002  1.00000002  -0.00000002  1
  O  O6  1  0.07847900  0.09268100  0.75036001  1
  C  C7  1  0.92152104  0.90731901  0.24963999  1
  O  O8  1  0.57848002  0.75035901  0.09268099  1
  O  O9  1  0.42152001  0.24964100  0.90731901  1
  O  O10  1  0.12875701  0.21231800  0.53016900  1
  O  O11  1  0.87124303  0.78768201  0.46983099  1
  O  O12  1  0.62875602  0.53017001  0.21231799  1
  O  O13  1  0.37124402  0.46983001  0.78768200  1
