# generated using pymatgen
data_ScO2
_symmetry_space_group_name_H-M   'P 1'
_cell_length_a   5.86301517
_cell_length_b   5.86301517
_cell_length_c   6.66306686
_cell_angle_alpha   111.42507935
_cell_angle_beta   111.42507935
_cell_angle_gamma   99.77269745
_symmetry_Int_Tables_number   1
_chemical_formula_structural   ScO2
_chemical_formula_sum   'Sc4 O8'
_cell_volume   185.93763556
_cell_formula_units_Z   4
loop_
 _symmetry_equiv_pos_site_id
 _symmetry_equiv_pos_as_xyz
  1  'x, y, z'
loop_
 _atom_site_type_symbol
 _atom_site_label
 _atom_site_symmetry_multiplicity
 _atom_site_fract_x
 _atom_site_fract_y
 _atom_site_fract_z
 _atom_site_occupancy
  Sc  Sc0  1  0.19922096  0.80077899  -0.00000002  1
  Sc  Sc1  1  0.44922098  0.55077900  0.49999999  1
  Sc  Sc2  1  0.80077900  0.19922100  -0.00000001  1
  Sc  Sc3  1  0.05077895  0.94922099  0.49999998  1
  O  O4  1  0.13245399  0.13245400  0.26490800  1
  O  O5  1  0.86754596  0.86754599  0.73509198  1
  O  O6  1  0.38245396  0.88245399  0.76490798  1
  O  O7  1  0.11754597  0.61754600  0.23509199  1
  O  O8  1  0.62499996  0.87499999  0.24999998  1
  O  O9  1  0.62499999  0.37500000  0.24999999  1
  O  O10  1  0.62499999  0.37500000  0.74999999  1
  O  O11  1  0.12499998  0.37500000  0.74999999  1
