# generated using pymatgen
data_NiBr3
_symmetry_space_group_name_H-M   'P 1'
_cell_length_a   7.89923000
_cell_length_b   7.89923000
_cell_length_c   7.91538334
_cell_angle_alpha   109.48670197
_cell_angle_beta   109.45438385
_cell_angle_gamma   109.38974762
_symmetry_Int_Tables_number   1
_chemical_formula_structural   NiBr3
_chemical_formula_sum   'Ni4 Br12'
_cell_volume   380.59448242
_cell_formula_units_Z   4
loop_
 _symmetry_equiv_pos_site_id
 _symmetry_equiv_pos_as_xyz
  1  'x, y, z'
loop_
 _atom_site_type_symbol
 _atom_site_label
 _atom_site_symmetry_multiplicity
 _atom_site_fract_x
 _atom_site_fract_y
 _atom_site_fract_z
 _atom_site_occupancy
  Ni  Ni0  1  0.49999998  0.00000000  -0.00000003  1
  Ni  Ni1  1  -0.00000003  0.49999997  -0.00000004  1
  Ni  Ni2  1  -0.00000006  0.99999994  0.49999992  1
  Ni  Ni3  1  0.49999996  0.49999997  0.49999993  1
  Br  Br4  1  0.32962294  0.83865395  0.16827692  1
  Br  Br5  1  0.67037697  0.16134599  0.83172294  1
  Br  Br6  1  0.33842998  0.15733399  0.49576396  1
  Br  Br7  1  0.66156993  0.84266595  0.50423589  1
  Br  Br8  1  0.83624396  0.17535599  0.33012794  1
  Br  Br9  1  0.16375595  0.82464395  0.66987192  1
  Br  Br10  1  0.15477197  0.49388397  0.33012795  1
  Br  Br11  1  0.84522794  0.50611597  0.66987191  1
  Br  Br12  1  0.17568198  0.33833898  0.84479995  1
  Br  Br13  1  0.82431794  0.66166096  0.15519991  1
  Br  Br14  1  0.49353896  0.33088198  0.15519995  1
  Br  Br15  1  0.50646095  0.66911796  0.84479991  1
