# generated using pymatgen
data_La3In7
_symmetry_space_group_name_H-M   'P 1'
_cell_length_a   7.98471594
_cell_length_b   8.90399456
_cell_length_c   8.90399456
_cell_angle_alpha   90.00000000
_cell_angle_beta   90.00000000
_cell_angle_gamma   90.00000000
_symmetry_Int_Tables_number   1
_chemical_formula_structural   La3In7
_chemical_formula_sum   'La6 In14'
_cell_volume   633.03721554
_cell_formula_units_Z   2
loop_
 _symmetry_equiv_pos_site_id
 _symmetry_equiv_pos_as_xyz
  1  'x, y, z'
loop_
 _atom_site_type_symbol
 _atom_site_label
 _atom_site_symmetry_multiplicity
 _atom_site_fract_x
 _atom_site_fract_y
 _atom_site_fract_z
 _atom_site_occupancy
  La  La0  1  0.00000000  0.14608101  0.14608101  1
  La  La1  1  0.50000000  0.64608103  0.35391902  1
  La  La2  1  0.50000000  0.35391902  0.64608103  1
  La  La3  1  -0.00000000  0.85391904  0.85391904  1
  La  La4  1  0.50000000  0.19713201  0.19713201  1
  La  La5  1  -0.00000000  0.69713203  0.30286801  1
  In  In6  1  0.00000000  0.30286801  0.69713203  1
  In  In7  1  0.50000000  0.80286804  0.80286804  1
  In  In8  1  0.25000000  0.50000002  -0.00000000  1
  In  In9  1  0.75000001  0.50000002  0.00000000  1
  In  In10  1  0.75000001  0.00000000  0.50000002  1
  In  In11  1  0.25000000  0.00000000  0.50000002  1
  In  In12  1  0.80203501  0.37531202  0.37531202  1
  In  In13  1  0.30203500  0.87531204  0.12468801  1
  In  In14  1  0.30203500  0.12468801  0.87531204  1
  In  In15  1  0.80203501  0.62468803  0.62468803  1
  In  In16  1  0.19796500  0.37531202  0.37531202  1
  In  In17  1  0.69796501  0.87531204  0.12468801  1
  In  In18  1  0.69796501  0.12468801  0.87531204  1
  In  In19  1  0.19796500  0.62468803  0.62468803  1
