# generated using pymatgen
data_Cu2SnS4
_symmetry_space_group_name_H-M   'P 1'
_cell_length_a   5.34378195
_cell_length_b   5.34378195
_cell_length_c   6.43956375
_cell_angle_alpha   114.51415253
_cell_angle_beta   114.51415253
_cell_angle_gamma   90.00000000
_symmetry_Int_Tables_number   1
_chemical_formula_structural   Cu2SnS4
_chemical_formula_sum   'Cu2 Sn1 S4'
_cell_volume   148.90246797
_cell_formula_units_Z   1
loop_
 _symmetry_equiv_pos_site_id
 _symmetry_equiv_pos_as_xyz
  1  'x, y, z'
loop_
 _atom_site_type_symbol
 _atom_site_label
 _atom_site_symmetry_multiplicity
 _atom_site_fract_x
 _atom_site_fract_y
 _atom_site_fract_z
 _atom_site_occupancy
  Cu  Cu0  1  0.49999999  0.50000000  -0.00000002  1
  Cu  Cu1  1  0.24999998  0.75000000  0.49999997  1
  Sn  Sn2  1  0.00000000  0.00000000  0.00000000  1
  S  S3  1  0.12661499  0.61117900  0.74005798  1
  S  S4  1  0.61344300  0.12887900  0.74005698  1
  S  S5  1  0.38882199  0.38655700  0.25994198  1
  S  S6  1  0.87112098  0.87338600  0.25994296  1
