# generated using pymatgen
data_SmMgPd
_symmetry_space_group_name_H-M   'P 1'
_cell_length_a   4.07562780
_cell_length_b   7.36663580
_cell_length_c   7.36663532
_cell_angle_alpha   120.00000000
_cell_angle_beta   90.00000000
_cell_angle_gamma   90.00000000
_symmetry_Int_Tables_number   1
_chemical_formula_structural   SmMgPd
_chemical_formula_sum   'Sm3 Mg3 Pd3'
_cell_volume   191.54177970
_cell_formula_units_Z   3
loop_
 _symmetry_equiv_pos_site_id
 _symmetry_equiv_pos_as_xyz
  1  'x, y, z'
loop_
 _atom_site_type_symbol
 _atom_site_label
 _atom_site_symmetry_multiplicity
 _atom_site_fract_x
 _atom_site_fract_y
 _atom_site_fract_z
 _atom_site_occupancy
  Sm  Sm0  1  0.50000002  0.58112800  -0.00000004  1
  Sm  Sm1  1  0.50000002  0.41887200  0.41887196  1
  Sm  Sm2  1  0.50000002  0.00000000  0.58112799  1
  Mg  Mg3  1  -0.00000000  0.25163700  0.99999997  1
  Mg  Mg4  1  -0.00000000  0.74836299  0.74836293  1
  Mg  Mg5  1  1.00000005  0.00000000  0.25163700  1
  Pd  Pd6  1  -0.00000000  0.33333333  0.66666663  1
  Pd  Pd7  1  -0.00000000  0.66666666  0.33333328  1
  Pd  Pd8  1  0.50000002  0.00000000  -0.00000000  1
