# generated using pymatgen
data_MgZn
_symmetry_space_group_name_H-M   'P 1'
_cell_length_a   4.81174803
_cell_length_b   4.81174803
_cell_length_c   11.68290806
_cell_angle_alpha   90.00000000
_cell_angle_beta   90.00000000
_cell_angle_gamma   120.00000000
_symmetry_Int_Tables_number   1
_chemical_formula_structural   MgZn
_chemical_formula_sum   'Mg6 Zn6'
_cell_volume   234.25417754
_cell_formula_units_Z   6
loop_
 _symmetry_equiv_pos_site_id
 _symmetry_equiv_pos_as_xyz
  1  'x, y, z'
loop_
 _atom_site_type_symbol
 _atom_site_label
 _atom_site_symmetry_multiplicity
 _atom_site_fract_x
 _atom_site_fract_y
 _atom_site_fract_z
 _atom_site_occupancy
  Mg  Mg0  1  0.00000000  0.00000000  0.50000000  1
  Mg  Mg1  1  0.66666666  0.33333333  0.82173300  1
  Mg  Mg2  1  0.33333333  0.66666666  0.17826700  1
  Mg  Mg3  1  0.00000000  0.00000000  0.00000000  1
  Mg  Mg4  1  0.66666666  0.33333333  0.33444800  1
  Mg  Mg5  1  0.33333333  0.66666666  0.66555200  1
  Zn  Zn6  1  0.66666666  0.33333333  0.57910600  1
  Zn  Zn7  1  0.33333333  0.66666666  0.91367100  1
  Zn  Zn8  1  0.00000000  0.00000000  0.25236900  1
  Zn  Zn9  1  0.00000000  0.00000000  0.74763100  1
  Zn  Zn10  1  0.66666666  0.33333333  0.08632900  1
  Zn  Zn11  1  0.33333333  0.66666666  0.42089400  1
