# generated using pymatgen
data_Nd2In4Au3
_symmetry_space_group_name_H-M   'P 1'
_cell_length_a   4.52852678
_cell_length_b   7.43518209
_cell_length_c   7.43518257
_cell_angle_alpha   120.00000000
_cell_angle_beta   90.00000000
_cell_angle_gamma   90.00000000
_symmetry_Int_Tables_number   1
_chemical_formula_structural   Nd2In4Au3
_chemical_formula_sum   'Nd2 In4 Au3'
_cell_volume   216.80576127
_cell_formula_units_Z   1
loop_
 _symmetry_equiv_pos_site_id
 _symmetry_equiv_pos_as_xyz
  1  'x, y, z'
loop_
 _atom_site_type_symbol
 _atom_site_label
 _atom_site_symmetry_multiplicity
 _atom_site_fract_x
 _atom_site_fract_y
 _atom_site_fract_z
 _atom_site_occupancy
  Nd  Nd0  1  -0.00000000  0.00000000  0.42213099  1
  Nd  Nd1  1  -0.00000000  0.42213100  0.00000002  1
  In  In2  1  -0.00000000  0.57786900  0.57786901  1
  In  In3  1  0.50000002  0.00000000  0.75762899  1
  In  In4  1  0.50000002  0.75762901  0.00000003  1
  In  In5  1  0.50000002  0.24237100  0.24237101  1
  Au  Au6  1  0.50000002  0.66666667  0.33333335  1
  Au  Au7  1  0.50000002  0.33333334  0.66666667  1
  Au  Au8  1  0.00000000  0.00000000  0.00000000  1
