# generated using pymatgen
data_Na3LiTl2F10
_symmetry_space_group_name_H-M   'P 1'
_cell_length_a   6.79680586
_cell_length_b   6.79680586
_cell_length_c   6.79680586
_cell_angle_alpha   90.00000000
_cell_angle_beta   90.00000000
_cell_angle_gamma   90.00000000
_symmetry_Int_Tables_number   1
_chemical_formula_structural   Na3LiTl2F10
_chemical_formula_sum   'Na3 Li1 Tl2 F10'
_cell_volume   313.98911681
_cell_formula_units_Z   1
loop_
 _symmetry_equiv_pos_site_id
 _symmetry_equiv_pos_as_xyz
  1  'x, y, z'
loop_
 _atom_site_type_symbol
 _atom_site_label
 _atom_site_symmetry_multiplicity
 _atom_site_fract_x
 _atom_site_fract_y
 _atom_site_fract_z
 _atom_site_occupancy
  Li  Li0  1  0.50000001  0.50000001  0.50000001  1
  Na  Na1  1  0.00000000  0.00000000  0.00000000  1
  Na  Na2  1  0.75000002  0.00000000  0.50000001  1
  Na  Na3  1  0.50000001  0.75000002  0.00000000  1
  Tl  Tl4  1  0.00000000  0.50000001  0.75000002  1
  Tl  Tl5  1  0.00000000  0.50000001  0.25000001  1
  F  F6  1  0.25000001  0.00000000  0.50000001  1
  F  F7  1  0.50000001  0.25000001  0.00000000  1
  F  F8  1  0.75000002  0.25000001  0.25000001  1
  F  F9  1  0.25000001  0.25000001  0.75000002  1
  F  F10  1  0.25000001  0.75000002  0.25000001  1
  F  F11  1  0.75000002  0.75000002  0.75000002  1
  F  F12  1  0.25000001  0.75000002  0.75000002  1
  F  F13  1  0.75000002  0.75000002  0.25000001  1
  F  F14  1  0.25000001  0.25000001  0.25000001  1
  F  F15  1  0.75000002  0.25000001  0.75000002  1
