# generated using pymatgen
data_Nb2Mo3As5
_symmetry_space_group_name_H-M   'P 1'
_cell_length_a   6.78695202
_cell_length_b   7.06883097
_cell_length_c   7.06883097
_cell_angle_alpha   90.00000000
_cell_angle_beta   90.00000000
_cell_angle_gamma   90.00000000
_symmetry_Int_Tables_number   1
_chemical_formula_structural   Nb2Mo3As5
_chemical_formula_sum   'Nb4 Mo6 As10'
_cell_volume   339.13293806
_cell_formula_units_Z   2
loop_
 _symmetry_equiv_pos_site_id
 _symmetry_equiv_pos_as_xyz
  1  'x, y, z'
loop_
 _atom_site_type_symbol
 _atom_site_label
 _atom_site_symmetry_multiplicity
 _atom_site_fract_x
 _atom_site_fract_y
 _atom_site_fract_z
 _atom_site_occupancy
  Nb  Nb0  1  0.00000000  0.18086500  0.18086500  1
  Nb  Nb1  1  0.50000000  0.68086500  0.31913500  1
  Nb  Nb2  1  0.50000000  0.31913500  0.68086500  1
  Nb  Nb3  1  1.00000000  0.81913500  0.81913500  1
  Mo  Mo4  1  0.00000000  0.65232300  0.34767700  1
  Mo  Mo5  1  0.50000000  0.84767700  0.84767700  1
  Mo  Mo6  1  0.50000000  0.15232300  0.15232300  1
  Mo  Mo7  1  1.00000000  0.34767700  0.65232300  1
  As  As8  1  0.28440100  0.37373800  0.37373800  1
  As  As9  1  0.78440100  0.87373800  0.12626200  1
  As  As10  1  0.78440100  0.12626200  0.87373800  1
  Mo  Mo11  1  0.28440100  0.62626200  0.62626200  1
  As  As12  1  0.21559900  0.12626200  0.87373800  1
  As  As13  1  0.21559900  0.87373800  0.12626200  1
  Mo  Mo14  1  0.71559900  0.37373800  0.37373800  1
  As  As15  1  0.71559900  0.62626200  0.62626200  1
  As  As16  1  0.25000000  0.50000000  0.00000000  1
  As  As17  1  0.75000000  0.50000000  0.00000000  1
  As  As18  1  0.25000000  0.00000000  0.50000000  1
  As  As19  1  0.75000000  0.00000000  0.50000000  1
