# generated using pymatgen
data_PCO9
_symmetry_space_group_name_H-M   'P 1'
_cell_length_a   4.85647058
_cell_length_b   5.11025620
_cell_length_c   6.87391758
_cell_angle_alpha   68.17866516
_cell_angle_beta   69.62779236
_cell_angle_gamma   90.00000000
_symmetry_Int_Tables_number   1
_chemical_formula_structural   PCO9
_chemical_formula_sum   'P1 C1 O9'
_cell_volume   146.81563871
_cell_formula_units_Z   1
loop_
 _symmetry_equiv_pos_site_id
 _symmetry_equiv_pos_as_xyz
  1  'x, y, z'
loop_
 _atom_site_type_symbol
 _atom_site_label
 _atom_site_symmetry_multiplicity
 _atom_site_fract_x
 _atom_site_fract_y
 _atom_site_fract_z
 _atom_site_occupancy
  P  P0  1  0.00000000  0.00000000  0.00000000  1
  O  O1  1  0.70864398  0.65233798  0.69532400  1
  C  C2  1  0.29135599  0.34766199  0.30467600  1
  O  O3  1  0.53255498  0.84346398  0.76876599  1
  O  O4  1  0.14910199  0.22953599  0.54092799  1
  O  O5  1  0.53255498  0.38776999  0.76876600  1
  O  O6  1  0.92622097  0.60081698  0.79836601  1
  O  O7  1  0.46744498  0.61222998  0.23123400  1
  O  O8  1  0.46744499  0.15653600  0.23123401  1
  O  O9  1  0.85089797  0.77046398  0.45907201  1
  O  O10  1  0.07377899  0.39918299  0.20163399  1
