# generated using pymatgen
data_Dy2Ga7
_symmetry_space_group_name_H-M   'P 1'
_cell_length_a   6.56835079
_cell_length_b   7.95140409
_cell_length_c   7.95140505
_cell_angle_alpha   60.00000381
_cell_angle_beta   90.00000000
_cell_angle_gamma   90.00000000
_symmetry_Int_Tables_number   1
_chemical_formula_structural   Dy2Ga7
_chemical_formula_sum   'Dy4 Ga14'
_cell_volume   359.64554876
_cell_formula_units_Z   2
loop_
 _symmetry_equiv_pos_site_id
 _symmetry_equiv_pos_as_xyz
  1  'x, y, z'
loop_
 _atom_site_type_symbol
 _atom_site_label
 _atom_site_symmetry_multiplicity
 _atom_site_fract_x
 _atom_site_fract_y
 _atom_site_fract_z
 _atom_site_occupancy
  Dy  Dy0  1  0.00000000  0.00000000  0.70899399  1
  Dy  Dy1  1  0.50000002  0.29100600  0.99999999  1
  Dy  Dy2  1  0.50000002  0.70899399  0.29100599  1
  Dy  Dy3  1  0.00000000  0.70899399  0.29100599  1
  Ga  Ga4  1  0.00000000  0.29100600  0.99999999  1
  Ga  Ga5  1  0.50000002  0.00000000  0.70899399  1
  Ga  Ga6  1  0.75000002  0.99010899  0.37256999  1
  Ga  Ga7  1  0.75000002  0.63732099  0.99010899  1
  Ga  Ga8  1  0.75000002  0.37257000  0.63732099  1
  Ga  Ga9  1  0.25000001  0.00989100  0.36267900  1
  Ga  Ga10  1  0.25000001  0.62742999  0.00989100  1
  Ga  Ga11  1  0.25000001  0.36267900  0.62742999  1
  Ga  Ga12  1  0.75000002  0.00000000  0.00000000  1
  Ga  Ga13  1  0.25000001  0.00000000  0.00000000  1
  Ga  Ga14  1  0.97622803  0.33333333  0.33333333  1
  Ga  Ga15  1  0.52377202  0.33333333  0.33333333  1
  Ga  Ga16  1  0.02377200  0.66666666  0.66666666  1
  Ga  Ga17  1  0.47622802  0.66666666  0.66666666  1
