# generated using pymatgen
data_LiCrO2
_symmetry_space_group_name_H-M   'P 1'
_cell_length_a   5.35659409
_cell_length_b   5.67163610
_cell_length_c   5.67163610
_cell_angle_alpha   76.99446869
_cell_angle_beta   66.29376221
_cell_angle_gamma   113.70623779
_symmetry_Int_Tables_number   1
_chemical_formula_structural   LiCrO2
_chemical_formula_sum   'Li2 Cr2 O4'
_cell_volume   128.17177160
_cell_formula_units_Z   2
loop_
 _symmetry_equiv_pos_site_id
 _symmetry_equiv_pos_as_xyz
  1  'x, y, z'
loop_
 _atom_site_type_symbol
 _atom_site_label
 _atom_site_symmetry_multiplicity
 _atom_site_fract_x
 _atom_site_fract_y
 _atom_site_fract_z
 _atom_site_occupancy
  Li  Li0  1  0.74999996  0.54837397  0.54837400  1
  Li  Li1  1  0.24999998  0.45162597  0.45162600  1
  Cr  Cr2  1  0.74999997  0.10444399  0.10444399  1
  Cr  Cr3  1  0.24999997  0.89555595  0.89555601  1
  O  O4  1  0.76077597  0.19416999  0.73333997  1
  O  O5  1  0.26077599  0.26665998  0.80582998  1
  O  O6  1  0.73922396  0.73333996  0.19417002  1
  O  O7  1  0.23922398  0.80582995  0.26666003  1
