# generated using pymatgen
data_DySn2
_symmetry_space_group_name_H-M   'P 1'
_cell_length_a   4.03193903
_cell_length_b   4.17545223
_cell_length_c   8.70929241
_cell_angle_alpha   103.86956787
_cell_angle_beta   90.00000000
_cell_angle_gamma   90.00000000
_symmetry_Int_Tables_number   1
_chemical_formula_structural   DySn2
_chemical_formula_sum   'Dy2 Sn4'
_cell_volume   142.34747629
_cell_formula_units_Z   2
loop_
 _symmetry_equiv_pos_site_id
 _symmetry_equiv_pos_as_xyz
  1  'x, y, z'
loop_
 _atom_site_type_symbol
 _atom_site_label
 _atom_site_symmetry_multiplicity
 _atom_site_fract_x
 _atom_site_fract_y
 _atom_site_fract_z
 _atom_site_occupancy
  Dy  Dy0  1  0.74999999  0.89253794  0.78507601  1
  Dy  Dy1  1  0.25000000  0.10746199  0.21492401  1
  Sn  Sn2  1  0.74999999  0.54891196  0.09782399  1
  Sn  Sn3  1  0.25000000  0.45108797  0.90217603  1
  Sn  Sn4  1  0.25000000  0.74877695  0.49755400  1
  Sn  Sn5  1  0.74999999  0.25122298  0.50244601  1
