# generated using pymatgen
data_LiVS2
_symmetry_space_group_name_H-M   'P 1'
_cell_length_a   3.44144201
_cell_length_b   3.44144177
_cell_length_c   6.22818899
_cell_angle_alpha   90.00000000
_cell_angle_beta   90.00000000
_cell_angle_gamma   120.00000000
_symmetry_Int_Tables_number   1
_chemical_formula_structural   LiVS2
_chemical_formula_sum   'Li1 V1 S2'
_cell_volume   63.88123397
_cell_formula_units_Z   1
loop_
 _symmetry_equiv_pos_site_id
 _symmetry_equiv_pos_as_xyz
  1  'x, y, z'
loop_
 _atom_site_type_symbol
 _atom_site_label
 _atom_site_symmetry_multiplicity
 _atom_site_fract_x
 _atom_site_fract_y
 _atom_site_fract_z
 _atom_site_occupancy
  Li  Li0  1  0.00000000  0.00000000  0.50000000  1
  V  V1  1  0.00000000  0.00000000  0.00000000  1
  S  S2  1  0.33333331  0.66666667  0.23666000  1
  S  S3  1  0.66666665  0.33333333  0.76334000  1
