# generated using pymatgen
data_NaTiO3
_symmetry_space_group_name_H-M   'P 1'
_cell_length_a   3.45973396
_cell_length_b   3.95162010
_cell_length_c   9.71127605
_cell_angle_alpha   101.73908234
_cell_angle_beta   100.26084137
_cell_angle_gamma   90.00000000
_symmetry_Int_Tables_number   1
_chemical_formula_structural   NaTiO3
_chemical_formula_sum   'Na2 Ti2 O6'
_cell_volume   127.82180843
_cell_formula_units_Z   2
loop_
 _symmetry_equiv_pos_site_id
 _symmetry_equiv_pos_as_xyz
  1  'x, y, z'
loop_
 _atom_site_type_symbol
 _atom_site_label
 _atom_site_symmetry_multiplicity
 _atom_site_fract_x
 _atom_site_fract_y
 _atom_site_fract_z
 _atom_site_occupancy
  Na  Na0  1  0.60577501  0.60577498  0.21155000  1
  Na  Na1  1  0.39422500  0.39422499  0.78845003  1
  Ti  Ti2  1  0.00000000  0.00000000  0.00000000  1
  Ti  Ti3  1  0.21206200  0.21206199  0.42412402  1
  O  O4  1  0.78793801  0.78793797  0.57587602  1
  O  O5  1  0.89616701  0.89616697  0.79233403  1
  O  O6  1  0.10383300  0.10383300  0.20766601  1
  O  O7  1  -0.00000000  0.49999998  -0.00000001  1
  O  O8  1  0.21917600  0.71917598  0.43835201  1
  O  O9  1  0.78082401  0.28082399  0.56164803  1
