# generated using pymatgen
data_Sr(SiPt)2
_symmetry_space_group_name_H-M   'P 1'
_cell_length_a   4.34932423
_cell_length_b   4.34932423
_cell_length_c   6.03538132
_cell_angle_alpha   111.11978149
_cell_angle_beta   111.11978149
_cell_angle_gamma   90.00000000
_symmetry_Int_Tables_number   1
_chemical_formula_structural   Sr(SiPt)2
_chemical_formula_sum   'Sr1 Si2 Pt2'
_cell_volume   98.23450554
_cell_formula_units_Z   1
loop_
 _symmetry_equiv_pos_site_id
 _symmetry_equiv_pos_as_xyz
  1  'x, y, z'
loop_
 _atom_site_type_symbol
 _atom_site_label
 _atom_site_symmetry_multiplicity
 _atom_site_fract_x
 _atom_site_fract_y
 _atom_site_fract_z
 _atom_site_occupancy
  Sr  Sr0  1  0.00000000  0.00000000  0.00000000  1
  Si  Si1  1  0.64035496  0.64035496  0.28070999  1
  Si  Si2  1  0.35964498  0.35964498  0.71929000  1
  Pt  Pt3  1  0.74999995  0.24999999  0.50000000  1
  Pt  Pt4  1  0.24999998  0.74999996  0.50000000  1
