# generated using pymatgen
data_LuAg3
_symmetry_space_group_name_H-M   'P 1'
_cell_length_a   4.52757215
_cell_length_b   4.52757215
_cell_length_c   4.52757215
_cell_angle_alpha   90.00000000
_cell_angle_beta   90.00000000
_cell_angle_gamma   90.00000000
_symmetry_Int_Tables_number   1
_chemical_formula_structural   LuAg3
_chemical_formula_sum   'Lu1 Ag3'
_cell_volume   92.81029240
_cell_formula_units_Z   1
loop_
 _symmetry_equiv_pos_site_id
 _symmetry_equiv_pos_as_xyz
  1  'x, y, z'
loop_
 _atom_site_type_symbol
 _atom_site_label
 _atom_site_symmetry_multiplicity
 _atom_site_fract_x
 _atom_site_fract_y
 _atom_site_fract_z
 _atom_site_occupancy
  Lu  Lu0  1  0.00000000  0.49999998  0.49999998  1
  Ag  Ag1  1  0.49999998  0.00000000  0.49999998  1
  Ag  Ag2  1  0.49999998  0.49999998  0.00000000  1
  Ag  Ag3  1  0.00000000  0.00000000  0.00000000  1
