# generated using pymatgen
data_AlSi
_symmetry_space_group_name_H-M   'P 1'
_cell_length_a   5.57221699
_cell_length_b   5.57221699
_cell_length_c   5.57221699
_cell_angle_alpha   90.00000000
_cell_angle_beta   90.00000000
_cell_angle_gamma   90.00000000
_symmetry_Int_Tables_number   1
_chemical_formula_structural   AlSi
_chemical_formula_sum   'Al4 Si4'
_cell_volume   173.01512060
_cell_formula_units_Z   4
loop_
 _symmetry_equiv_pos_site_id
 _symmetry_equiv_pos_as_xyz
  1  'x, y, z'
loop_
 _atom_site_type_symbol
 _atom_site_label
 _atom_site_symmetry_multiplicity
 _atom_site_fract_x
 _atom_site_fract_y
 _atom_site_fract_z
 _atom_site_occupancy
  Al  Al0  1  -0.00000000  0.50000000  0.50000000  1
  Al  Al1  1  0.50000000  0.00000000  0.50000000  1
  Al  Al2  1  0.50000000  0.50000000  0.00000000  1
  Al  Al3  1  0.00000000  0.00000000  0.00000000  1
  Si  Si4  1  0.26271400  0.26271400  0.26271400  1
  Si  Si5  1  0.73728600  0.73728600  0.26271400  1
  Si  Si6  1  0.26271400  0.73728600  0.73728600  1
  Si  Si7  1  0.73728600  0.26271400  0.73728600  1
