# generated using pymatgen
data_LiBiO3
_symmetry_space_group_name_H-M   'P 1'
_cell_length_a   5.14721060
_cell_length_b   5.14765596
_cell_length_c   5.92499399
_cell_angle_alpha   64.25293732
_cell_angle_beta   64.27576447
_cell_angle_gamma   60.00594711
_symmetry_Int_Tables_number   1
_chemical_formula_structural   LiBiO3
_chemical_formula_sum   'Li2 Bi2 O6'
_cell_volume   117.63804621
_cell_formula_units_Z   2
loop_
 _symmetry_equiv_pos_site_id
 _symmetry_equiv_pos_as_xyz
  1  'x, y, z'
loop_
 _atom_site_type_symbol
 _atom_site_label
 _atom_site_symmetry_multiplicity
 _atom_site_fract_x
 _atom_site_fract_y
 _atom_site_fract_z
 _atom_site_occupancy
  Li  Li0  1  0.66176802  0.66205302  0.01432400  1
  Li  Li1  1  0.33822001  0.33794301  0.98570398  1
  Bi  Bi2  1  0.86203402  0.86163603  0.41463599  1
  Bi  Bi3  1  0.13801700  0.13842400  0.58521499  1
  O  O4  1  0.93995102  0.30500701  0.20894199  1
  O  O5  1  0.45391201  0.06025000  0.79091498  1
  O  O6  1  0.69490002  0.45412101  0.79100898  1
  O  O7  1  0.30503601  0.54592302  0.20903400  1
  O  O8  1  0.54613302  0.93972203  0.20912200  1
  O  O9  1  0.06003001  0.69492102  0.79109899  1
