# generated using pymatgen
data_La3YC8
_symmetry_space_group_name_H-M   'P 1'
_cell_length_a   3.90105891
_cell_length_b   3.90105891
_cell_length_c   12.94043636
_cell_angle_alpha   90.00000000
_cell_angle_beta   90.00000000
_cell_angle_gamma   90.00000000
_symmetry_Int_Tables_number   1
_chemical_formula_structural   La3YC8
_chemical_formula_sum   'La3 Y1 C8'
_cell_volume   196.93093333
_cell_formula_units_Z   1
loop_
 _symmetry_equiv_pos_site_id
 _symmetry_equiv_pos_as_xyz
  1  'x, y, z'
loop_
 _atom_site_type_symbol
 _atom_site_label
 _atom_site_symmetry_multiplicity
 _atom_site_fract_x
 _atom_site_fract_y
 _atom_site_fract_z
 _atom_site_occupancy
  La  La0  1  0.50000001  0.50000001  0.75011998  1
  La  La1  1  0.00000000  0.00000000  0.49999999  1
  La  La2  1  0.50000001  0.50000001  0.24987999  1
  Y  Y3  1  0.00000000  0.00000000  0.00000000  1
  C  C4  1  0.00000000  0.00000000  0.80619098  1
  C  C5  1  0.50000001  0.50000001  0.55018498  1
  C  C6  1  0.00000000  0.00000000  0.29441399  1
  C  C7  1  0.50000001  0.50000001  0.05004100  1
  C  C8  1  0.50000001  0.50000001  0.94995897  1
  C  C9  1  0.00000000  0.00000000  0.70558598  1
  C  C10  1  0.50000001  0.50000001  0.44981499  1
  C  C11  1  0.00000000  0.00000000  0.19380899  1
