# generated using pymatgen
data_Na2O2
_symmetry_space_group_name_H-M   'P 1'
_cell_length_a   3.32490611
_cell_length_b   3.32490587
_cell_length_c   8.93644524
_cell_angle_alpha   90.00000000
_cell_angle_beta   90.00000000
_cell_angle_gamma   120.00000000
_symmetry_Int_Tables_number   1
_chemical_formula_structural   Na2O2
_chemical_formula_sum   'Na2 O2'
_cell_volume   85.55672877
_cell_formula_units_Z   1
loop_
 _symmetry_equiv_pos_site_id
 _symmetry_equiv_pos_as_xyz
  1  'x, y, z'
loop_
 _atom_site_type_symbol
 _atom_site_label
 _atom_site_symmetry_multiplicity
 _atom_site_fract_x
 _atom_site_fract_y
 _atom_site_fract_z
 _atom_site_occupancy
  Na  Na0  1  0.33333332  0.66666668  0.49999999  1
  Na  Na1  1  0.00000000  0.00000000  0.00000000  1
  O  O2  1  0.00000000  0.00000000  0.32442099  1
  O  O3  1  0.00000000  0.00000000  0.67557898  1
