# generated using pymatgen
data_Sr5Si3O
_symmetry_space_group_name_H-M   'P 1'
_cell_length_a   8.39427185
_cell_length_b   9.65630341
_cell_length_c   8.39427185
_cell_angle_alpha   115.76318359
_cell_angle_beta   90.00000000
_cell_angle_gamma   115.76318359
_symmetry_Int_Tables_number   1
_chemical_formula_structural   Sr5Si3O
_chemical_formula_sum   'Sr10 Si6 O2'
_cell_volume   536.69315682
_cell_formula_units_Z   2
loop_
 _symmetry_equiv_pos_site_id
 _symmetry_equiv_pos_as_xyz
  1  'x, y, z'
loop_
 _atom_site_type_symbol
 _atom_site_label
 _atom_site_symmetry_multiplicity
 _atom_site_fract_x
 _atom_site_fract_y
 _atom_site_fract_z
 _atom_site_occupancy
  Sr  Sr0  1  0.50000001  0.00000000  0.50000001  1
  Sr  Sr1  1  0.00000000  0.00000000  0.00000000  1
  Sr  Sr2  1  0.48642502  0.30249701  0.31607202  1
  Sr  Sr3  1  0.81607203  0.30249701  0.98642503  1
  Sr  Sr4  1  0.98642503  0.30249701  0.48642502  1
  Sr  Sr5  1  0.31607202  0.30249701  0.81607203  1
  Sr  Sr6  1  0.51357505  0.69750302  0.68392805  1
  Sr  Sr7  1  0.18392804  0.69750302  0.01357504  1
  Sr  Sr8  1  0.01357504  0.69750302  0.51357505  1
  Sr  Sr9  1  0.68392805  0.69750302  0.18392804  1
  Si  Si10  1  0.75000004  0.50000001  0.75000004  1
  Si  Si11  1  0.25000003  0.50000001  0.25000003  1
  Si  Si12  1  0.12411600  0.00000000  0.37588401  1
  Si  Si13  1  0.87588402  0.00000000  0.62411601  1
  Si  Si14  1  0.62411607  1.00000002  0.12411606  1
  Si  Si15  1  0.37588401  0.00000000  0.87588402  1
  O  O16  1  0.75000004  0.50000001  0.25000003  1
  O  O17  1  0.25000003  0.50000001  0.75000004  1
