# generated using pymatgen
data_K2Na3Ag2F11
_symmetry_space_group_name_H-M   'P 1'
_cell_length_a   7.01175737
_cell_length_b   7.01175737
_cell_length_c   7.50972700
_cell_angle_alpha   90.63313293
_cell_angle_beta   90.63313293
_cell_angle_gamma   117.84817505
_symmetry_Int_Tables_number   1
_chemical_formula_structural   K2Na3Ag2F11
_chemical_formula_sum   'K2 Na3 Ag2 F11'
_cell_volume   326.37977770
_cell_formula_units_Z   1
loop_
 _symmetry_equiv_pos_site_id
 _symmetry_equiv_pos_as_xyz
  1  'x, y, z'
loop_
 _atom_site_type_symbol
 _atom_site_label
 _atom_site_symmetry_multiplicity
 _atom_site_fract_x
 _atom_site_fract_y
 _atom_site_fract_z
 _atom_site_occupancy
  Na  Na0  1  0.35667502  0.67463100  0.99877895  1
  K  K1  1  0.32536902  0.64332500  0.50122095  1
  K  K2  1  0.67463100  0.35667500  0.49877895  1
  Na  Na3  1  0.64332500  0.32536900  0.00122095  1
  Ag  Ag4  1  0.03907503  0.96092500  0.24999995  1
  Na  Na5  1  0.96092499  0.03907500  0.74999995  1
  F  F6  1  0.87049199  0.07366900  0.04528495  1
  Ag  Ag7  1  0.92633099  0.12950800  0.45471495  1
  F  F8  1  0.12950803  0.92633100  0.95471495  1
  F  F9  1  0.07366903  0.87049200  0.54528495  1
  F  F10  1  0.99547300  0.38137700  0.76767793  1
  F  F11  1  0.61862299  0.00452700  0.73232197  1
  F  F12  1  0.29752001  0.30788000  0.23558297  1
  F  F13  1  0.69212001  0.70248000  0.26441693  1
  F  F14  1  0.70248001  0.69212000  0.76441693  1
  F  F15  1  0.30788000  0.29752000  0.73558297  1
  F  F16  1  0.38137703  0.99547300  0.26767793  1
  F  F17  1  0.00452702  0.61862300  0.23232197  1
