# generated using pymatgen
data_K3VO3
_symmetry_space_group_name_H-M   'P 1'
_cell_length_a   6.61109447
_cell_length_b   6.74441290
_cell_length_c   6.74441290
_cell_angle_alpha   64.58548737
_cell_angle_beta   84.08230591
_cell_angle_gamma   95.91769409
_symmetry_Int_Tables_number   1
_chemical_formula_structural   K3VO3
_chemical_formula_sum   'K6 V2 O6'
_cell_volume   266.51211104
_cell_formula_units_Z   2
loop_
 _symmetry_equiv_pos_site_id
 _symmetry_equiv_pos_as_xyz
  1  'x, y, z'
loop_
 _atom_site_type_symbol
 _atom_site_label
 _atom_site_symmetry_multiplicity
 _atom_site_fract_x
 _atom_site_fract_y
 _atom_site_fract_z
 _atom_site_occupancy
  K  K0  1  0.64614999  0.37235001  0.62764996  1
  K  K1  1  0.49999999  0.19585600  0.19585598  1
  K  K2  1  0.50000000  0.80414402  0.80414393  1
  K  K3  1  0.00000000  0.25956501  0.25956498  1
  K  K4  1  0.35385000  0.62765001  0.37234995  1
  K  K5  1  0.00000001  0.74043502  0.74043494  1
  V  V6  1  0.14447900  0.17167700  0.82832298  1
  V  V7  1  0.85552100  0.82832302  0.17167694  1
  O  O8  1  0.26358100  0.43185701  0.83877296  1
  O  O9  1  0.83866999  0.09930600  0.90069398  1
  O  O10  1  0.16133001  0.90069402  0.09930593  1
  O  O11  1  0.73641899  0.56814301  0.16122695  1
  O  O12  1  0.73641900  0.83877302  0.43185693  1
  O  O13  1  0.26358100  0.16122700  0.56814298  1
