# generated using pymatgen
data_Ce2Ge7
_symmetry_space_group_name_H-M   'P 1'
_cell_length_a   4.13258314
_cell_length_b   4.19927120
_cell_length_c   11.47907066
_cell_angle_alpha   90.00000000
_cell_angle_beta   100.37005615
_cell_angle_gamma   90.00000000
_symmetry_Int_Tables_number   1
_chemical_formula_structural   Ce2Ge7
_chemical_formula_sum   'Ce2 Ge7'
_cell_volume   195.95203202
_cell_formula_units_Z   1
loop_
 _symmetry_equiv_pos_site_id
 _symmetry_equiv_pos_as_xyz
  1  'x, y, z'
loop_
 _atom_site_type_symbol
 _atom_site_label
 _atom_site_symmetry_multiplicity
 _atom_site_fract_x
 _atom_site_fract_y
 _atom_site_fract_z
 _atom_site_occupancy
  Ce  Ce0  1  0.77935098  0.49999998  0.55870201  1
  Ce  Ce1  1  0.11535300  0.49999998  0.23070700  1
  Ge  Ge2  1  0.49550398  0.49999998  0.99100801  1
  Ge  Ge3  1  0.38501099  0.49999998  0.77002201  1
  Ge  Ge4  1  0.99375797  0.00000000  0.98751702  1
  Ge  Ge5  1  0.88294697  0.00000000  0.76589401  1
  Ge  Ge6  1  0.66585598  0.00000000  0.33171301  1
  Ge  Ge7  1  0.23255799  0.00000000  0.46511701  1
  Ge  Ge8  1  0.55666098  0.00000000  0.11332100  1
