# generated using pymatgen
data_NaWO4
_symmetry_space_group_name_H-M   'P 1'
_cell_length_a   5.32080793
_cell_length_b   5.32080793
_cell_length_c   6.79161310
_cell_angle_alpha   113.06149292
_cell_angle_beta   113.06151581
_cell_angle_gamma   90.00000000
_symmetry_Int_Tables_number   1
_chemical_formula_structural   NaWO4
_chemical_formula_sum   'Na2 W2 O8'
_cell_volume   160.07737029
_cell_formula_units_Z   2
loop_
 _symmetry_equiv_pos_site_id
 _symmetry_equiv_pos_as_xyz
  1  'x, y, z'
loop_
 _atom_site_type_symbol
 _atom_site_label
 _atom_site_symmetry_multiplicity
 _atom_site_fract_x
 _atom_site_fract_y
 _atom_site_fract_z
 _atom_site_occupancy
  Na  Na0  1  0.87500003  0.62500000  0.75000001  1
  Na  Na1  1  0.12500001  0.37500000  0.24999999  1
  W  W2  1  0.37500001  0.12500000  0.75000001  1
  W  W3  1  0.62500002  0.87500000  0.25000000  1
  O  O4  1  0.44225302  0.79541300  0.57143699  1
  O  O5  1  0.12918501  0.27602300  0.57143699  1
  O  O6  1  0.77980603  0.94688800  0.07522100  1
  O  O7  1  0.29541501  0.62833300  0.07522099  1
  O  O8  1  0.55311202  0.20458500  0.42477901  1
  O  O9  1  0.87166703  0.72019400  0.42477901  1
  O  O10  1  0.22397601  0.05774800  0.92856300  1
  O  O11  1  0.70458602  0.37081600  0.92856301  1
