# generated using pymatgen
data_Nb3Ag5S12
_symmetry_space_group_name_H-M   'P 1'
_cell_length_a   3.66086006
_cell_length_b   8.87906742
_cell_length_c   12.84671307
_cell_angle_alpha   90.00000000
_cell_angle_beta   90.00000000
_cell_angle_gamma   90.00000000
_symmetry_Int_Tables_number   1
_chemical_formula_structural   Nb3Ag5S12
_chemical_formula_sum   'Nb3 Ag5 S12'
_cell_volume   417.58270762
_cell_formula_units_Z   1
loop_
 _symmetry_equiv_pos_site_id
 _symmetry_equiv_pos_as_xyz
  1  'x, y, z'
loop_
 _atom_site_type_symbol
 _atom_site_label
 _atom_site_symmetry_multiplicity
 _atom_site_fract_x
 _atom_site_fract_y
 _atom_site_fract_z
 _atom_site_occupancy
  Nb  Nb0  1  0.74999999  0.34336498  0.45634000  1
  Nb  Nb1  1  0.25000000  0.65663497  0.54366000  1
  Nb  Nb2  1  0.74999999  0.84336496  0.04366000  1
  Ag  Ag3  1  0.25000000  0.15663499  0.95634000  1
  Ag  Ag4  1  0.74999999  0.97440195  0.65972200  1
  Ag  Ag5  1  0.25000000  0.02559800  0.34027800  1
  Ag  Ag6  1  0.74999999  0.47440198  0.84027800  1
  Ag  Ag7  1  0.25000000  0.52559798  0.15972200  1
  S  S8  1  0.74999999  0.21180499  0.29092500  1
  S  S9  1  0.25000000  0.17342399  0.51310100  1
  S  S10  1  0.74999999  0.32657598  0.01310100  1
  S  S11  1  0.25000000  0.67342397  0.98689899  1
  S  S12  1  0.25000000  0.49659398  0.39558000  1
  S  S13  1  0.74999999  0.50340598  0.60442000  1
  S  S14  1  0.25000000  0.99659395  0.10442000  1
  S  S15  1  0.25000000  0.78819496  0.70907500  1
  S  S16  1  0.74999999  0.71180497  0.20907500  1
  S  S17  1  0.25000000  0.28819499  0.79092500  1
  S  S18  1  0.74999999  0.00340600  0.89558000  1
  S  S19  1  0.74999999  0.82657596  0.48689900  1
