# generated using pymatgen
data_Sr2InAu3
_symmetry_space_group_name_H-M   'P 1'
_cell_length_a   4.88282013
_cell_length_b   6.14724207
_cell_length_c   6.27246618
_cell_angle_alpha   76.56005096
_cell_angle_beta   67.09362030
_cell_angle_gamma   66.59953308
_symmetry_Int_Tables_number   1
_chemical_formula_structural   Sr2InAu3
_chemical_formula_sum   'Sr2 In1 Au3'
_cell_volume   158.48641792
_cell_formula_units_Z   1
loop_
 _symmetry_equiv_pos_site_id
 _symmetry_equiv_pos_as_xyz
  1  'x, y, z'
loop_
 _atom_site_type_symbol
 _atom_site_label
 _atom_site_symmetry_multiplicity
 _atom_site_fract_x
 _atom_site_fract_y
 _atom_site_fract_z
 _atom_site_occupancy
  Sr  Sr0  1  0.45784498  0.28568600  0.79862399  1
  Sr  Sr1  1  0.54362597  0.70497201  0.20777598  1
  In  In2  1  0.83346096  0.73119201  0.60188597  1
  Au  Au3  1  0.15816999  0.29484400  0.38881599  1
  Au  Au4  1  0.16737097  0.87066201  0.79459599  1
  Au  Au5  1  0.83952698  0.11264500  0.20830098  1
