# generated using pymatgen
data_LaNiO3
_symmetry_space_group_name_H-M   'P 1'
_cell_length_a   5.53722286
_cell_length_b   5.53806448
_cell_length_c   5.53921509
_cell_angle_alpha   61.31362152
_cell_angle_beta   61.33205795
_cell_angle_gamma   61.33856583
_symmetry_Int_Tables_number   1
_chemical_formula_structural   LaNiO3
_chemical_formula_sum   'La2 Ni2 O6'
_cell_volume   123.69616253
_cell_formula_units_Z   2
loop_
 _symmetry_equiv_pos_site_id
 _symmetry_equiv_pos_as_xyz
  1  'x, y, z'
loop_
 _atom_site_type_symbol
 _atom_site_label
 _atom_site_symmetry_multiplicity
 _atom_site_fract_x
 _atom_site_fract_y
 _atom_site_fract_z
 _atom_site_occupancy
  La  La0  1  0.75073804  0.75070703  0.75064198  1
  La  La1  1  0.24926201  0.24929201  0.24935899  1
  Ni  Ni2  1  0.50000003  0.50000002  0.49999999  1
  Ni  Ni3  1  0.00000000  0.00000000  0.00000000  1
  O  O4  1  0.31837404  0.75986503  0.16953997  1
  O  O5  1  0.75974102  0.16959901  0.31855000  1
  O  O6  1  0.16958402  0.31852501  0.75977200  1
  O  O7  1  0.68162602  0.24013601  0.83045901  1
  O  O8  1  0.83041704  0.68147403  0.24022798  1
  O  O9  1  0.24025804  0.83040103  0.68144998  1
