# generated using pymatgen
data_LaNi5Ge3
_symmetry_space_group_name_H-M   'P 1'
_cell_length_a   3.81436992
_cell_length_b   7.27195406
_cell_length_c   9.46797657
_cell_angle_alpha   101.13146210
_cell_angle_beta   90.00000000
_cell_angle_gamma   90.00000000
_symmetry_Int_Tables_number   1
_chemical_formula_structural   LaNi5Ge3
_chemical_formula_sum   'La2 Ni10 Ge6'
_cell_volume   257.68124264
_cell_formula_units_Z   2
loop_
 _symmetry_equiv_pos_site_id
 _symmetry_equiv_pos_as_xyz
  1  'x, y, z'
loop_
 _atom_site_type_symbol
 _atom_site_label
 _atom_site_symmetry_multiplicity
 _atom_site_fract_x
 _atom_site_fract_y
 _atom_site_fract_z
 _atom_site_occupancy
  La  La0  1  0.75000002  0.69587899  0.28136301  1
  La  La1  1  0.25000001  0.30412100  0.71863703  1
  Ni  Ni2  1  0.75000002  0.38223200  0.99872104  1
  Ni  Ni3  1  0.25000001  0.61776800  0.00127900  1
  Ni  Ni4  1  0.25000001  0.12267000  0.99509904  1
  Ge  Ge5  1  0.75000002  0.87732999  0.00490100  1
  Ni  Ni6  1  0.75000002  0.18435400  0.20562301  1
  Ni  Ni7  1  0.25000001  0.81564599  0.79437703  1
  Ge  Ge8  1  0.25000001  0.42327400  0.41875302  1
  Ge  Ge9  1  0.75000002  0.57672600  0.58124703  1
  Ge  Ge10  1  0.25000001  0.03414200  0.42017902  1
  Ge  Ge11  1  0.75000002  0.96585799  0.57982103  1
  Ni  Ni12  1  0.25000001  0.39905100  0.16169801  1
  Ni  Ni13  1  0.75000002  0.60094900  0.83830204  1
  Ni  Ni14  1  0.25000001  0.92757199  0.15811101  1
  Ni  Ni15  1  0.75000002  0.07242800  0.84188903  1
  Ni  Ni16  1  0.75000002  0.24440200  0.47270502  1
  Ge  Ge17  1  0.25000001  0.75559799  0.52729502  1
