# generated using pymatgen
data_LaBi7O12
_symmetry_space_group_name_H-M   'P 1'
_cell_length_a   6.94881201
_cell_length_b   6.94881201
_cell_length_c   6.94881105
_cell_angle_alpha   92.29217529
_cell_angle_beta   92.29217529
_cell_angle_gamma   92.29216766
_symmetry_Int_Tables_number   1
_chemical_formula_structural   LaBi7O12
_chemical_formula_sum   'La1 Bi7 O12'
_cell_volume   334.70263957
_cell_formula_units_Z   1
loop_
 _symmetry_equiv_pos_site_id
 _symmetry_equiv_pos_as_xyz
  1  'x, y, z'
loop_
 _atom_site_type_symbol
 _atom_site_label
 _atom_site_symmetry_multiplicity
 _atom_site_fract_x
 _atom_site_fract_y
 _atom_site_fract_z
 _atom_site_occupancy
  La  La0  1  0.25372997  0.56028998  0.06788600  1
  Bi  Bi1  1  0.93211395  0.74626998  0.43971002  1
  Bi  Bi2  1  0.43970996  0.93211397  0.74627002  1
  Bi  Bi3  1  0.56028998  0.06788600  0.25373001  1
  Bi  Bi4  1  0.06788599  0.25372999  0.56029002  1
  Bi  Bi5  1  0.74626997  0.43970999  0.93211403  1
  Bi  Bi6  1  0.00000000  0.00000000  0.00000000  1
  Bi  Bi7  1  0.49999997  0.49999999  0.50000002  1
  O  O8  1  0.29762696  0.92105898  0.06418200  1
  O  O9  1  0.93581795  0.70237298  0.07894100  1
  O  O10  1  0.58773496  0.79650998  0.46055202  1
  O  O11  1  0.07894096  0.93581797  0.70237302  1
  O  O12  1  0.53944797  0.41226499  0.20349001  1
  O  O13  1  0.20348998  0.53944799  0.41226501  1
  O  O14  1  0.79650996  0.46055199  0.58773502  1
  O  O15  1  0.46055197  0.58773498  0.79651002  1
  O  O16  1  0.92105897  0.06418200  0.29762701  1
  O  O17  1  0.41226498  0.20348999  0.53944802  1
  O  O18  1  0.06418199  0.29762699  0.92105903  1
  O  O19  1  0.70237298  0.07894100  0.93581803  1
