# generated using pymatgen
data_TiV4Cu3I4(NO)2
_symmetry_space_group_name_H-M   'P 1'
_cell_length_a   3.59919405
_cell_length_b   12.17420483
_cell_length_c   12.17420483
_cell_angle_alpha   112.06672668
_cell_angle_beta   90.00000000
_cell_angle_gamma   90.00000000
_symmetry_Int_Tables_number   1
_chemical_formula_structural   TiV4Cu3I4(NO)2
_chemical_formula_sum   'Ti1 V4 Cu3 I4 N2 O2'
_cell_volume   494.36491392
_cell_formula_units_Z   1
loop_
 _symmetry_equiv_pos_site_id
 _symmetry_equiv_pos_as_xyz
  1  'x, y, z'
loop_
 _atom_site_type_symbol
 _atom_site_label
 _atom_site_symmetry_multiplicity
 _atom_site_fract_x
 _atom_site_fract_y
 _atom_site_fract_z
 _atom_site_occupancy
  V  V0  1  0.00000000  0.81377303  0.18622701  1
  Ti  Ti1  1  0.00000000  0.18622701  0.81377303  1
  Cu  Cu2  1  0.00000000  0.71527203  0.71527203  1
  Cu  Cu3  1  0.00000000  0.28472801  0.28472801  1
  V  V4  1  0.49999999  0.88105404  0.11894601  1
  V  V5  1  0.49999999  0.11894600  0.88105403  1
  Cu  Cu6  1  0.00000000  0.53679202  0.71286503  1
  V  V7  1  0.00000000  0.46320802  0.28713501  1
  I  I8  1  0.00000000  0.28713501  0.46320802  1
  O  O9  1  0.00000000  0.71286503  0.53679203  1
  I  I10  1  0.49999999  0.81832403  0.81832404  1
  I  I11  1  0.49999999  0.18167601  0.18167601  1
  N  N12  1  0.00000000  0.62157403  0.11709001  1
  I  I13  1  0.00000000  0.37842602  0.88291004  1
  N  N14  1  0.00000000  0.88291004  0.37842602  1
  O  O15  1  0.00000000  0.11709000  0.62157402  1
