# generated using pymatgen
data_KNbS3
_symmetry_space_group_name_H-M   'P 1'
_cell_length_a   5.74903393
_cell_length_b   6.95228815
_cell_length_c   6.95228863
_cell_angle_alpha   60.00000381
_cell_angle_beta   90.00000000
_cell_angle_gamma   90.00000000
_symmetry_Int_Tables_number   1
_chemical_formula_structural   KNbS3
_chemical_formula_sum   'K2 Nb2 S6'
_cell_volume   240.64734676
_cell_formula_units_Z   2
loop_
 _symmetry_equiv_pos_site_id
 _symmetry_equiv_pos_as_xyz
  1  'x, y, z'
loop_
 _atom_site_type_symbol
 _atom_site_label
 _atom_site_symmetry_multiplicity
 _atom_site_fract_x
 _atom_site_fract_y
 _atom_site_fract_z
 _atom_site_occupancy
  K  K0  1  0.75000001  0.66666665  0.66666669  1
  K  K1  1  0.25000000  0.33333333  0.33333334  1
  Nb  Nb2  1  0.00000000  0.00000000  0.00000000  1
  Nb  Nb3  1  0.50000001  0.00000000  0.00000000  1
  S  S4  1  0.25000000  0.82922598  0.34154801  1
  S  S5  1  0.75000001  0.17077400  0.17077400  1
  S  S6  1  0.75000001  0.65845199  0.17077400  1
  S  S7  1  0.25000000  0.34154799  0.82922603  1
  S  S8  1  0.25000000  0.82922598  0.82922602  1
  S  S9  1  0.75000001  0.17077400  0.65845202  1
