# generated using pymatgen
data_Sr4LiFe3O10
_symmetry_space_group_name_H-M   'P 1'
_cell_length_a   3.94777107
_cell_length_b   7.58428097
_cell_length_c   7.85818005
_cell_angle_alpha   90.00000000
_cell_angle_beta   90.00000000
_cell_angle_gamma   90.00000000
_symmetry_Int_Tables_number   1
_chemical_formula_structural   Sr4LiFe3O10
_chemical_formula_sum   'Sr4 Li1 Fe3 O10'
_cell_volume   235.28180812
_cell_formula_units_Z   1
loop_
 _symmetry_equiv_pos_site_id
 _symmetry_equiv_pos_as_xyz
  1  'x, y, z'
loop_
 _atom_site_type_symbol
 _atom_site_label
 _atom_site_symmetry_multiplicity
 _atom_site_fract_x
 _atom_site_fract_y
 _atom_site_fract_z
 _atom_site_occupancy
  Sr  Sr0  1  0.00000000  0.00000000  0.50000000  1
  Sr  Sr1  1  0.00000000  0.00000000  0.00000000  1
  Sr  Sr2  1  -0.00000000  0.50000000  0.50000000  1
  Sr  Sr3  1  -0.00000000  0.50000000  0.00000000  1
  Li  Li4  1  0.49999999  0.72793400  0.75000000  1
  Fe  Fe5  1  0.49999999  0.27206600  0.25000000  1
  Fe  Fe6  1  0.49999999  0.75116900  0.25000000  1
  Fe  Fe7  1  0.49999999  0.24883100  0.75000000  1
  O  O8  1  0.00000000  0.68931700  0.75000000  1
  O  O9  1  0.49999999  0.68720700  0.49688500  1
  O  O10  1  -0.00000000  0.68545800  0.25000000  1
  O  O11  1  0.49999999  0.00851900  0.75000000  1
  O  O12  1  -0.00000000  0.31454200  0.75000000  1
  O  O13  1  0.00000000  0.31068300  0.25000000  1
  O  O14  1  0.49999999  0.31279300  0.99688499  1
  O  O15  1  0.49999999  0.31279300  0.50311500  1
  O  O16  1  0.49999999  0.68720700  0.00311500  1
  O  O17  1  0.49999999  0.99148100  0.25000000  1
