# generated using pymatgen
data_Ag7CIO10
_symmetry_space_group_name_H-M   'P 1'
_cell_length_a   7.05652618
_cell_length_b   7.05652618
_cell_length_c   7.08496809
_cell_angle_alpha   118.63154602
_cell_angle_beta   118.63154602
_cell_angle_gamma   92.16553497
_symmetry_Int_Tables_number   1
_chemical_formula_structural   Ag7CIO10
_chemical_formula_sum   'Ag7 C1 I1 O10'
_cell_volume   254.89184703
_cell_formula_units_Z   1
loop_
 _symmetry_equiv_pos_site_id
 _symmetry_equiv_pos_as_xyz
  1  'x, y, z'
loop_
 _atom_site_type_symbol
 _atom_site_label
 _atom_site_symmetry_multiplicity
 _atom_site_fract_x
 _atom_site_fract_y
 _atom_site_fract_z
 _atom_site_occupancy
  Ag  Ag0  1  0.50210388  0.50210395  0.49904188  1
  Ag  Ag1  1  0.48939579  0.99829189  0.48768779  1
  Ag  Ag2  1  0.99829186  0.48939595  0.48768785  1
  Ag  Ag3  1  0.99693777  0.99693789  0.49904175  1
  Ag  Ag4  1  0.99804386  0.49804395  0.99608786  1
  Ag  Ag5  1  0.49781689  0.49781695  0.99563390  1
  Ag  Ag6  1  0.49804379  0.99804389  0.99608780  1
  C  C7  1  0.01024400  0.01024400  0.02048800  1
  I  I8  1  0.84138995  0.05805999  0.89944995  1
  O  O9  1  0.91499684  0.63853993  0.27105882  1
  O  O10  1  0.63251991  0.35606196  0.27105990  1
  O  O11  1  0.63853980  0.91499690  0.27105979  1
  O  O12  1  0.64077190  0.36637796  0.72159890  1
  O  O13  1  0.35606187  0.63251993  0.27105886  1
  O  O14  1  0.35522097  0.08082699  0.72159898  1
  O  O15  1  0.36637786  0.64077193  0.72159887  1
  O  O16  1  0.08082693  0.35522096  0.72159894  1
  O  O17  1  0.13435397  0.13435399  0.26870797  1
  O  O18  1  0.05805984  0.84138991  0.89944986  1
