# generated using pymatgen
data_Rb2Y2TeSe5
_symmetry_space_group_name_H-M   'P 1'
_cell_length_a   5.81099892
_cell_length_b   7.96820021
_cell_length_c   7.96820021
_cell_angle_alpha   89.96909332
_cell_angle_beta   90.00000000
_cell_angle_gamma   90.00000000
_symmetry_Int_Tables_number   1
_chemical_formula_structural   Rb2Y2TeSe5
_chemical_formula_sum   'Rb2 Y2 Te1 Se5'
_cell_volume   368.95313620
_cell_formula_units_Z   1
loop_
 _symmetry_equiv_pos_site_id
 _symmetry_equiv_pos_as_xyz
  1  'x, y, z'
loop_
 _atom_site_type_symbol
 _atom_site_label
 _atom_site_symmetry_multiplicity
 _atom_site_fract_x
 _atom_site_fract_y
 _atom_site_fract_z
 _atom_site_occupancy
  Rb  Rb0  1  0.50000001  0.49258701  0.99258700  1
  Rb  Rb1  1  0.50000001  0.99428701  0.49428698  1
  Y  Y2  1  -0.00000000  0.99264501  0.99289998  1
  Y  Y3  1  -0.00000000  0.49290101  0.49264599  1
  Te  Te4  1  -0.00000000  0.18348300  0.30217100  1
  Se  Se5  1  0.50000001  0.49217501  0.49303199  1
  Se  Se6  1  0.50000001  0.99303201  0.99217498  1
  Se  Se7  1  -0.00000000  0.30136200  0.80136200  1
  Se  Se8  1  -0.00000000  0.68335601  0.18335598  1
  Se  Se9  1  -0.00000000  0.80217101  0.68348298  1
