# generated using pymatgen
data_NaCeU2O8
_symmetry_space_group_name_H-M   'P 1'
_cell_length_a   5.46356392
_cell_length_b   5.46356392
_cell_length_c   6.68738365
_cell_angle_alpha   114.11051178
_cell_angle_beta   114.11051178
_cell_angle_gamma   90.00000000
_symmetry_Int_Tables_number   1
_chemical_formula_structural   NaCeU2O8
_chemical_formula_sum   'Na1 Ce1 U2 O8'
_cell_volume   162.94078471
_cell_formula_units_Z   1
loop_
 _symmetry_equiv_pos_site_id
 _symmetry_equiv_pos_as_xyz
  1  'x, y, z'
loop_
 _atom_site_type_symbol
 _atom_site_label
 _atom_site_symmetry_multiplicity
 _atom_site_fract_x
 _atom_site_fract_y
 _atom_site_fract_z
 _atom_site_occupancy
  Na  Na0  1  0.00000000  0.00000000  0.00000000  1
  Ce  Ce1  1  0.25000006  0.75000004  0.50000006  1
  U  U2  1  0.50000005  0.50000003  1.00000005  1
  U  U3  1  0.75000005  0.25000001  0.50000005  1
  O  O4  1  0.62235103  0.12601801  0.74836903  1
  O  O5  1  0.87398209  0.87398205  0.25163111  1
  O  O6  1  0.12601804  0.62235103  0.74836905  1
  O  O7  1  0.37764904  0.37764902  0.25163104  1
  O  O8  1  0.37764907  0.87398205  0.25163108  1
  O  O9  1  0.62235106  0.62235103  0.74836907  1
  O  O10  1  0.87398206  0.37764902  0.25163107  1
  O  O11  1  0.12601801  0.12601801  0.74836901  1
