# generated using pymatgen
data_La3Au4
_symmetry_space_group_name_H-M   'P 1'
_cell_length_a   5.84080315
_cell_length_b   8.22135925
_cell_length_c   8.22135925
_cell_angle_alpha   114.57465363
_cell_angle_beta   103.69858551
_cell_angle_gamma   103.69858551
_symmetry_Int_Tables_number   1
_chemical_formula_structural   La3Au4
_chemical_formula_sum   'La6 Au8'
_cell_volume   322.71951083
_cell_formula_units_Z   2
loop_
 _symmetry_equiv_pos_site_id
 _symmetry_equiv_pos_as_xyz
  1  'x, y, z'
loop_
 _atom_site_type_symbol
 _atom_site_label
 _atom_site_symmetry_multiplicity
 _atom_site_fract_x
 _atom_site_fract_y
 _atom_site_fract_z
 _atom_site_occupancy
  La  La0  1  0.97084594  0.37698199  0.25188994  1
  La  La1  1  0.59386386  0.87490798  0.62301795  1
  La  La2  1  0.40613598  0.12509200  0.37698198  1
  La  La3  1  0.02915390  0.62301798  0.74810999  1
  La  La4  1  0.71895588  0.74810998  0.12509194  1
  La  La5  1  0.28104396  0.25188999  0.87490799  1
  Au  Au6  1  0.22143489  0.66850498  0.16411896  1
  Au  Au7  1  0.05731587  0.83588098  0.50438597  1
  Au  Au8  1  0.55292992  0.49561399  0.33149496  1
  Au  Au9  1  0.50000000  0.00000000  -0.00000002  1
  Au  Au10  1  0.44706992  0.50438599  0.66850497  1
  Au  Au11  1  0.77856495  0.33149499  0.83588097  1
  Au  Au12  1  0.94268397  0.16411900  0.49561396  1
  Au  Au13  1  0.00000000  0.00000000  0.00000000  1
