# generated using pymatgen
data_NaEuPd9
_symmetry_space_group_name_H-M   'P 1'
_cell_length_a   4.22610903
_cell_length_b   4.22610903
_cell_length_c   10.91720963
_cell_angle_alpha   90.00000000
_cell_angle_beta   90.00000000
_cell_angle_gamma   90.00000000
_symmetry_Int_Tables_number   1
_chemical_formula_structural   NaEuPd9
_chemical_formula_sum   'Na1 Eu1 Pd9'
_cell_volume   194.98133678
_cell_formula_units_Z   1
loop_
 _symmetry_equiv_pos_site_id
 _symmetry_equiv_pos_as_xyz
  1  'x, y, z'
loop_
 _atom_site_type_symbol
 _atom_site_label
 _atom_site_symmetry_multiplicity
 _atom_site_fract_x
 _atom_site_fract_y
 _atom_site_fract_z
 _atom_site_occupancy
  Na  Na0  1  0.00000000  0.00000000  0.69383802  1
  Eu  Eu1  1  0.00000000  0.00000000  0.30616201  1
  Pd  Pd2  1  0.50000000  0.00000000  0.88227703  1
  Pd  Pd3  1  0.00000000  0.50000000  0.88227703  1
  Pd  Pd4  1  0.50000000  0.00000000  0.11772300  1
  Pd  Pd5  1  0.00000000  0.50000000  0.11772300  1
  Pd  Pd6  1  0.50000000  0.00000000  0.50000002  1
  Pd  Pd7  1  0.00000000  0.50000000  0.50000002  1
  Pd  Pd8  1  0.50000000  0.50000000  0.69933902  1
  Pd  Pd9  1  0.50000000  0.50000000  0.30066101  1
  Pd  Pd10  1  0.00000000  0.00000000  0.00000000  1
