# generated using pymatgen
data_Ce2CuGe8
_symmetry_space_group_name_H-M   'P 1'
_cell_length_a   3.99882412
_cell_length_b   4.29289579
_cell_length_c   12.96917343
_cell_angle_alpha   99.52650452
_cell_angle_beta   98.86846161
_cell_angle_gamma   90.00000000
_symmetry_Int_Tables_number   1
_chemical_formula_structural   Ce2CuGe8
_chemical_formula_sum   'Ce2 Cu1 Ge8'
_cell_volume   216.86611769
_cell_formula_units_Z   1
loop_
 _symmetry_equiv_pos_site_id
 _symmetry_equiv_pos_as_xyz
  1  'x, y, z'
loop_
 _atom_site_type_symbol
 _atom_site_label
 _atom_site_symmetry_multiplicity
 _atom_site_fract_x
 _atom_site_fract_y
 _atom_site_fract_z
 _atom_site_occupancy
  Ce  Ce0  1  0.14543000  0.64543003  0.29086001  1
  Ce  Ce1  1  0.85456999  0.35457002  0.70914004  1
  Cu  Cu2  1  0.00000000  0.00000000  0.00000000  1
  Ge  Ge3  1  0.30429300  0.80429304  0.60858603  1
  Ge  Ge4  1  0.69570699  0.19570701  0.39141403  1
  Ge  Ge5  1  0.54910799  0.54910803  0.09821601  1
  Ge  Ge6  1  0.45089199  0.45089202  0.90178404  1
  Ge  Ge7  1  0.40228900  0.90228904  0.80457804  1
  Ge  Ge8  1  0.59771099  0.09771100  0.19542202  1
  Ge  Ge9  1  0.74823899  0.74823904  0.49647803  1
  Ge  Ge10  1  0.25176100  0.25176101  0.50352202  1
