# generated using pymatgen
data_Mn7Sb6
_symmetry_space_group_name_H-M   'P 1'
_cell_length_a   5.45645189
_cell_length_b   5.45645189
_cell_length_c   9.01465321
_cell_angle_alpha   90.00000000
_cell_angle_beta   90.00000000
_cell_angle_gamma   120.00000000
_symmetry_Int_Tables_number   1
_chemical_formula_structural   Mn7Sb6
_chemical_formula_sum   'Mn7 Sb6'
_cell_volume   232.43435364
_cell_formula_units_Z   1
loop_
 _symmetry_equiv_pos_site_id
 _symmetry_equiv_pos_as_xyz
  1  'x, y, z'
loop_
 _atom_site_type_symbol
 _atom_site_label
 _atom_site_symmetry_multiplicity
 _atom_site_fract_x
 _atom_site_fract_y
 _atom_site_fract_z
 _atom_site_occupancy
  Mn  Mn0  1  0.00000000  0.00000000  0.00000000  1
  Mn  Mn1  1  0.50000001  0.00000000  0.24897599  1
  Mn  Mn2  1  0.50000001  0.50000000  0.24897599  1
  Mn  Mn3  1  -0.00000000  0.50000000  0.24897599  1
  Mn  Mn4  1  0.50000001  0.00000000  0.75102398  1
  Mn  Mn5  1  0.50000001  0.50000000  0.75102398  1
  Mn  Mn6  1  -0.00000000  0.50000000  0.75102398  1
  Sb  Sb7  1  0.33333334  0.66666667  -0.00000000  1
  Sb  Sb8  1  0.66666668  0.33333334  0.99999998  1
  Sb  Sb9  1  0.33333334  0.66666667  0.49999999  1
  Sb  Sb10  1  0.66666668  0.33333334  0.49999999  1
  Sb  Sb11  1  0.00000000  0.00000000  0.33313899  1
  Sb  Sb12  1  0.00000000  0.00000000  0.66686098  1
