# generated using pymatgen
data_IrRu3Rh
_symmetry_space_group_name_H-M   'P 1'
_cell_length_a   2.77326441
_cell_length_b   2.77326441
_cell_length_c   11.37605858
_cell_angle_alpha   82.99878693
_cell_angle_beta   82.99878693
_cell_angle_gamma   59.99999237
_symmetry_Int_Tables_number   1
_chemical_formula_structural   IrRu3Rh
_chemical_formula_sum   'Ir1 Ru3 Rh1'
_cell_volume   75.01708409
_cell_formula_units_Z   1
loop_
 _symmetry_equiv_pos_site_id
 _symmetry_equiv_pos_as_xyz
  1  'x, y, z'
loop_
 _atom_site_type_symbol
 _atom_site_label
 _atom_site_symmetry_multiplicity
 _atom_site_fract_x
 _atom_site_fract_y
 _atom_site_fract_z
 _atom_site_occupancy
  Rh  Rh0  1  0.00000000  0.00000000  0.00000000  1
  Ir  Ir1  1  0.60418299  0.60418298  0.18745100  1
  Ru  Ru2  1  0.20107200  0.20107199  0.39678400  1
  Ru  Ru3  1  0.79892799  0.79892798  0.60321600  1
  Ru  Ru4  1  0.39581699  0.39581699  0.81254901  1
