# generated using pymatgen
data_UWS4
_symmetry_space_group_name_H-M   'P 1'
_cell_length_a   3.29253006
_cell_length_b   4.75081301
_cell_length_c   6.86523676
_cell_angle_alpha   78.99577332
_cell_angle_beta   76.12542725
_cell_angle_gamma   69.72521973
_symmetry_Int_Tables_number   1
_chemical_formula_structural   UWS4
_chemical_formula_sum   'U1 W1 S4'
_cell_volume   97.10729313
_cell_formula_units_Z   1
loop_
 _symmetry_equiv_pos_site_id
 _symmetry_equiv_pos_as_xyz
  1  'x, y, z'
loop_
 _atom_site_type_symbol
 _atom_site_label
 _atom_site_symmetry_multiplicity
 _atom_site_fract_x
 _atom_site_fract_y
 _atom_site_fract_z
 _atom_site_occupancy
  U  U0  1  0.16036599  0.87989800  0.79937001  1
  W  W1  1  0.83963398  0.12010200  0.20063002  1
  S  S2  1  0.40442599  0.29285700  0.89829101  1
  S  S3  1  0.59557398  0.70714300  0.10170902  1
  S  S4  1  0.86658397  0.74075100  0.52608102  1
  S  S5  1  0.13341599  0.25924900  0.47391900  1
