# generated using pymatgen
data_Cs2InAsBr6
_symmetry_space_group_name_H-M   'P 1'
_cell_length_a   8.09784603
_cell_length_b   8.09784508
_cell_length_c   8.09784508
_cell_angle_alpha   59.99999619
_cell_angle_beta   59.99998856
_cell_angle_gamma   60.00000000
_symmetry_Int_Tables_number   1
_chemical_formula_structural   Cs2InAsBr6
_chemical_formula_sum   'Cs2 In1 As1 Br6'
_cell_volume   375.48569386
_cell_formula_units_Z   1
loop_
 _symmetry_equiv_pos_site_id
 _symmetry_equiv_pos_as_xyz
  1  'x, y, z'
loop_
 _atom_site_type_symbol
 _atom_site_label
 _atom_site_symmetry_multiplicity
 _atom_site_fract_x
 _atom_site_fract_y
 _atom_site_fract_z
 _atom_site_occupancy
  Cs  Cs0  1  0.74999998  0.75000002  0.74999993  1
  Cs  Cs1  1  0.24999999  0.25000001  0.24999998  1
  In  In2  1  0.49999998  0.50000001  0.49999995  1
  As  As3  1  0.00000000  0.00000000  0.00000000  1
  Br  Br4  1  0.25571099  0.74428902  0.74428894  1
  Br  Br5  1  0.74428898  0.74428902  0.25571095  1
  Br  Br6  1  0.74428898  0.25571101  0.25571096  1
  Br  Br7  1  0.25571099  0.74428902  0.25571097  1
  Br  Br8  1  0.74428898  0.25571101  0.74428894  1
  Br  Br9  1  0.25571099  0.25571101  0.74428895  1
