# generated using pymatgen
data_Ti3Co4GeSb
_symmetry_space_group_name_H-M   'P 1'
_cell_length_a   3.52600503
_cell_length_b   6.76103592
_cell_length_c   6.76103497
_cell_angle_alpha   120.00000763
_cell_angle_beta   90.00000000
_cell_angle_gamma   90.00000000
_symmetry_Int_Tables_number   1
_chemical_formula_structural   Ti3Co4GeSb
_chemical_formula_sum   'Ti3 Co4 Ge1 Sb1'
_cell_volume   139.58538570
_cell_formula_units_Z   1
loop_
 _symmetry_equiv_pos_site_id
 _symmetry_equiv_pos_as_xyz
  1  'x, y, z'
loop_
 _atom_site_type_symbol
 _atom_site_label
 _atom_site_symmetry_multiplicity
 _atom_site_fract_x
 _atom_site_fract_y
 _atom_site_fract_z
 _atom_site_occupancy
  Ti  Ti0  1  0.99999999  0.33333335  0.66666671  1
  Ti  Ti1  1  0.99999999  0.66666670  0.33333339  1
  Ti  Ti2  1  0.50000000  0.00000000  -0.00000000  1
  Ge  Ge3  1  0.50000000  0.39272102  0.39272104  1
  Co  Co4  1  0.50000000  0.60727903  0.00000005  1
  Co  Co5  1  0.50000000  1.00000005  0.60727909  1
  Co  Co6  1  -0.00000000  1.00000005  0.26759908  1
  Co  Co7  1  -0.00000000  0.26759901  0.00000002  1
  Sb  Sb8  1  -0.00000000  0.73240104  0.73240108  1
