# generated using pymatgen
data_Na2ZrAg4F13
_symmetry_space_group_name_H-M   'P 1'
_cell_length_a   7.16793346
_cell_length_b   7.38341475
_cell_length_c   7.38341475
_cell_angle_alpha   69.94514465
_cell_angle_beta   71.11891174
_cell_angle_gamma   108.88108826
_symmetry_Int_Tables_number   1
_chemical_formula_structural   Na2ZrAg4F13
_chemical_formula_sum   'Na2 Zr1 Ag4 F13'
_cell_volume   302.96876221
_cell_formula_units_Z   1
loop_
 _symmetry_equiv_pos_site_id
 _symmetry_equiv_pos_as_xyz
  1  'x, y, z'
loop_
 _atom_site_type_symbol
 _atom_site_label
 _atom_site_symmetry_multiplicity
 _atom_site_fract_x
 _atom_site_fract_y
 _atom_site_fract_z
 _atom_site_occupancy
  Ag  Ag0  1  0.69982606  0.82318604  0.80008897  1
  Na  Na1  1  0.87664003  0.37672502  0.82318597  1
  Na  Na2  1  0.49991506  0.80008904  0.37672497  1
  Zr  Zr3  1  0.45351102  0.20595701  0.62368999  1
  Ag  Ag4  1  0.24755401  0.17035301  0.20595699  1
  Ag  Ag5  1  0.07720104  0.62369003  0.17035299  1
  Ag  Ag6  1  0.25115403  0.43243202  0.64078799  1
  F  F7  1  0.81872207  0.92678004  0.43243196  1
  F  F8  1  0.89194205  0.64078803  0.92677997  1
  F  F9  1  0.12683201  0.07203700  0.57538500  1
  F  F10  1  0.05479503  0.35257802  0.07203699  1
  F  F11  1  0.70221704  0.57538503  0.35257797  1
  F  F12  1  0.83480902  0.27240001  0.55397897  1
  F  F13  1  0.56240902  0.17362101  0.27239998  1
  F  F14  1  0.38878804  0.55397903  0.17362098  1
  F  F15  1  0.38379806  0.82487604  0.74087498  1
  F  F16  1  0.55892203  0.43424902  0.82487598  1
  F  F17  1  0.12467305  0.74087503  0.43424899  1
  F  F18  1  0.77537400  0.00000000  -0.00000003  1
  F  F19  1  0.17191900  0.00000000  1.00000001  1
