# generated using pymatgen
data_KBiSe2
_symmetry_space_group_name_H-M   'P 1'
_cell_length_a   4.44395208
_cell_length_b   4.44395208
_cell_length_c   7.69993067
_cell_angle_alpha   73.22757721
_cell_angle_beta   73.22757721
_cell_angle_gamma   59.99999619
_symmetry_Int_Tables_number   1
_chemical_formula_structural   KBiSe2
_chemical_formula_sum   'K1 Bi1 Se2'
_cell_volume   124.16508340
_cell_formula_units_Z   1
loop_
 _symmetry_equiv_pos_site_id
 _symmetry_equiv_pos_as_xyz
  1  'x, y, z'
loop_
 _atom_site_type_symbol
 _atom_site_label
 _atom_site_symmetry_multiplicity
 _atom_site_fract_x
 _atom_site_fract_y
 _atom_site_fract_z
 _atom_site_occupancy
  K  K0  1  0.50000003  0.50000002  0.50000000  1
  Bi  Bi1  1  0.25828801  0.25828801  0.22513600  1
  Se  Se2  1  0.74171204  0.74171203  0.77486401  1
  Se  Se3  1  0.00000000  0.00000000  0.00000000  1
