# generated using pymatgen
data_Mg3Sn2
_symmetry_space_group_name_H-M   'P 1'
_cell_length_a   6.41742802
_cell_length_b   6.41742802
_cell_length_c   12.46145821
_cell_angle_alpha   104.92124176
_cell_angle_beta   104.92124176
_cell_angle_gamma   90.00000000
_symmetry_Int_Tables_number   1
_chemical_formula_structural   Mg3Sn2
_chemical_formula_sum   'Mg12 Sn8'
_cell_volume   477.96903828
_cell_formula_units_Z   4
loop_
 _symmetry_equiv_pos_site_id
 _symmetry_equiv_pos_as_xyz
  1  'x, y, z'
loop_
 _atom_site_type_symbol
 _atom_site_label
 _atom_site_symmetry_multiplicity
 _atom_site_fract_x
 _atom_site_fract_y
 _atom_site_fract_z
 _atom_site_occupancy
  Mg  Mg0  1  0.98601099  0.13921500  0.62598198  1
  Mg  Mg1  1  0.36078499  0.51398900  0.37401798  1
  Mg  Mg2  1  0.01323299  0.86002899  0.37401798  1
  Mg  Mg3  1  0.26398900  0.26323300  0.87401797  1
  Mg  Mg4  1  0.11002899  0.76323300  0.87401797  1
  Mg  Mg5  1  0.86078499  0.36002900  0.37401798  1
  Mg  Mg6  1  0.51323300  0.01398900  0.37401799  1
  Mg  Mg7  1  0.13997099  0.63921500  0.62598198  1
  Mg  Mg8  1  0.48601099  0.98676699  0.62598197  1
  Mg  Mg9  1  0.73676699  0.38997100  0.12598199  1
  Mg  Mg10  1  0.38921499  0.73601100  0.12598199  1
  Mg  Mg11  1  0.76398899  0.11078500  0.87401797  1
  Sn  Sn12  1  0.63997099  0.48676700  0.62598198  1
  Sn  Sn13  1  0.88921499  0.88997099  0.12598198  1
  Sn  Sn14  1  0.23676700  0.23601100  0.12598199  1
  Sn  Sn15  1  0.61002899  0.61078500  0.87401797  1
  Sn  Sn16  1  0.50000000  0.00000000  -0.00000000  1
  Sn  Sn17  1  0.74999999  0.75000000  0.49999998  1
  Sn  Sn18  1  0.25000000  0.25000000  0.49999998  1
  Sn  Sn19  1  -0.00000000  0.50000000  -0.00000000  1
