# generated using pymatgen
data_KSr2AgO6
_symmetry_space_group_name_H-M   'P 1'
_cell_length_a   5.68562412
_cell_length_b   5.68562412
_cell_length_c   5.68562412
_cell_angle_alpha   90.12147522
_cell_angle_beta   119.92988586
_cell_angle_gamma   119.92988586
_symmetry_Int_Tables_number   1
_chemical_formula_structural   KSr2AgO6
_chemical_formula_sum   'K1 Sr2 Ag1 O6'
_cell_volume   130.10033792
_cell_formula_units_Z   1
loop_
 _symmetry_equiv_pos_site_id
 _symmetry_equiv_pos_as_xyz
  1  'x, y, z'
loop_
 _atom_site_type_symbol
 _atom_site_label
 _atom_site_symmetry_multiplicity
 _atom_site_fract_x
 _atom_site_fract_y
 _atom_site_fract_z
 _atom_site_occupancy
  Sr  Sr0  1  -0.00000010  0.50715793  0.50715791  1
  Sr  Sr1  1  -0.00000000  0.00447000  0.00447000  1
  K  K2  1  0.49999981  0.76928889  0.26928884  1
  Ag  Ag3  1  0.49999991  0.26928896  0.76928889  1
  O  O4  1  0.99999978  0.75433890  0.24365181  1
  O  O5  1  -0.00000005  0.24365197  0.75433893  1
  O  O6  1  0.51068682  0.75433890  0.75433882  1
  O  O7  1  0.48931292  0.24365197  0.24365192  1
  O  O8  1  -0.00000015  0.75855990  0.75855986  1
  O  O9  1  0.99999988  0.24725197  0.24725188  1
