# generated using pymatgen
data_DyNiGe2
_symmetry_space_group_name_H-M   'P 1'
_cell_length_a   4.09643793
_cell_length_b   5.40476513
_cell_length_c   6.66291904
_cell_angle_alpha   90.00000000
_cell_angle_beta   90.00000000
_cell_angle_gamma   112.26961517
_symmetry_Int_Tables_number   1
_chemical_formula_structural   DyNiGe2
_chemical_formula_sum   'Dy2 Ni2 Ge4'
_cell_volume   136.51561004
_cell_formula_units_Z   2
loop_
 _symmetry_equiv_pos_site_id
 _symmetry_equiv_pos_as_xyz
  1  'x, y, z'
loop_
 _atom_site_type_symbol
 _atom_site_label
 _atom_site_symmetry_multiplicity
 _atom_site_fract_x
 _atom_site_fract_y
 _atom_site_fract_z
 _atom_site_occupancy
  Dy  Dy0  1  0.42888005  0.85775998  0.74999999  1
  Dy  Dy1  1  0.57112002  0.14224000  0.25000000  1
  Ni  Ni2  1  0.14277302  0.28554599  0.94553299  1
  Ge  Ge3  1  0.85722705  0.71445398  0.05446700  1
  Ge  Ge4  1  0.85722705  0.71445398  0.44553300  1
  Ge  Ge5  1  0.14277302  0.28554599  0.55446700  1
  Ni  Ni6  1  0.71377603  0.42755199  0.74999999  1
  Ge  Ge7  1  0.28622403  0.57244799  0.25000000  1
