# generated using pymatgen
data_TbSi2
_symmetry_space_group_name_H-M   'P 1'
_cell_length_a   3.93471003
_cell_length_b   4.06191015
_cell_length_c   7.48500061
_cell_angle_alpha   105.74382019
_cell_angle_beta   105.23862457
_cell_angle_gamma   90.00000000
_symmetry_Int_Tables_number   1
_chemical_formula_structural   TbSi2
_chemical_formula_sum   'Tb2 Si4'
_cell_volume   110.76414628
_cell_formula_units_Z   2
loop_
 _symmetry_equiv_pos_site_id
 _symmetry_equiv_pos_as_xyz
  1  'x, y, z'
loop_
 _atom_site_type_symbol
 _atom_site_label
 _atom_site_symmetry_multiplicity
 _atom_site_fract_x
 _atom_site_fract_y
 _atom_site_fract_z
 _atom_site_occupancy
  Tb  Tb0  1  0.74733500  0.24733499  0.49467002  1
  Tb  Tb1  1  0.00229600  0.00229600  0.00459200  1
  Si  Si2  1  0.33595000  0.83594997  0.67190002  1
  Si  Si3  1  0.41207400  0.41207398  0.82414802  1
  Si  Si4  1  0.17296800  0.67296797  0.34593601  1
  Si  Si5  1  0.57937800  0.57937798  0.15875601  1
