# generated using pymatgen
data_Dy4Ge7Ir6
_symmetry_space_group_name_H-M   'P 1'
_cell_length_a   7.22408772
_cell_length_b   7.22408772
_cell_length_c   7.22408772
_cell_angle_alpha   109.47122192
_cell_angle_beta   109.47122192
_cell_angle_gamma   109.47122192
_symmetry_Int_Tables_number   1
_chemical_formula_structural   Dy4Ge7Ir6
_chemical_formula_sum   'Dy4 Ge7 Ir6'
_cell_volume   290.21985460
_cell_formula_units_Z   1
loop_
 _symmetry_equiv_pos_site_id
 _symmetry_equiv_pos_as_xyz
  1  'x, y, z'
loop_
 _atom_site_type_symbol
 _atom_site_label
 _atom_site_symmetry_multiplicity
 _atom_site_fract_x
 _atom_site_fract_y
 _atom_site_fract_z
 _atom_site_occupancy
  Dy  Dy0  1  0.50000004  0.50000002  0.50000004  1
  Dy  Dy1  1  0.00000003  0.50000002  0.00000003  1
  Dy  Dy2  1  0.00000000  0.00000000  0.50000000  1
  Dy  Dy3  1  0.50000001  0.00000000  0.00000001  1
  Ge  Ge4  1  1.00000006  0.69016603  0.69016606  1
  Ge  Ge5  1  0.69016605  0.69016603  0.00000005  1
  Ge  Ge6  1  0.69016601  0.00000000  0.69016602  1
  Ge  Ge7  1  1.00000003  0.30983401  0.30983404  1
  Ge  Ge8  1  0.30983402  0.30983401  0.00000002  1
  Ge  Ge9  1  0.30983400  0.00000000  0.30983401  1
  Ge  Ge10  1  0.50000005  0.75000003  0.25000005  1
  Ir  Ir11  1  0.75000002  0.25000001  0.50000003  1
  Ir  Ir12  1  0.25000003  0.50000002  0.75000004  1
  Ir  Ir13  1  0.25000005  0.75000003  0.50000005  1
  Ir  Ir14  1  0.50000002  0.25000001  0.75000003  1
  Ir  Ir15  1  0.75000004  0.50000002  0.25000005  1
  Ir  Ir16  1  0.00000000  0.00000000  0.00000000  1
