# generated using pymatgen
data_NdSi3Rh
_symmetry_space_group_name_H-M   'P 1'
_cell_length_a   6.09255981
_cell_length_b   8.21936035
_cell_length_c   8.21936035
_cell_angle_alpha   74.88702393
_cell_angle_beta   68.24598694
_cell_angle_gamma   68.24598694
_symmetry_Int_Tables_number   1
_chemical_formula_structural   NdSi3Rh
_chemical_formula_sum   'Nd4 Si12 Rh4'
_cell_volume   351.41321858
_cell_formula_units_Z   4
loop_
 _symmetry_equiv_pos_site_id
 _symmetry_equiv_pos_as_xyz
  1  'x, y, z'
loop_
 _atom_site_type_symbol
 _atom_site_label
 _atom_site_symmetry_multiplicity
 _atom_site_fract_x
 _atom_site_fract_y
 _atom_site_fract_z
 _atom_site_occupancy
  Nd  Nd0  1  0.36937406  0.90021395  0.36103797  1
  Nd  Nd1  1  0.63062601  0.09978599  0.63896199  1
  Nd  Nd2  1  0.86937404  0.36103798  0.90021398  1
  Nd  Nd3  1  0.13062604  0.63896196  0.09978598  1
  Si  Si4  1  0.02231805  0.72768196  0.72768195  1
  Si  Si5  1  0.97768203  0.27231798  0.27231801  1
  Si  Si6  1  0.47768202  0.27231798  0.27231800  1
  Si  Si7  1  0.52231806  0.72768196  0.72768196  1
  Si  Si8  1  0.11146502  0.23751699  0.53955297  1
  Si  Si9  1  0.88853506  0.76248296  0.46044699  1
  Si  Si10  1  0.61146504  0.53955297  0.23751699  1
  Si  Si11  1  0.38853504  0.46044697  0.76248296  1
  Si  Si12  1  0.75000001  0.00000000  0.00000003  1
  Si  Si13  1  0.25000000  0.00000000  0.00000001  1
  Si  Si14  1  0.13675507  0.97385494  0.75263494  1
  Si  Si15  1  0.86324501  0.02614500  0.24736502  1
  Rh  Rh16  1  0.63675506  0.75263496  0.97385495  1
  Rh  Rh17  1  0.36324502  0.24736499  0.02614500  1
  Rh  Rh18  1  0.75000004  0.49999997  0.49999999  1
  Rh  Rh19  1  0.25000004  0.49999997  0.49999997  1
