# generated using pymatgen
data_Dy(BC)2
_symmetry_space_group_name_H-M   'P 1'
_cell_length_a   3.60098910
_cell_length_b   5.35821676
_cell_length_c   5.35821676
_cell_angle_alpha   90.00000000
_cell_angle_beta   90.00000000
_cell_angle_gamma   90.00000000
_symmetry_Int_Tables_number   1
_chemical_formula_structural   Dy(BC)2
_chemical_formula_sum   'Dy2 B4 C4'
_cell_volume   103.38615039
_cell_formula_units_Z   2
loop_
 _symmetry_equiv_pos_site_id
 _symmetry_equiv_pos_as_xyz
  1  'x, y, z'
loop_
 _atom_site_type_symbol
 _atom_site_label
 _atom_site_symmetry_multiplicity
 _atom_site_fract_x
 _atom_site_fract_y
 _atom_site_fract_z
 _atom_site_occupancy
  Dy  Dy0  1  0.00000000  0.50000002  0.50000002  1
  Dy  Dy1  1  0.00000000  0.00000000  0.00000000  1
  B  B2  1  0.49999999  0.13691701  0.63691703  1
  B  B3  1  0.49999999  0.63691703  0.86308304  1
  B  B4  1  0.49999999  0.86308304  0.36308302  1
  B  B5  1  0.49999999  0.36308302  0.13691701  1
  C  C6  1  0.49999999  0.83833804  0.66166203  1
  C  C7  1  0.49999999  0.33833801  0.83833804  1
  C  C8  1  0.49999999  0.66166203  0.16166201  1
  C  C9  1  0.49999999  0.16166201  0.33833801  1
