# generated using pymatgen
data_Sm3Tl
_symmetry_space_group_name_H-M   'P 1'
_cell_length_a   5.50202417
_cell_length_b   7.03764582
_cell_length_c   7.03764582
_cell_angle_alpha   120.00000000
_cell_angle_beta   90.00000000
_cell_angle_gamma   90.00000000
_symmetry_Int_Tables_number   1
_chemical_formula_structural   Sm3Tl
_chemical_formula_sum   'Sm6 Tl2'
_cell_volume   235.99779136
_cell_formula_units_Z   2
loop_
 _symmetry_equiv_pos_site_id
 _symmetry_equiv_pos_as_xyz
  1  'x, y, z'
loop_
 _atom_site_type_symbol
 _atom_site_label
 _atom_site_symmetry_multiplicity
 _atom_site_fract_x
 _atom_site_fract_y
 _atom_site_fract_z
 _atom_site_occupancy
  Sm  Sm0  1  0.74999998  0.82573901  0.17426099  1
  Sm  Sm1  1  0.74999998  0.34852201  0.17426099  1
  Sm  Sm2  1  0.74999998  0.82573901  0.65147798  1
  Sm  Sm3  1  0.24999999  0.17426100  0.82573900  1
  Sm  Sm4  1  0.24999999  0.65147801  0.82573899  1
  Sm  Sm5  1  0.24999999  0.17426100  0.34852200  1
  Tl  Tl6  1  0.24999999  0.66666668  0.33333332  1
  Tl  Tl7  1  0.74999998  0.33333334  0.66666666  1
