# generated using pymatgen
data_LaBiSbTeO12
_symmetry_space_group_name_H-M   'P 1'
_cell_length_a   5.11829805
_cell_length_b   5.11829805
_cell_length_c   9.70782661
_cell_angle_alpha   90.00000000
_cell_angle_beta   90.00000000
_cell_angle_gamma   90.00000000
_symmetry_Int_Tables_number   1
_chemical_formula_structural   LaBiSbTeO12
_chemical_formula_sum   'La1 Bi1 Sb1 Te1 O12'
_cell_volume   254.31569080
_cell_formula_units_Z   1
loop_
 _symmetry_equiv_pos_site_id
 _symmetry_equiv_pos_as_xyz
  1  'x, y, z'
loop_
 _atom_site_type_symbol
 _atom_site_label
 _atom_site_symmetry_multiplicity
 _atom_site_fract_x
 _atom_site_fract_y
 _atom_site_fract_z
 _atom_site_occupancy
  La  La0  1  0.00000000  0.00000000  0.00000000  1
  Te  Te1  1  0.00000000  0.00000000  0.50000002  1
  Sb  Sb2  1  0.49999999  0.49999999  0.25000001  1
  Bi  Bi3  1  0.49999999  0.49999999  0.75000003  1
  O  O4  1  0.80984699  0.19015300  0.86063903  1
  O  O5  1  0.19015300  0.80984699  0.86063903  1
  O  O6  1  0.19015300  0.80984699  0.13936101  1
  O  O7  1  0.19015300  0.19015300  0.36063901  1
  O  O8  1  0.73362899  0.73362899  0.00000000  1
  O  O9  1  0.26637100  0.73362899  0.50000002  1
  O  O10  1  0.73362899  0.26637100  0.50000002  1
  O  O11  1  0.26637100  0.26637100  0.00000000  1
  O  O12  1  0.80984699  0.19015300  0.13936101  1
  O  O13  1  0.80984699  0.80984699  0.63936103  1
  O  O14  1  0.19015300  0.19015300  0.63936103  1
  O  O15  1  0.80984699  0.80984699  0.36063901  1
