# generated using pymatgen
data_Al8Fe5
_symmetry_space_group_name_H-M   'P 1'
_cell_length_a   5.02610302
_cell_length_b   6.56160069
_cell_length_c   6.56160069
_cell_angle_alpha   80.61384583
_cell_angle_beta   67.48076630
_cell_angle_gamma   67.48076630
_symmetry_Int_Tables_number   1
_chemical_formula_structural   Al8Fe5
_chemical_formula_sum   'Al8 Fe5'
_cell_volume   184.62078014
_cell_formula_units_Z   1
loop_
 _symmetry_equiv_pos_site_id
 _symmetry_equiv_pos_as_xyz
  1  'x, y, z'
loop_
 _atom_site_type_symbol
 _atom_site_label
 _atom_site_symmetry_multiplicity
 _atom_site_fract_x
 _atom_site_fract_y
 _atom_site_fract_z
 _atom_site_occupancy
  Al  Al0  1  0.00000000  0.00000000  0.00000000  1
  Al  Al1  1  0.00000003  0.66648101  0.33351900  1
  Al  Al2  1  0.00000002  0.33351900  0.66648101  1
  Al  Al3  1  0.34315803  0.65684201  0.65684202  1
  Al  Al4  1  0.65684201  0.34315800  0.34315802  1
  Al  Al5  1  0.32039600  0.17960400  0.17960401  1
  Al  Al6  1  0.67960403  0.82039601  0.82039603  1
  Al  Al7  1  0.50000000  0.24378500  0.75621503  1
  Fe  Fe8  1  0.50000003  0.75621501  0.24378501  1
  Fe  Fe9  1  0.00000003  0.50000001  -0.00000001  1
  Fe  Fe10  1  0.50000002  0.50000001  0.00000001  1
  Fe  Fe11  1  0.00000000  0.00000000  0.50000001  1
  Fe  Fe12  1  0.49999999  0.00000000  0.50000003  1
