# generated using pymatgen
data_Al2S3
_symmetry_space_group_name_H-M   'P 1'
_cell_length_a   6.50540781
_cell_length_b   6.54871321
_cell_length_c   7.05965662
_cell_angle_alpha   116.90267181
_cell_angle_beta   90.00000000
_cell_angle_gamma   119.78149414
_symmetry_Int_Tables_number   1
_chemical_formula_structural   Al2S3
_chemical_formula_sum   'Al4 S6'
_cell_volume   222.75444901
_cell_formula_units_Z   2
loop_
 _symmetry_equiv_pos_site_id
 _symmetry_equiv_pos_as_xyz
  1  'x, y, z'
loop_
 _atom_site_type_symbol
 _atom_site_label
 _atom_site_symmetry_multiplicity
 _atom_site_fract_x
 _atom_site_fract_y
 _atom_site_fract_z
 _atom_site_occupancy
  Al  Al0  1  0.81743705  0.83235998  0.49722297  1
  Al  Al1  1  0.18968802  0.51519599  0.51164499  1
  Al  Al2  1  0.01492303  0.83235998  0.99722298  1
  Al  Al3  1  0.32550803  0.51519599  0.01164498  1
  S  S4  1  0.70452004  0.58339299  0.11399798  1
  S  S5  1  0.04293501  0.24146399  0.12665799  1
  S  S6  1  0.36936704  0.91061198  0.12543296  1
  S  S7  1  0.87887305  0.58339299  0.61399799  1
  S  S8  1  0.19852901  0.24146399  0.62665800  1
  S  S9  1  0.54124505  0.91061198  0.62543297  1
