# generated using pymatgen
data_SrWO3
_symmetry_space_group_name_H-M   'P 1'
_cell_length_a   6.92380571
_cell_length_b   6.92390299
_cell_length_c   6.92367077
_cell_angle_alpha   70.36350250
_cell_angle_beta   70.48393250
_cell_angle_gamma   109.26467896
_symmetry_Int_Tables_number   1
_chemical_formula_structural   SrWO3
_chemical_formula_sum   'Sr4 W4 O12'
_cell_volume   255.49805298
_cell_formula_units_Z   4
loop_
 _symmetry_equiv_pos_site_id
 _symmetry_equiv_pos_as_xyz
  1  'x, y, z'
loop_
 _atom_site_type_symbol
 _atom_site_label
 _atom_site_symmetry_multiplicity
 _atom_site_fract_x
 _atom_site_fract_y
 _atom_site_fract_z
 _atom_site_occupancy
  Sr  Sr0  1  0.50000002  0.00000000  -0.00000002  1
  Sr  Sr1  1  0.00000007  0.50000005  0.99999993  1
  Sr  Sr2  1  0.00000000  0.00000000  0.50000000  1
  Sr  Sr3  1  0.50000009  0.50000005  0.49999991  1
  W  W4  1  0.50000009  0.50000005  -0.00000009  1
  W  W5  1  0.00000000  0.00000000  0.00000000  1
  W  W6  1  0.50000002  0.00000000  0.49999998  1
  W  W7  1  0.00000007  0.50000005  0.49999993  1
  O  O8  1  0.75016014  0.75012808  0.99999087  1
  O  O9  1  0.24984005  0.24987203  0.00000896  1
  O  O10  1  0.74088706  0.24089902  0.50004394  1
  O  O11  1  0.25911412  0.75910208  0.49995488  1
  O  O12  1  0.00003204  0.23737602  0.76261996  1
  O  O13  1  0.50000213  0.74895208  0.75108188  1
  O  O14  1  0.99996815  0.76262408  0.23737986  1
  O  O15  1  0.49999805  0.25104803  0.24891795  1
  O  O16  1  0.26235108  0.49998805  0.23763592  1
  O  O17  1  0.75089802  0.00000600  0.24903898  1
  O  O18  1  0.73764910  0.50001305  0.76236490  1
  O  O19  1  0.24910216  0.99999410  0.75096085  1
