# generated using pymatgen
data_Fe2Mo
_symmetry_space_group_name_H-M   'P 1'
_cell_length_a   4.67535591
_cell_length_b   4.67535591
_cell_length_c   7.78128576
_cell_angle_alpha   90.00000000
_cell_angle_beta   90.00000000
_cell_angle_gamma   119.97682190
_symmetry_Int_Tables_number   1
_chemical_formula_structural   Fe2Mo
_chemical_formula_sum   'Fe8 Mo4'
_cell_volume   147.33730992
_cell_formula_units_Z   4
loop_
 _symmetry_equiv_pos_site_id
 _symmetry_equiv_pos_as_xyz
  1  'x, y, z'
loop_
 _atom_site_type_symbol
 _atom_site_label
 _atom_site_symmetry_multiplicity
 _atom_site_fract_x
 _atom_site_fract_y
 _atom_site_fract_z
 _atom_site_occupancy
  Fe  Fe0  1  0.65879806  0.82930403  0.25000001  1
  Fe  Fe1  1  0.17065506  0.82934503  0.25000001  1
  Fe  Fe2  1  0.17069602  0.34120201  0.25000001  1
  Fe  Fe3  1  0.34120201  0.17069601  0.75000002  1
  Fe  Fe4  1  0.82934501  0.17065501  0.75000002  1
  Fe  Fe5  1  0.82930404  0.65879802  0.75000002  1
  Fe  Fe6  1  0.00000000  0.00000000  0.50000002  1
  Fe  Fe7  1  0.00000000  0.00000000  0.00000000  1
  Mo  Mo8  1  0.33328505  0.66666669  0.93178303  1
  Mo  Mo9  1  0.66666669  0.33328501  0.06821700  1
  Mo  Mo10  1  0.66666669  0.33328501  0.43178301  1
  Mo  Mo11  1  0.33328505  0.66666669  0.56821702  1
