# generated using pymatgen
data_InCu3Se4
_symmetry_space_group_name_H-M   'P 1'
_cell_length_a   5.89582586
_cell_length_b   5.94580793
_cell_length_c   7.00914097
_cell_angle_alpha   115.09666443
_cell_angle_beta   114.87128448
_cell_angle_gamma   90.00000000
_symmetry_Int_Tables_number   1
_chemical_formula_structural   InCu3Se4
_chemical_formula_sum   'In1 Cu3 Se4'
_cell_volume   197.05936045
_cell_formula_units_Z   1
loop_
 _symmetry_equiv_pos_site_id
 _symmetry_equiv_pos_as_xyz
  1  'x, y, z'
loop_
 _atom_site_type_symbol
 _atom_site_label
 _atom_site_symmetry_multiplicity
 _atom_site_fract_x
 _atom_site_fract_y
 _atom_site_fract_z
 _atom_site_occupancy
  Cu  Cu0  1  0.38030000  0.13030000  0.76060001  1
  In  In1  1  0.11970000  0.36970001  0.23940001  1
  Cu  Cu2  1  0.88013000  0.63013001  0.76026000  1
  Cu  Cu3  1  0.61987000  0.86987002  0.23974000  1
  Se  Se4  1  0.97312700  0.75000001  0.49999999  1
  Se  Se5  1  0.52687300  0.25000000  0.50000000  1
  Se  Se6  1  0.25000000  0.53292601  -0.00000000  1
  Se  Se7  1  0.75000000  0.96707402  1.00000002  1
