# generated using pymatgen
data_Al2Pd5
_symmetry_space_group_name_H-M   'P 1'
_cell_length_a   2.68199492
_cell_length_b   8.99258518
_cell_length_c   8.99258518
_cell_angle_alpha   90.00000000
_cell_angle_beta   90.00000000
_cell_angle_gamma   90.00000000
_symmetry_Int_Tables_number   1
_chemical_formula_structural   Al2Pd5
_chemical_formula_sum   'Al4 Pd10'
_cell_volume   216.88377850
_cell_formula_units_Z   2
loop_
 _symmetry_equiv_pos_site_id
 _symmetry_equiv_pos_as_xyz
  1  'x, y, z'
loop_
 _atom_site_type_symbol
 _atom_site_label
 _atom_site_symmetry_multiplicity
 _atom_site_fract_x
 _atom_site_fract_y
 _atom_site_fract_z
 _atom_site_occupancy
  Al  Al0  1  0.50000002  0.68002699  0.18002700  1
  Al  Al1  1  0.50000002  0.31997299  0.81997298  1
  Al  Al2  1  0.50000002  0.18002700  0.31997299  1
  Al  Al3  1  0.50000002  0.81997298  0.68002699  1
  Pd  Pd4  1  0.00000000  0.49999999  0.00000000  1
  Pd  Pd5  1  0.00000000  0.00000000  0.49999999  1
  Pd  Pd6  1  0.00000000  0.56062499  0.70624599  1
  Pd  Pd7  1  0.00000000  0.43937499  0.29375399  1
  Pd  Pd8  1  1.00000003  0.06062500  0.79375398  1
  Pd  Pd9  1  0.00000000  0.93937498  0.20624600  1
  Pd  Pd10  1  0.00000000  0.29375399  0.56062499  1
  Pd  Pd11  1  -0.00000000  0.70624599  0.43937499  1
  Pd  Pd12  1  0.00000000  0.20624600  0.06062500  1
  Pd  Pd13  1  0.00000000  0.79375398  0.93937498  1
