# generated using pymatgen
data_Sr2CoF6
_symmetry_space_group_name_H-M   'P 1'
_cell_length_a   5.93051100
_cell_length_b   6.77868319
_cell_length_c   6.77868319
_cell_angle_alpha   90.00000000
_cell_angle_beta   90.00000000
_cell_angle_gamma   90.00000000
_symmetry_Int_Tables_number   1
_chemical_formula_structural   Sr2CoF6
_chemical_formula_sum   'Sr4 Co2 F12'
_cell_volume   272.51021681
_cell_formula_units_Z   2
loop_
 _symmetry_equiv_pos_site_id
 _symmetry_equiv_pos_as_xyz
  1  'x, y, z'
loop_
 _atom_site_type_symbol
 _atom_site_label
 _atom_site_symmetry_multiplicity
 _atom_site_fract_x
 _atom_site_fract_y
 _atom_site_fract_z
 _atom_site_occupancy
  Sr  Sr0  1  0.00000000  0.00000000  0.00000000  1
  Sr  Sr1  1  0.00000000  0.49999999  0.49999999  1
  Sr  Sr2  1  0.50000000  0.32453199  0.17546800  1
  Sr  Sr3  1  0.50000000  0.67546798  0.82453198  1
  Co  Co4  1  0.50000000  0.82453198  0.32453199  1
  Co  Co5  1  0.50000000  0.17546800  0.67546798  1
  F  F6  1  0.00000000  0.49999999  -0.00000000  1
  F  F7  1  0.00000000  0.00000000  0.49999999  1
  F  F8  1  0.75022900  0.14008900  0.35991099  1
  F  F9  1  0.24977100  0.64008898  0.14008900  1
  F  F10  1  0.75022900  0.85991098  0.64008898  1
  F  F11  1  0.24977100  0.14008900  0.35991099  1
  F  F12  1  0.50000000  0.49999999  0.49999999  1
  F  F13  1  0.75022900  0.35991099  0.85991098  1
  F  F14  1  0.75022900  0.64008898  0.14008900  1
  F  F15  1  0.24977100  0.85991098  0.64008898  1
  F  F16  1  0.24977100  0.35991099  0.85991098  1
  F  F17  1  0.50000000  0.00000000  -0.00000000  1
