# generated using pymatgen
data_LaYGe4
_symmetry_space_group_name_H-M   'P 1'
_cell_length_a   4.22303486
_cell_length_b   4.23862743
_cell_length_c   7.54948092
_cell_angle_alpha   90.00000000
_cell_angle_beta   90.00000000
_cell_angle_gamma   110.54997253
_symmetry_Int_Tables_number   1
_chemical_formula_structural   LaYGe4
_chemical_formula_sum   'La1 Y1 Ge4'
_cell_volume   126.53562601
_cell_formula_units_Z   1
loop_
 _symmetry_equiv_pos_site_id
 _symmetry_equiv_pos_as_xyz
  1  'x, y, z'
loop_
 _atom_site_type_symbol
 _atom_site_label
 _atom_site_symmetry_multiplicity
 _atom_site_fract_x
 _atom_site_fract_y
 _atom_site_fract_z
 _atom_site_occupancy
  La  La0  1  0.86943002  0.10810999  0.25000000  1
  Y  Y1  1  0.13056994  0.89188994  0.75000001  1
  Ge  Ge2  1  0.49999998  0.49999997  -0.00000000  1
  Ge  Ge3  1  0.49999998  0.49999997  0.50000001  1
  Ge  Ge4  1  0.26356996  0.71019895  0.25000000  1
  Ge  Ge5  1  0.73643000  0.28980098  0.75000001  1
