# generated using pymatgen
data_ScHgI6
_symmetry_space_group_name_H-M   'P 1'
_cell_length_a   7.37448502
_cell_length_b   7.37448502
_cell_length_c   7.52891779
_cell_angle_alpha   99.76126099
_cell_angle_beta   99.76126099
_cell_angle_gamma   119.46949768
_symmetry_Int_Tables_number   1
_chemical_formula_structural   ScHgI6
_chemical_formula_sum   'Sc1 Hg1 I6'
_cell_volume   335.69593899
_cell_formula_units_Z   1
loop_
 _symmetry_equiv_pos_site_id
 _symmetry_equiv_pos_as_xyz
  1  'x, y, z'
loop_
 _atom_site_type_symbol
 _atom_site_label
 _atom_site_symmetry_multiplicity
 _atom_site_fract_x
 _atom_site_fract_y
 _atom_site_fract_z
 _atom_site_occupancy
  Sc  Sc0  1  0.16897092  0.83102896  -0.00000004  1
  Hg  Hg1  1  0.83102898  0.16897099  -0.00000003  1
  I  I2  1  0.04433296  0.41206798  0.75486098  1
  I  I3  1  0.58793191  0.95566695  0.24513894  1
  I  I4  1  0.41206800  0.04433300  0.75486099  1
  I  I5  1  0.95566694  0.58793197  0.24513895  1
  I  I6  1  0.77037293  0.77037296  0.77954995  1
  I  I7  1  0.22962698  0.22962699  0.22044998  1
