# generated using pymatgen
data_Sr3Cu2O7
_symmetry_space_group_name_H-M   'P 1'
_cell_length_a   4.14201021
_cell_length_b   4.14201021
_cell_length_c   11.12504387
_cell_angle_alpha   100.72859955
_cell_angle_beta   100.72859955
_cell_angle_gamma   90.00000000
_symmetry_Int_Tables_number   1
_chemical_formula_structural   Sr3Cu2O7
_chemical_formula_sum   'Sr3 Cu2 O7'
_cell_volume   184.13097003
_cell_formula_units_Z   1
loop_
 _symmetry_equiv_pos_site_id
 _symmetry_equiv_pos_as_xyz
  1  'x, y, z'
loop_
 _atom_site_type_symbol
 _atom_site_label
 _atom_site_symmetry_multiplicity
 _atom_site_fract_x
 _atom_site_fract_y
 _atom_site_fract_z
 _atom_site_occupancy
  Sr  Sr0  1  0.31529699  0.31529699  0.63059404  1
  Sr  Sr1  1  0.68470299  0.68470297  0.36940605  1
  Sr  Sr2  1  0.49999999  0.49999998  0.00000002  1
  Cu  Cu3  1  0.09680800  0.09680800  0.19361601  1
  Cu  Cu4  1  0.90319199  0.90319196  0.80638408  1
  O  O5  1  0.00000000  0.00000000  0.00000000  1
  O  O6  1  0.90468397  0.40468398  0.80936806  1
  O  O7  1  0.40468401  0.90468396  0.80936807  1
  O  O8  1  0.09531601  0.59531598  0.19063202  1
  O  O9  1  0.59531598  0.09531600  0.19063202  1
  O  O10  1  0.19193800  0.19193799  0.38387603  1
  O  O11  1  0.80806199  0.80806197  0.61612406  1
