# generated using pymatgen
data_Li4Mn5OF8
_symmetry_space_group_name_H-M   'P 1'
_cell_length_a   5.49605370
_cell_length_b   5.58026361
_cell_length_c   8.20039940
_cell_angle_alpha   71.18502045
_cell_angle_beta   81.12277985
_cell_angle_gamma   69.98162842
_symmetry_Int_Tables_number   1
_chemical_formula_structural   Li4Mn5OF8
_chemical_formula_sum   'Li4 Mn5 O1 F8'
_cell_volume   223.40668383
_cell_formula_units_Z   1
loop_
 _symmetry_equiv_pos_site_id
 _symmetry_equiv_pos_as_xyz
  1  'x, y, z'
loop_
 _atom_site_type_symbol
 _atom_site_label
 _atom_site_symmetry_multiplicity
 _atom_site_fract_x
 _atom_site_fract_y
 _atom_site_fract_z
 _atom_site_occupancy
  Li  Li0  1  0.29499597  0.37358299  0.77635003  1
  Li  Li1  1  0.70500395  0.62641699  0.22364999  1
  Li  Li2  1  0.29567498  0.19522400  0.19451000  1
  Li  Li3  1  0.70432494  0.80477598  0.80549002  1
  Mn  Mn4  1  0.21103196  0.78853998  0.03337299  1
  Mn  Mn5  1  0.78896796  0.21145999  0.96662703  1
  Mn  Mn6  1  0.25025395  0.94336998  0.55668502  1
  Mn  Mn7  1  0.74974597  0.05663000  0.44331501  1
  Mn  Mn8  1  0.75396595  0.52015799  0.56907101  1
  O  O9  1  0.24603397  0.47984199  0.43092901  1
  F  F10  1  0.04920497  0.67983698  0.61261003  1
  F  F11  1  0.95079495  0.32016299  0.38739000  1
  F  F12  1  0.15913999  0.18028400  0.99134005  1
  F  F13  1  0.84085993  0.81971598  0.00865997  1
  F  F14  1  0.56234696  0.50991799  0.79909303  1
  F  F15  1  0.43765296  0.49008199  0.20090700  1
  F  F16  1  0.55343194  0.86737798  0.36287800  1
  F  F17  1  0.44656798  0.13262200  0.63712202  1
