# generated using pymatgen
data_Na5ZrO4
_symmetry_space_group_name_H-M   'P 1'
_cell_length_a   5.68011379
_cell_length_b   5.68011379
_cell_length_c   6.20068836
_cell_angle_alpha   62.74039459
_cell_angle_beta   62.74039459
_cell_angle_gamma   60.00000000
_symmetry_Int_Tables_number   1
_chemical_formula_structural   Na5ZrO4
_chemical_formula_sum   'Na5 Zr1 O4'
_cell_volume   147.04060741
_cell_formula_units_Z   1
loop_
 _symmetry_equiv_pos_site_id
 _symmetry_equiv_pos_as_xyz
  1  'x, y, z'
loop_
 _atom_site_type_symbol
 _atom_site_label
 _atom_site_symmetry_multiplicity
 _atom_site_fract_x
 _atom_site_fract_y
 _atom_site_fract_z
 _atom_site_occupancy
  Na  Na0  1  0.42463401  0.07536600  0.75000002  1
  Na  Na1  1  0.07536600  0.75000003  0.75000003  1
  Na  Na2  1  0.75000002  0.42463402  0.75000003  1
  Na  Na3  1  0.25000001  0.57536602  0.25000001  1
  Na  Na4  1  0.92463403  0.25000001  0.25000001  1
  Zr  Zr5  1  0.57536602  0.92463403  0.25000001  1
  O  O6  1  0.33879101  0.33879101  0.98362703  1
  O  O7  1  0.16120900  0.16120901  0.51637302  1
  O  O8  1  0.83879103  0.83879103  0.48362702  1
  O  O9  1  0.66120902  0.66120902  0.01637301  1
