# generated using pymatgen
data_Li2CoNi5O8
_symmetry_space_group_name_H-M   'P 1'
_cell_length_a   4.26889896
_cell_length_b   4.32164097
_cell_length_c   8.62580299
_cell_angle_alpha   90.00227356
_cell_angle_beta   90.00396729
_cell_angle_gamma   89.99668884
_symmetry_Int_Tables_number   1
_chemical_formula_structural   Li2CoNi5O8
_chemical_formula_sum   'Li2 Co1 Ni5 O8'
_cell_volume   159.13440800
_cell_formula_units_Z   1
loop_
 _symmetry_equiv_pos_site_id
 _symmetry_equiv_pos_as_xyz
  1  'x, y, z'
loop_
 _atom_site_type_symbol
 _atom_site_label
 _atom_site_symmetry_multiplicity
 _atom_site_fract_x
 _atom_site_fract_y
 _atom_site_fract_z
 _atom_site_occupancy
  Li  Li0  1  0.99989701  0.00002000  0.00161799  1
  Li  Li1  1  0.49978900  0.50002300  0.50213198  1
  Ni  Ni2  1  0.99961101  0.00019300  0.49509299  1
  Ni  Ni3  1  0.99993701  0.50032600  0.75321198  1
  Co  Co4  1  0.50056601  0.99988601  0.24870697  1
  Ni  Ni5  1  0.49936000  0.49976800  0.00411698  1
  Ni  Ni6  1  0.50024301  0.99995601  0.74655497  1
  Ni  Ni7  1  0.00035000  0.50013400  0.25134999  1
  O  O8  1  0.49980001  0.99972701  0.99994797  1
  O  O9  1  0.99987601  0.50019500  0.50000798  1
  O  O10  1  0.99966901  0.49949600  0.00337398  1
  O  O11  1  0.49991200  0.00008500  0.49635000  1
  O  O12  1  0.00024400  0.00028400  0.73228000  1
  O  O13  1  0.50029400  0.49979300  0.24346298  1
  O  O14  1  0.49993900  0.50000900  0.76651298  1
  O  O15  1  0.00051200  0.00010500  0.25527900  1
