# generated using pymatgen
data_CeSi3Rh
_symmetry_space_group_name_H-M   'P 1'
_cell_length_a   5.87786388
_cell_length_b   8.25631428
_cell_length_c   8.25631428
_cell_angle_alpha   74.49408722
_cell_angle_beta   69.14759827
_cell_angle_gamma   69.14759827
_symmetry_Int_Tables_number   1
_chemical_formula_structural   CeSi3Rh
_chemical_formula_sum   'Ce4 Si12 Rh4'
_cell_volume   345.33908809
_cell_formula_units_Z   4
loop_
 _symmetry_equiv_pos_site_id
 _symmetry_equiv_pos_as_xyz
  1  'x, y, z'
loop_
 _atom_site_type_symbol
 _atom_site_label
 _atom_site_symmetry_multiplicity
 _atom_site_fract_x
 _atom_site_fract_y
 _atom_site_fract_z
 _atom_site_occupancy
  Ce  Ce0  1  0.86873999  0.89821896  0.36430097  1
  Ce  Ce1  1  0.13126000  0.10178100  0.63569896  1
  Ce  Ce2  1  0.36874000  0.36430098  0.89821895  1
  Ce  Ce3  1  0.63125999  0.63569897  0.10178099  1
  Si  Si4  1  0.52442698  0.72557297  0.72557296  1
  Si  Si5  1  0.47557300  0.27442699  0.27442698  1
  Si  Si6  1  0.97557302  0.27442699  0.27442696  1
  Si  Si7  1  0.02442697  0.72557297  0.72557297  1
  Si  Si8  1  0.60691301  0.24047099  0.54570396  1
  Si  Si9  1  0.39308698  0.75952897  0.45429597  1
  Si  Si10  1  0.10691198  0.54570497  0.24047099  1
  Si  Si11  1  0.89308801  0.45429498  0.75952894  1
  Si  Si12  1  0.24999996  0.99999995  0.00000001  1
  Si  Si13  1  0.75000002  0.00000000  -0.00000002  1
  Si  Si14  1  0.63812098  0.97174896  0.75200795  1
  Si  Si15  1  0.36187901  0.02825100  0.24799198  1
  Rh  Rh16  1  0.13812197  0.75200697  0.97174895  1
  Rh  Rh17  1  0.86187802  0.24799299  0.02825098  1
  Rh  Rh18  1  0.24999999  0.49999998  0.49999997  1
  Rh  Rh19  1  0.75000000  0.49999998  0.49999996  1
