# generated using pymatgen
data_SmCdPd
_symmetry_space_group_name_H-M   'P 1'
_cell_length_a   4.18519402
_cell_length_b   7.49636793
_cell_length_c   7.49636793
_cell_angle_alpha   120.00000000
_cell_angle_beta   90.00000000
_cell_angle_gamma   90.00000000
_symmetry_Int_Tables_number   1
_chemical_formula_structural   SmCdPd
_chemical_formula_sum   'Sm3 Cd3 Pd3'
_cell_volume   203.67982614
_cell_formula_units_Z   3
loop_
 _symmetry_equiv_pos_site_id
 _symmetry_equiv_pos_as_xyz
  1  'x, y, z'
loop_
 _atom_site_type_symbol
 _atom_site_label
 _atom_site_symmetry_multiplicity
 _atom_site_fract_x
 _atom_site_fract_y
 _atom_site_fract_z
 _atom_site_occupancy
  Sm  Sm0  1  1.00000000  0.00000000  0.58670800  1
  Sm  Sm1  1  -0.00000000  0.58670800  -0.00000001  1
  Sm  Sm2  1  -0.00000000  0.41329200  0.41329199  1
  Cd  Cd3  1  0.50000000  0.24935600  -0.00000000  1
  Cd  Cd4  1  0.50000000  0.00000000  0.24935600  1
  Cd  Cd5  1  0.50000000  0.75064400  0.75064399  1
  Pd  Pd6  1  0.00000000  0.00000000  0.00000000  1
  Pd  Pd7  1  0.50000000  0.33333333  0.66666666  1
  Pd  Pd8  1  0.50000000  0.66666667  0.33333333  1
