# generated using pymatgen
data_CeIn2Pd
_symmetry_space_group_name_H-M   'P 1'
_cell_length_a   4.16863823
_cell_length_b   5.51372051
_cell_length_c   8.35569000
_cell_angle_alpha   90.00000000
_cell_angle_beta   90.00000000
_cell_angle_gamma   112.21134186
_symmetry_Int_Tables_number   1
_chemical_formula_structural   CeIn2Pd
_chemical_formula_sum   'Ce2 In4 Pd2'
_cell_volume   177.80192863
_cell_formula_units_Z   2
loop_
 _symmetry_equiv_pos_site_id
 _symmetry_equiv_pos_as_xyz
  1  'x, y, z'
loop_
 _atom_site_type_symbol
 _atom_site_label
 _atom_site_symmetry_multiplicity
 _atom_site_fract_x
 _atom_site_fract_y
 _atom_site_fract_z
 _atom_site_occupancy
  Ce  Ce0  1  0.93393794  0.86787598  0.75000000  1
  Ce  Ce1  1  0.06606199  0.13212400  0.25000000  1
  In  In2  1  0.35415497  0.70830998  0.45042500  1
  In  In3  1  0.64584496  0.29168999  0.54957500  1
  In  In4  1  0.35415497  0.70830998  0.04957500  1
  In  In5  1  0.64584496  0.29168999  0.95042500  1
  Pd  Pd6  1  0.78048395  0.56096798  0.25000000  1
  Pd  Pd7  1  0.21951598  0.43903199  0.75000000  1
