# generated using pymatgen
data_LaMnO3
_symmetry_space_group_name_H-M   'P 1'
_cell_length_a   5.55375195
_cell_length_b   5.75111246
_cell_length_c   8.03674030
_cell_angle_alpha   90.00000000
_cell_angle_beta   90.00000000
_cell_angle_gamma   89.90184021
_symmetry_Int_Tables_number   1
_chemical_formula_structural   LaMnO3
_chemical_formula_sum   'La4 Mn4 O12'
_cell_volume   256.69513398
_cell_formula_units_Z   4
loop_
 _symmetry_equiv_pos_site_id
 _symmetry_equiv_pos_as_xyz
  1  'x, y, z'
loop_
 _atom_site_type_symbol
 _atom_site_label
 _atom_site_symmetry_multiplicity
 _atom_site_fract_x
 _atom_site_fract_y
 _atom_site_fract_z
 _atom_site_occupancy
  La  La0  1  0.48502202  0.43364200  0.24999999  1
  La  La1  1  0.51497802  0.56635800  0.74999997  1
  La  La2  1  0.00671402  0.95230800  0.24999999  1
  La  La3  1  0.99328601  0.04769200  0.74999997  1
  Mn  Mn4  1  0.00000001  0.50000000  0.49999998  1
  Mn  Mn5  1  0.00000001  0.50000000  -0.00000000  1
  Mn  Mn6  1  0.50000000  0.00000000  0.49999998  1
  Mn  Mn7  1  0.50000000  0.00000000  -0.00000000  1
  O  O8  1  0.70536301  0.31607900  0.55323998  1
  O  O9  1  0.81917003  0.79083300  0.94542096  1
  O  O10  1  0.29463702  0.68392100  0.05324000  1
  O  O11  1  0.18083001  0.20916700  0.44542098  1
  O  O12  1  0.81917003  0.79083300  0.55457898  1
  O  O13  1  0.18083001  0.20916700  0.05457900  1
  O  O14  1  0.10445601  0.46045700  0.74999997  1
  O  O15  1  0.70536301  0.31607900  0.94675996  1
  O  O16  1  0.60954901  0.04438600  0.24999999  1
  O  O17  1  0.29463702  0.68392100  0.44675998  1
  O  O18  1  0.89554402  0.53954300  0.24999999  1
  O  O19  1  0.39045103  0.95561400  0.74999997  1
