# generated using pymatgen
data_Ti3Si4
_symmetry_space_group_name_H-M   'P 1'
_cell_length_a   5.46400976
_cell_length_b   5.51236010
_cell_length_c   6.92519379
_cell_angle_alpha   113.45278168
_cell_angle_beta   90.00000000
_cell_angle_gamma   90.00000000
_symmetry_Int_Tables_number   1
_chemical_formula_structural   Ti3Si4
_chemical_formula_sum   'Ti6 Si8'
_cell_volume   191.35253121
_cell_formula_units_Z   2
loop_
 _symmetry_equiv_pos_site_id
 _symmetry_equiv_pos_as_xyz
  1  'x, y, z'
loop_
 _atom_site_type_symbol
 _atom_site_label
 _atom_site_symmetry_multiplicity
 _atom_site_fract_x
 _atom_site_fract_y
 _atom_site_fract_z
 _atom_site_occupancy
  Ti  Ti0  1  0.50000002  0.85816397  0.71632795  1
  Ti  Ti1  1  -0.00000000  0.36216799  0.72433597  1
  Ti  Ti2  1  -0.00000000  0.64136698  0.28273397  1
  Ti  Ti3  1  0.50000002  0.13771400  0.27542799  1
  Ti  Ti4  1  -0.00000000  0.99666697  0.99333394  1
  Ti  Ti5  1  0.50000002  0.49816298  0.99632595  1
  Si  Si6  1  -0.00000000  0.17859699  0.35719398  1
  Si  Si7  1  0.50000002  0.66824698  0.33649397  1
  Si  Si8  1  0.50000002  0.32094999  0.64189997  1
  Si  Si9  1  1.00000004  0.82601897  0.65203795  1
  Si  Si10  1  0.23967101  0.75240197  0.00597197  1
  Si  Si11  1  0.76032903  0.25356999  0.00597199  1
  Si  Si12  1  0.23967101  0.25356999  0.00597199  1
  Si  Si13  1  0.76032903  0.75240197  0.00597197  1
