# generated using pymatgen
data_Dy4Ni7
_symmetry_space_group_name_H-M   'P 1'
_cell_length_a   4.46831703
_cell_length_b   6.89944601
_cell_length_c   8.49238396
_cell_angle_alpha   113.96720886
_cell_angle_beta   105.25277710
_cell_angle_gamma   90.00000000
_symmetry_Int_Tables_number   1
_chemical_formula_structural   Dy4Ni7
_chemical_formula_sum   'Dy4 Ni7'
_cell_volume   229.10783255
_cell_formula_units_Z   1
loop_
 _symmetry_equiv_pos_site_id
 _symmetry_equiv_pos_as_xyz
  1  'x, y, z'
loop_
 _atom_site_type_symbol
 _atom_site_label
 _atom_site_symmetry_multiplicity
 _atom_site_fract_x
 _atom_site_fract_y
 _atom_site_fract_z
 _atom_site_occupancy
  Dy  Dy0  1  0.32916401  0.63889400  0.65832901  1
  Dy  Dy1  1  0.67083601  0.36110600  0.34167101  1
  Dy  Dy2  1  0.67083602  0.98056500  0.34167102  1
  Dy  Dy3  1  0.32916400  0.01943500  0.65832900  1
  Ni  Ni4  1  0.00000000  0.00000000  0.00000000  1
  Ni  Ni5  1  0.86871601  0.36871600  0.73743201  1
  Ni  Ni6  1  0.13128401  0.63128400  0.26256801  1
  Ni  Ni7  1  0.50000001  0.68403600  0.00000001  1
  Ni  Ni8  1  0.50000001  0.31596400  1.00000001  1
  Ni  Ni9  1  0.21311400  0.21311500  0.42622900  1
  Ni  Ni10  1  0.78688602  0.78688500  0.57377102  1
