# generated using pymatgen
data_InNiAsRh4
_symmetry_space_group_name_H-M   'P 1'
_cell_length_a   3.99952507
_cell_length_b   3.99952507
_cell_length_c   7.07676888
_cell_angle_alpha   90.00000000
_cell_angle_beta   90.00000000
_cell_angle_gamma   90.00000000
_symmetry_Int_Tables_number   1
_chemical_formula_structural   InNiAsRh4
_chemical_formula_sum   'In1 Ni1 As1 Rh4'
_cell_volume   113.20141585
_cell_formula_units_Z   1
loop_
 _symmetry_equiv_pos_site_id
 _symmetry_equiv_pos_as_xyz
  1  'x, y, z'
loop_
 _atom_site_type_symbol
 _atom_site_label
 _atom_site_symmetry_multiplicity
 _atom_site_fract_x
 _atom_site_fract_y
 _atom_site_fract_z
 _atom_site_occupancy
  In  In0  1  0.49999999  0.49999999  0.00000000  1
  Ni  Ni1  1  0.00000000  0.00000000  0.50000001  1
  Rh  Rh2  1  0.00000000  0.49999999  0.29753901  1
  As  As3  1  0.00000000  0.49999999  0.70246101  1
  Rh  Rh4  1  0.49999999  0.00000000  0.29753901  1
  Rh  Rh5  1  0.49999999  0.00000000  0.70246101  1
  Rh  Rh6  1  0.00000000  0.00000000  0.00000000  1
