# generated using pymatgen
data_TiBi2O5
_symmetry_space_group_name_H-M   'P 1'
_cell_length_a   3.98218799
_cell_length_b   6.23454237
_cell_length_c   6.23454237
_cell_angle_alpha   68.63259888
_cell_angle_beta   71.37548065
_cell_angle_gamma   71.37548065
_symmetry_Int_Tables_number   1
_chemical_formula_structural   TiBi2O5
_chemical_formula_sum   'Ti1 Bi2 O5'
_cell_volume   132.93434128
_cell_formula_units_Z   1
loop_
 _symmetry_equiv_pos_site_id
 _symmetry_equiv_pos_as_xyz
  1  'x, y, z'
loop_
 _atom_site_type_symbol
 _atom_site_label
 _atom_site_symmetry_multiplicity
 _atom_site_fract_x
 _atom_site_fract_y
 _atom_site_fract_z
 _atom_site_occupancy
  Ti  Ti0  1  0.00000000  0.00000000  0.00000000  1
  Bi  Bi1  1  0.00000001  0.50000000  0.50000002  1
  Bi  Bi2  1  0.34379501  0.46612700  0.84628302  1
  O  O3  1  0.65620501  0.53387300  0.15371703  1
  O  O4  1  0.65620500  0.15371700  0.53387302  1
  O  O5  1  0.34379502  0.84628299  0.46612703  1
  O  O6  1  0.24217700  0.25782300  0.25782301  1
  O  O7  1  0.75782301  0.74217699  0.74217704  1
