# generated using pymatgen
data_Sr3MnVCrWO13
_symmetry_space_group_name_H-M   'P 1'
_cell_length_a   5.67268181
_cell_length_b   5.70570087
_cell_length_c   7.91512585
_cell_angle_alpha   89.99458313
_cell_angle_beta   89.99835968
_cell_angle_gamma   89.93324280
_symmetry_Int_Tables_number   1
_chemical_formula_structural   Sr3MnVCrWO13
_chemical_formula_sum   'Sr3 Mn1 V1 Cr1 W1 O13'
_cell_volume   256.18573936
_cell_formula_units_Z   1
loop_
 _symmetry_equiv_pos_site_id
 _symmetry_equiv_pos_as_xyz
  1  'x, y, z'
loop_
 _atom_site_type_symbol
 _atom_site_label
 _atom_site_symmetry_multiplicity
 _atom_site_fract_x
 _atom_site_fract_y
 _atom_site_fract_z
 _atom_site_occupancy
  Sr  Sr0  1  0.49985898  0.00296000  0.23052600  1
  Sr  Sr1  1  0.99998999  0.49699900  0.23051398  1
  Sr  Sr2  1  0.50007903  0.99699299  0.76949898  1
  Mn  Mn3  1  0.00008603  0.50303900  0.76948400  1
  Cr  Cr4  1  0.49994501  0.49997500  0.99982500  1
  V  V5  1  0.00004305  0.99985099  0.00013597  1
  O  O6  1  0.00000300  0.00006600  0.49994701  1
  W  W7  1  0.50000201  0.50000200  0.49999999  1
  O  O8  1  0.00321605  0.95237099  0.23822298  1
  O  O9  1  0.49692001  0.54761400  0.23822298  1
  O  O10  1  0.99677296  0.04765500  0.76182600  1
  O  O11  1  0.50308600  0.45238900  0.76171700  1
  O  O12  1  0.25006500  0.24998000  0.02030899  1
  O  O13  1  0.74995101  0.75000400  0.97968399  1
  O  O14  1  0.24997303  0.74994800  0.97713100  1
  O  O15  1  0.75001598  0.25004000  0.02286598  1
  O  O16  1  0.24947100  0.25055100  0.46704600  1
  O  O17  1  0.75050001  0.74950800  0.53300698  1
  O  O18  1  0.25053403  0.75062600  0.53808199  1
  O  O19  1  0.74948698  0.24942900  0.46195499  1
