# generated using pymatgen
data_Sr4Co4Br7N5
_symmetry_space_group_name_H-M   'P 1'
_cell_length_a   3.77226806
_cell_length_b   7.78230381
_cell_length_c   12.91580009
_cell_angle_alpha   90.00000000
_cell_angle_beta   90.00000000
_cell_angle_gamma   90.00000000
_symmetry_Int_Tables_number   1
_chemical_formula_structural   Sr4Co4Br7N5
_chemical_formula_sum   'Sr4 Co4 Br7 N5'
_cell_volume   379.16831769
_cell_formula_units_Z   1
loop_
 _symmetry_equiv_pos_site_id
 _symmetry_equiv_pos_as_xyz
  1  'x, y, z'
loop_
 _atom_site_type_symbol
 _atom_site_label
 _atom_site_symmetry_multiplicity
 _atom_site_fract_x
 _atom_site_fract_y
 _atom_site_fract_z
 _atom_site_occupancy
  Sr  Sr0  1  0.25000000  0.08699700  0.82722799  1
  Sr  Sr1  1  0.74999999  0.91300302  0.17277200  1
  Sr  Sr2  1  0.25000000  0.58699701  0.67277200  1
  Sr  Sr3  1  0.74999999  0.41300301  0.32722800  1
  Co  Co4  1  0.25000000  0.33699601  0.05247900  1
  Co  Co5  1  0.74999999  0.66300402  0.94752099  1
  Co  Co6  1  0.25000000  0.83699602  0.44752100  1
  Co  Co7  1  0.74999999  0.16300400  0.55247900  1
  Br  Br8  1  0.25000000  0.48724401  0.89282499  1
  N  N9  1  0.74999999  0.51275601  0.10717500  1
  Br  Br10  1  0.25000000  0.98724402  0.60717500  1
  Br  Br11  1  0.74999999  0.01275600  0.39282500  1
  Br  Br12  1  0.25000000  0.33962001  0.49337100  1
  Br  Br13  1  0.74999999  0.66038002  0.50662900  1
  N  N14  1  0.25000000  0.83962002  0.00662900  1
  N  N15  1  0.74999999  0.16038000  0.99337099  1
  N  N16  1  0.74999999  0.30766901  0.71454199  1
  Br  Br17  1  0.25000000  0.69233102  0.28545800  1
  N  N18  1  0.74999999  0.80766902  0.78545799  1
  Br  Br19  1  0.25000000  0.19233100  0.21454200  1
