# generated using pymatgen
data_Mn2O3
_symmetry_space_group_name_H-M   'P 1'
_cell_length_a   5.22884703
_cell_length_b   5.22883511
_cell_length_c   5.60925865
_cell_angle_alpha   62.21931076
_cell_angle_beta   62.22316742
_cell_angle_gamma   60.00009155
_symmetry_Int_Tables_number   1
_chemical_formula_structural   Mn2O3
_chemical_formula_sum   'Mn4 O6'
_cell_volume   111.94234726
_cell_formula_units_Z   2
loop_
 _symmetry_equiv_pos_site_id
 _symmetry_equiv_pos_as_xyz
  1  'x, y, z'
loop_
 _atom_site_type_symbol
 _atom_site_label
 _atom_site_symmetry_multiplicity
 _atom_site_fract_x
 _atom_site_fract_y
 _atom_site_fract_z
 _atom_site_occupancy
  Mn  Mn0  1  0.81172102  0.81171398  0.56484897  1
  Mn  Mn1  1  0.52130001  0.52130699  0.43608998  1
  Mn  Mn2  1  0.01612800  0.01614700  0.95158097  1
  Mn  Mn3  1  0.31883901  0.31879899  0.04354699  1
  O  O4  1  0.59987501  0.22037799  0.24656499  1
  O  O5  1  0.22036002  0.93319398  0.24656198  1
  O  O6  1  0.93319101  0.59987598  0.24656698  1
  O  O7  1  0.41440801  0.70933998  0.75981297  1
  O  O8  1  0.70933900  0.11644100  0.75980497  1
  O  O9  1  0.11643601  0.41440499  0.75982197  1
