# generated using pymatgen
data_MnCo6Sn
_symmetry_space_group_name_H-M   'P 1'
_cell_length_a   5.56357622
_cell_length_b   5.56357574
_cell_length_c   9.06178284
_cell_angle_alpha   90.00000000
_cell_angle_beta   90.00000000
_cell_angle_gamma   120.00000000
_symmetry_Int_Tables_number   1
_chemical_formula_structural   MnCo6Sn
_chemical_formula_sum   'Mn2 Co12 Sn2'
_cell_volume   242.91387909
_cell_formula_units_Z   2
loop_
 _symmetry_equiv_pos_site_id
 _symmetry_equiv_pos_as_xyz
  1  'x, y, z'
loop_
 _atom_site_type_symbol
 _atom_site_label
 _atom_site_symmetry_multiplicity
 _atom_site_fract_x
 _atom_site_fract_y
 _atom_site_fract_z
 _atom_site_occupancy
  Mn  Mn0  1  0.00000000  0.00000000  0.50000001  1
  Mn  Mn1  1  0.00000000  0.00000000  0.00000000  1
  Co  Co2  1  0.66666664  0.33333334  0.75000001  1
  Co  Co3  1  0.33333331  0.66666668  0.25000000  1
  Co  Co4  1  0.49999998  0.00000000  0.50000001  1
  Co  Co5  1  0.49999997  0.50000001  0.50000001  1
  Co  Co6  1  0.99999995  0.50000001  0.50000001  1
  Co  Co7  1  0.49999998  0.00000000  -0.00000000  1
  Co  Co8  1  0.49999997  0.50000001  1.00000002  1
  Co  Co9  1  0.99999995  0.50000001  -0.00000000  1
  Co  Co10  1  0.16619898  0.83380201  0.75000001  1
  Co  Co11  1  0.66760296  0.83380201  0.75000001  1
  Co  Co12  1  0.16619899  0.33239800  0.75000001  1
  Sn  Sn13  1  0.83380096  0.16619800  0.25000000  1
  Sn  Sn14  1  0.33239698  0.16619800  0.25000000  1
  Co  Co15  1  0.83380096  0.66760201  0.25000000  1
