# generated using pymatgen
data_Al2CuAg
_symmetry_space_group_name_H-M   'P 1'
_cell_length_a   3.13212991
_cell_length_b   3.13212991
_cell_length_c   6.16799212
_cell_angle_alpha   90.00000000
_cell_angle_beta   90.00000000
_cell_angle_gamma   90.00000000
_symmetry_Int_Tables_number   1
_chemical_formula_structural   Al2CuAg
_chemical_formula_sum   'Al2 Cu1 Ag1'
_cell_volume   60.50946914
_cell_formula_units_Z   1
loop_
 _symmetry_equiv_pos_site_id
 _symmetry_equiv_pos_as_xyz
  1  'x, y, z'
loop_
 _atom_site_type_symbol
 _atom_site_label
 _atom_site_symmetry_multiplicity
 _atom_site_fract_x
 _atom_site_fract_y
 _atom_site_fract_z
 _atom_site_occupancy
  Al  Al0  1  0.50000001  0.50000001  0.27533499  1
  Al  Al1  1  0.50000001  0.50000001  0.72466499  1
  Ag  Ag2  1  0.00000000  0.00000000  0.00000000  1
  Cu  Cu3  1  0.00000000  0.00000000  0.49999999  1
