# generated using pymatgen
data_Dy2Ge5C3
_symmetry_space_group_name_H-M   'P 1'
_cell_length_a   3.85363197
_cell_length_b   5.72592688
_cell_length_c   7.04990292
_cell_angle_alpha   90.00000000
_cell_angle_beta   90.00000000
_cell_angle_gamma   109.66422272
_symmetry_Int_Tables_number   1
_chemical_formula_structural   Dy2Ge5C3
_chemical_formula_sum   'Dy2 Ge5 C3'
_cell_volume   146.48829057
_cell_formula_units_Z   1
loop_
 _symmetry_equiv_pos_site_id
 _symmetry_equiv_pos_as_xyz
  1  'x, y, z'
loop_
 _atom_site_type_symbol
 _atom_site_label
 _atom_site_symmetry_multiplicity
 _atom_site_fract_x
 _atom_site_fract_y
 _atom_site_fract_z
 _atom_site_occupancy
  Dy  Dy0  1  0.44936208  0.89872405  0.75000001  1
  Dy  Dy1  1  0.55063801  0.10127601  0.25000000  1
  Ge  Ge2  1  0.16782303  0.33564602  0.93796301  1
  Ge  Ge3  1  0.83217707  0.66435404  0.06203700  1
  Ge  Ge4  1  0.83217707  0.66435404  0.43796301  1
  Ge  Ge5  1  0.16782303  0.33564602  0.56203701  1
  Ge  Ge6  1  0.72988005  0.45976002  0.75000001  1
  C  C7  1  0.27012005  0.54024003  0.25000000  1
  C  C8  1  0.00000000  0.00000000  0.00000000  1
  C  C9  1  0.00000000  0.00000000  0.50000001  1
