# generated using pymatgen
data_CaGaAu
_symmetry_space_group_name_H-M   'P 1'
_cell_length_a   4.54196405
_cell_length_b   7.66281796
_cell_length_c   8.08299828
_cell_angle_alpha   90.00000000
_cell_angle_beta   90.00000000
_cell_angle_gamma   90.00000000
_symmetry_Int_Tables_number   1
_chemical_formula_structural   CaGaAu
_chemical_formula_sum   'Ca4 Ga4 Au4'
_cell_volume   281.32264186
_cell_formula_units_Z   4
loop_
 _symmetry_equiv_pos_site_id
 _symmetry_equiv_pos_as_xyz
  1  'x, y, z'
loop_
 _atom_site_type_symbol
 _atom_site_label
 _atom_site_symmetry_multiplicity
 _atom_site_fract_x
 _atom_site_fract_y
 _atom_site_fract_z
 _atom_site_occupancy
  Ca  Ca0  1  0.25000000  0.00750300  0.29465199  1
  Ca  Ca1  1  0.25000000  0.50750300  0.20534799  1
  Ca  Ca2  1  0.74999999  0.99249701  0.70534798  1
  Ca  Ca3  1  0.74999999  0.49249700  0.79465197  1
  Ga  Ga4  1  0.25000000  0.15748000  0.92713097  1
  Ga  Ga5  1  0.25000000  0.65748000  0.57286898  1
  Ga  Ga6  1  0.74999999  0.84252000  0.07286900  1
  Ga  Ga7  1  0.74999999  0.34252000  0.42713099  1
  Au  Au8  1  0.25000000  0.27582900  0.59400498  1
  Au  Au9  1  0.25000000  0.77582900  0.90599497  1
  Au  Au10  1  0.74999999  0.72417100  0.40599499  1
  Au  Au11  1  0.74999999  0.22417100  0.09400500  1
