# generated using pymatgen
data_Ce2NiGe3
_symmetry_space_group_name_H-M   'P 1'
_cell_length_a   4.24699879
_cell_length_b   4.25468588
_cell_length_c   7.72034454
_cell_angle_alpha   105.99481201
_cell_angle_beta   105.96513367
_cell_angle_gamma   90.00000000
_symmetry_Int_Tables_number   1
_chemical_formula_structural   Ce2NiGe3
_chemical_formula_sum   'Ce2 Ni1 Ge3'
_cell_volume   128.49650558
_cell_formula_units_Z   1
loop_
 _symmetry_equiv_pos_site_id
 _symmetry_equiv_pos_as_xyz
  1  'x, y, z'
loop_
 _atom_site_type_symbol
 _atom_site_label
 _atom_site_symmetry_multiplicity
 _atom_site_fract_x
 _atom_site_fract_y
 _atom_site_fract_z
 _atom_site_occupancy
  Ce  Ce0  1  0.74111503  0.24111401  0.48222899  1
  Ce  Ce1  1  0.00706500  0.00706500  0.01413000  1
  Ge  Ge2  1  0.41960102  0.41960102  0.83920199  1
  Ni  Ni3  1  0.16235001  0.66234903  0.32469901  1
  Ge  Ge4  1  0.58557603  0.58557502  0.17115100  1
  Ge  Ge5  1  0.33429402  0.83429503  0.66858900  1
