# generated using pymatgen
data_Gd2ZnWF14
_symmetry_space_group_name_H-M   'P 1'
_cell_length_a   5.70059490
_cell_length_b   6.11337757
_cell_length_c   8.28304958
_cell_angle_alpha   102.24204254
_cell_angle_beta   90.00000000
_cell_angle_gamma   90.00000000
_symmetry_Int_Tables_number   1
_chemical_formula_structural   Gd2ZnWF14
_chemical_formula_sum   'Gd2 Zn1 W1 F14'
_cell_volume   282.09931704
_cell_formula_units_Z   1
loop_
 _symmetry_equiv_pos_site_id
 _symmetry_equiv_pos_as_xyz
  1  'x, y, z'
loop_
 _atom_site_type_symbol
 _atom_site_label
 _atom_site_symmetry_multiplicity
 _atom_site_fract_x
 _atom_site_fract_y
 _atom_site_fract_z
 _atom_site_occupancy
  Gd  Gd0  1  0.69948501  0.65386399  0.68334199  1
  Gd  Gd1  1  0.19948500  0.34613599  0.31665799  1
  Zn  Zn2  1  0.70920101  0.81234198  0.22403197  1
  W  W3  1  0.20920100  0.18765800  0.77596801  1
  F  F4  1  0.88617802  0.44994099  0.47547899  1
  F  F5  1  0.38617801  0.55005899  0.52452099  1
  F  F6  1  0.42634301  0.91907698  0.76425198  1
  F  F7  1  0.92634302  0.08092300  0.23574800  1
  F  F8  1  0.93940602  0.96198798  0.76223798  1
  F  F9  1  0.43940601  0.03801200  0.23776201  1
  F  F10  1  0.99374502  0.45690099  0.78630500  1
  F  F11  1  0.49374501  0.54309899  0.21369498  1
  F  F12  1  0.70353301  0.75556099  0.97329700  1
  F  F13  1  0.20353300  0.24443900  0.02670299  1
  F  F14  1  0.71194201  0.85959598  0.47611798  1
  F  F15  1  0.21194200  0.14040400  0.52388201  1
  F  F16  1  0.50652601  0.38037399  0.78041701  1
  F  F17  1  0.00652600  0.61962599  0.21958298  1
