# generated using pymatgen
data_Mn5CuSn2
_symmetry_space_group_name_H-M   'P 1'
_cell_length_a   4.46260309
_cell_length_b   5.61023378
_cell_length_c   5.61023378
_cell_angle_alpha   120.00000000
_cell_angle_beta   90.00000000
_cell_angle_gamma   90.00000000
_symmetry_Int_Tables_number   1
_chemical_formula_structural   Mn5CuSn2
_chemical_formula_sum   'Mn5 Cu1 Sn2'
_cell_volume   121.64123251
_cell_formula_units_Z   1
loop_
 _symmetry_equiv_pos_site_id
 _symmetry_equiv_pos_as_xyz
  1  'x, y, z'
loop_
 _atom_site_type_symbol
 _atom_site_label
 _atom_site_symmetry_multiplicity
 _atom_site_fract_x
 _atom_site_fract_y
 _atom_site_fract_z
 _atom_site_occupancy
  Mn  Mn0  1  0.24999999  0.66666669  0.33333333  1
  Mn  Mn1  1  0.74999998  0.33333334  0.66666667  1
  Mn  Mn2  1  0.74999998  0.83449703  0.16550299  1
  Mn  Mn3  1  0.74999998  0.33100601  0.16550300  1
  Cu  Cu4  1  0.74999998  0.83449703  0.66899399  1
  Mn  Mn5  1  0.24999999  0.16550301  0.83449701  1
  Sn  Sn6  1  0.24999999  0.66899402  0.83449700  1
  Sn  Sn7  1  0.24999999  0.16550301  0.33100600  1
