# generated using pymatgen
data_Ga(SbPd)3
_symmetry_space_group_name_H-M   'P 1'
_cell_length_a   5.61096621
_cell_length_b   5.84491634
_cell_length_c   5.84491634
_cell_angle_alpha   76.68012238
_cell_angle_beta   61.31545639
_cell_angle_gamma   61.31545639
_symmetry_Int_Tables_number   1
_chemical_formula_structural   Ga(SbPd)3
_chemical_formula_sum   'Ga1 Sb3 Pd3'
_cell_volume   147.52527449
_cell_formula_units_Z   1
loop_
 _symmetry_equiv_pos_site_id
 _symmetry_equiv_pos_as_xyz
  1  'x, y, z'
loop_
 _atom_site_type_symbol
 _atom_site_label
 _atom_site_symmetry_multiplicity
 _atom_site_fract_x
 _atom_site_fract_y
 _atom_site_fract_z
 _atom_site_occupancy
  Ga  Ga0  1  0.00000000  0.00000000  0.00000000  1
  Sb  Sb1  1  0.24999997  0.50000002  0.50000003  1
  Sb  Sb2  1  0.74999996  0.50000002  0.50000001  1
  Sb  Sb3  1  0.69642796  0.60714403  1.00000004  1
  Pd  Pd4  1  0.30357198  0.39285602  1.00000004  1
  Pd  Pd5  1  0.30357195  1.00000005  0.39285604  1
  Pd  Pd6  1  0.69642794  1.00000005  0.60714403  1
