# generated using pymatgen
data_Al3Si
_symmetry_space_group_name_H-M   'P 1'
_cell_length_a   4.94801092
_cell_length_b   7.27280998
_cell_length_c   7.27280998
_cell_angle_alpha   120.00000000
_cell_angle_beta   90.00000000
_cell_angle_gamma   90.00000000
_symmetry_Int_Tables_number   1
_chemical_formula_structural   Al3Si
_chemical_formula_sum   'Al12 Si4'
_cell_volume   226.65523951
_cell_formula_units_Z   4
loop_
 _symmetry_equiv_pos_site_id
 _symmetry_equiv_pos_as_xyz
  1  'x, y, z'
loop_
 _atom_site_type_symbol
 _atom_site_label
 _atom_site_symmetry_multiplicity
 _atom_site_fract_x
 _atom_site_fract_y
 _atom_site_fract_z
 _atom_site_occupancy
  Al  Al0  1  0.25000000  0.24287100  0.24287099  1
  Al  Al1  1  0.75000001  0.24287100  -0.00000000  1
  Al  Al2  1  0.75000001  0.99999999  0.24287098  1
  Al  Al3  1  0.25000000  0.99999999  0.75712896  1
  Al  Al4  1  0.25000000  0.75712900  -0.00000001  1
  Al  Al5  1  0.75000001  0.75712900  0.75712897  1
  Al  Al6  1  -0.00000000  0.66666666  0.33333331  1
  Al  Al7  1  0.50000001  0.33333333  0.66666665  1
  Al  Al8  1  -0.00000000  0.33333333  0.66666665  1
  Al  Al9  1  0.50000001  0.66666666  0.33333331  1
  Si  Si10  1  0.25000000  0.60753600  0.60753598  1
  Al  Al11  1  0.75000001  0.60753600  -0.00000001  1
  Al  Al12  1  0.75000001  0.00000000  0.60753599  1
  Si  Si13  1  0.25000000  0.00000000  0.39246399  1
  Si  Si14  1  0.25000000  0.39246400  0.99999997  1
  Si  Si15  1  0.75000001  0.39246400  0.39246398  1
