# generated using pymatgen
data_Al2GePd5
_symmetry_space_group_name_H-M   'P 1'
_cell_length_a   4.00528479
_cell_length_b   5.46790791
_cell_length_c   10.89304447
_cell_angle_alpha   90.00000000
_cell_angle_beta   90.00000000
_cell_angle_gamma   90.00000000
_symmetry_Int_Tables_number   1
_chemical_formula_structural   Al2GePd5
_chemical_formula_sum   'Al4 Ge2 Pd10'
_cell_volume   238.56342924
_cell_formula_units_Z   2
loop_
 _symmetry_equiv_pos_site_id
 _symmetry_equiv_pos_as_xyz
  1  'x, y, z'
loop_
 _atom_site_type_symbol
 _atom_site_label
 _atom_site_symmetry_multiplicity
 _atom_site_fract_x
 _atom_site_fract_y
 _atom_site_fract_z
 _atom_site_occupancy
  Al  Al0  1  0.50000003  0.18142500  0.63991797  1
  Al  Al1  1  0.50000003  0.81857501  0.36008198  1
  Al  Al2  1  0.50000003  0.68142501  0.86008196  1
  Al  Al3  1  0.50000003  0.31857501  0.13991799  1
  Ge  Ge4  1  0.00000000  0.50000001  0.49999998  1
  Ge  Ge5  1  0.00000000  0.00000000  0.00000000  1
  Pd  Pd6  1  0.50000003  0.29292201  0.39275298  1
  Pd  Pd7  1  0.50000003  0.70707801  0.60724697  1
  Pd  Pd8  1  0.50000003  0.79292201  0.10724700  1
  Pd  Pd9  1  0.50000003  0.20707800  0.89275296  1
  Pd  Pd10  1  0.00000000  0.42860901  0.73091797  1
  Pd  Pd11  1  -0.00000000  0.57139101  0.26908199  1
  Pd  Pd12  1  -0.00000000  0.92860902  0.76908197  1
  Pd  Pd13  1  -0.00000000  0.07139100  0.23091799  1
  Pd  Pd14  1  0.00000000  0.50000001  0.00000000  1
  Pd  Pd15  1  0.00000000  0.00000000  0.49999998  1
