# generated using pymatgen
data_SrSbF7
_symmetry_space_group_name_H-M   'P 1'
_cell_length_a   5.70869493
_cell_length_b   5.70869493
_cell_length_c   8.07109070
_cell_angle_alpha   90.00000000
_cell_angle_beta   90.00000000
_cell_angle_gamma   90.00000000
_symmetry_Int_Tables_number   1
_chemical_formula_structural   SrSbF7
_chemical_formula_sum   'Sr2 Sb2 F14'
_cell_volume   263.03037170
_cell_formula_units_Z   2
loop_
 _symmetry_equiv_pos_site_id
 _symmetry_equiv_pos_as_xyz
  1  'x, y, z'
loop_
 _atom_site_type_symbol
 _atom_site_label
 _atom_site_symmetry_multiplicity
 _atom_site_fract_x
 _atom_site_fract_y
 _atom_site_fract_z
 _atom_site_occupancy
  Sr  Sr0  1  0.49999999  0.49999999  0.50000000  1
  Sr  Sr1  1  0.00000000  0.00000000  0.00000000  1
  Sb  Sb2  1  0.00000000  0.49999999  0.75180478  1
  Sb  Sb3  1  0.00000000  0.49999999  0.24819522  1
  F  F4  1  0.49999999  0.00000000  0.24819522  1
  F  F5  1  0.49999999  0.00000000  0.75180478  1
  F  F6  1  0.24787698  0.24787698  0.75360472  1
  F  F7  1  0.24787698  0.24787698  0.24639528  1
  F  F8  1  0.75212299  0.75212299  0.75360472  1
  F  F9  1  0.75212299  0.75212299  0.24639528  1
  F  F10  1  0.75212299  0.24787698  0.75360472  1
  F  F11  1  0.75212299  0.24787698  0.24639528  1
  F  F12  1  0.24787698  0.75212299  0.24639528  1
  F  F13  1  0.24787698  0.75212299  0.75360472  1
  F  F14  1  0.00000000  0.49999999  0.50000000  1
  F  F15  1  0.00000000  0.49999999  0.00000000  1
  F  F16  1  0.49999999  0.00000000  0.50000000  1
  F  F17  1  0.49999999  0.00000000  0.00000000  1
