# generated using pymatgen
data_Sr2La(CuO2)3
_symmetry_space_group_name_H-M   'P 1'
_cell_length_a   3.85109901
_cell_length_b   3.85109901
_cell_length_c   12.11118031
_cell_angle_alpha   90.00000000
_cell_angle_beta   90.00000000
_cell_angle_gamma   90.00000000
_symmetry_Int_Tables_number   1
_chemical_formula_structural   Sr2La(CuO2)3
_chemical_formula_sum   'Sr2 La1 Cu3 O6'
_cell_volume   179.62047448
_cell_formula_units_Z   1
loop_
 _symmetry_equiv_pos_site_id
 _symmetry_equiv_pos_as_xyz
  1  'x, y, z'
loop_
 _atom_site_type_symbol
 _atom_site_label
 _atom_site_symmetry_multiplicity
 _atom_site_fract_x
 _atom_site_fract_y
 _atom_site_fract_z
 _atom_site_occupancy
  Sr  Sr0  1  0.50000000  0.50000000  0.19627200  1
  Sr  Sr1  1  0.50000000  0.50000000  0.80372798  1
  La  La2  1  0.50000000  0.50000000  0.49999999  1
  Cu  Cu3  1  0.00000000  0.00000000  0.00000000  1
  Cu  Cu4  1  0.00000000  0.00000000  0.36941199  1
  Cu  Cu5  1  0.00000000  0.00000000  0.63058798  1
  O  O6  1  0.50000000  0.00000000  0.61506198  1
  O  O7  1  0.00000000  0.50000000  0.61506198  1
  O  O8  1  0.50000000  0.00000000  0.38493799  1
  O  O9  1  0.00000000  0.50000000  0.38493799  1
  O  O10  1  0.00000000  0.00000000  0.14985300  1
  O  O11  1  0.00000000  0.00000000  0.85014698  1
