# generated using pymatgen
data_ZrMnV3CS5
_symmetry_space_group_name_H-M   'P 1'
_cell_length_a   3.33527589
_cell_length_b   3.33527541
_cell_length_c   18.33220673
_cell_angle_alpha   90.00000000
_cell_angle_beta   90.00000000
_cell_angle_gamma   120.00000763
_symmetry_Int_Tables_number   1
_chemical_formula_structural   ZrMnV3CS5
_chemical_formula_sum   'Zr1 Mn1 V3 C1 S5'
_cell_volume   176.60736461
_cell_formula_units_Z   1
loop_
 _symmetry_equiv_pos_site_id
 _symmetry_equiv_pos_as_xyz
  1  'x, y, z'
loop_
 _atom_site_type_symbol
 _atom_site_label
 _atom_site_symmetry_multiplicity
 _atom_site_fract_x
 _atom_site_fract_y
 _atom_site_fract_z
 _atom_site_occupancy
  Zr  Zr0  1  0.66666670  0.33333333  0.93879301  1
  V  V1  1  0.66666670  0.33333333  0.43558801  1
  V  V2  1  0.33333336  0.66666666  0.56370701  1
  V  V3  1  0.33333336  0.66666666  0.06509200  1
  Mn  Mn4  1  0.66666670  0.33333333  0.77328101  1
  C  C5  1  0.00000000  0.00000000  0.00022100  1
  S  S6  1  0.00000000  0.00000000  0.50037901  1
  S  S7  1  0.66666670  0.33333333  0.65411101  1
  S  S8  1  0.66666670  0.33333333  0.15279000  1
  S  S9  1  0.33333336  0.66666666  0.84309101  1
  S  S10  1  0.33333336  0.66666666  0.34694701  1
