# generated using pymatgen
data_Mg(MoO2)2
_symmetry_space_group_name_H-M   'P 1'
_cell_length_a   6.30661201
_cell_length_b   6.30661201
_cell_length_c   6.30661201
_cell_angle_alpha   60.00000000
_cell_angle_beta   60.00000000
_cell_angle_gamma   60.00000000
_symmetry_Int_Tables_number   1
_chemical_formula_structural   Mg(MoO2)2
_chemical_formula_sum   'Mg2 Mo4 O8'
_cell_volume   177.36721373
_cell_formula_units_Z   2
loop_
 _symmetry_equiv_pos_site_id
 _symmetry_equiv_pos_as_xyz
  1  'x, y, z'
loop_
 _atom_site_type_symbol
 _atom_site_label
 _atom_site_symmetry_multiplicity
 _atom_site_fract_x
 _atom_site_fract_y
 _atom_site_fract_z
 _atom_site_occupancy
  Mg  Mg0  1  0.00000000  0.00000000  0.00000000  1
  Mg  Mg1  1  0.74999998  0.74999998  0.74999998  1
  Mo  Mo2  1  0.87499998  0.37499999  0.37499999  1
  Mo  Mo3  1  0.37499999  0.37499999  0.87499998  1
  Mo  Mo4  1  0.37499999  0.37499999  0.37499999  1
  Mo  Mo5  1  0.37499999  0.87499998  0.37499999  1
  O  O6  1  0.60729998  0.60729898  0.17810200  1
  O  O7  1  0.60729998  0.60729898  0.60729898  1
  O  O8  1  0.60729998  0.17810200  0.60729898  1
  O  O9  1  0.57189698  0.14270100  0.14270100  1
  O  O10  1  0.14270000  0.57189798  0.14270100  1
  O  O11  1  0.14270000  0.14270100  0.14270100  1
  O  O12  1  0.17810300  0.60729898  0.60729898  1
  O  O13  1  0.14270000  0.14270100  0.57189798  1
