# generated using pymatgen
data_NaCa2EuO6
_symmetry_space_group_name_H-M   'P 1'
_cell_length_a   5.62062836
_cell_length_b   5.62062836
_cell_length_c   5.62062836
_cell_angle_alpha   60.80067825
_cell_angle_beta   60.80067825
_cell_angle_gamma   60.80067062
_symmetry_Int_Tables_number   1
_chemical_formula_structural   NaCa2EuO6
_chemical_formula_sum   'Na1 Ca2 Eu1 O6'
_cell_volume   127.82408325
_cell_formula_units_Z   1
loop_
 _symmetry_equiv_pos_site_id
 _symmetry_equiv_pos_as_xyz
  1  'x, y, z'
loop_
 _atom_site_type_symbol
 _atom_site_label
 _atom_site_symmetry_multiplicity
 _atom_site_fract_x
 _atom_site_fract_y
 _atom_site_fract_z
 _atom_site_occupancy
  Na  Na0  1  0.00000000  0.00000000  0.00000000  1
  Eu  Eu1  1  0.49999998  0.49999998  0.50000002  1
  Ca  Ca2  1  0.74999997  0.74999997  0.75000004  1
  Ca  Ca3  1  0.24999999  0.24999999  0.25000001  1
  O  O4  1  0.74999997  0.18061499  0.31938502  1
  O  O5  1  0.18061499  0.31938499  0.75000002  1
  O  O6  1  0.31938499  0.74999997  0.18061502  1
  O  O7  1  0.81938497  0.68061498  0.25000002  1
  O  O8  1  0.24999999  0.81938497  0.68061503  1
  O  O9  1  0.68061498  0.24999999  0.81938503  1
