# generated using pymatgen
data_CeMn3Si8
_symmetry_space_group_name_H-M   'P 1'
_cell_length_a   3.99471593
_cell_length_b   4.02515507
_cell_length_c   12.27028179
_cell_angle_alpha   90.00000000
_cell_angle_beta   99.36830139
_cell_angle_gamma   90.00000000
_symmetry_Int_Tables_number   1
_chemical_formula_structural   CeMn3Si8
_chemical_formula_sum   'Ce1 Mn3 Si8'
_cell_volume   194.66667860
_cell_formula_units_Z   1
loop_
 _symmetry_equiv_pos_site_id
 _symmetry_equiv_pos_as_xyz
  1  'x, y, z'
loop_
 _atom_site_type_symbol
 _atom_site_label
 _atom_site_symmetry_multiplicity
 _atom_site_fract_x
 _atom_site_fract_y
 _atom_site_fract_z
 _atom_site_occupancy
  Ce  Ce0  1  -0.00000000  0.49999999  -0.00000000  1
  Mn  Mn1  1  0.31515401  0.00000000  0.63030798  1
  Mn  Mn2  1  0.68484601  0.00000000  0.36969199  1
  Mn  Mn3  1  0.12772900  0.49999999  0.25545799  1
  Si  Si4  1  0.87227101  0.49999999  0.74454198  1
  Si  Si5  1  0.22183200  0.49999999  0.44366399  1
  Si  Si6  1  0.77816801  0.49999999  0.55633598  1
  Si  Si7  1  0.08656900  0.00000000  0.17313800  1
  Si  Si8  1  0.91343102  0.99999998  0.82686198  1
  Si  Si9  1  0.41399101  0.49999999  0.82798198  1
  Si  Si10  1  0.50000001  0.00000000  -0.00000000  1
  Si  Si11  1  0.58600901  0.49999999  0.17201799  1
