# generated using pymatgen
data_RbLaTl6
_symmetry_space_group_name_H-M   'P 1'
_cell_length_a   5.25629520
_cell_length_b   7.16711187
_cell_length_c   7.16711187
_cell_angle_alpha   120.00000000
_cell_angle_beta   90.00000000
_cell_angle_gamma   90.00000000
_symmetry_Int_Tables_number   1
_chemical_formula_structural   RbLaTl6
_chemical_formula_sum   'Rb1 La1 Tl6'
_cell_volume   233.82920166
_cell_formula_units_Z   1
loop_
 _symmetry_equiv_pos_site_id
 _symmetry_equiv_pos_as_xyz
  1  'x, y, z'
loop_
 _atom_site_type_symbol
 _atom_site_label
 _atom_site_symmetry_multiplicity
 _atom_site_fract_x
 _atom_site_fract_y
 _atom_site_fract_z
 _atom_site_occupancy
  La  La0  1  0.74999997  0.66666668  0.33333333  1
  Rb  Rb1  1  0.24999999  0.33333334  0.66666667  1
  Tl  Tl2  1  0.74999997  0.15509900  0.31019800  1
  Tl  Tl3  1  0.74999997  0.15509900  0.84490201  1
  Tl  Tl4  1  0.74999997  0.68980301  0.84490200  1
  Tl  Tl5  1  0.24999999  0.84490101  0.68980200  1
  Tl  Tl6  1  0.24999999  0.84490101  0.15509800  1
  Tl  Tl7  1  0.24999999  0.31019700  0.15509800  1
