# generated using pymatgen
data_Ho4CoNi(RuO6)2
_symmetry_space_group_name_H-M   'P 1'
_cell_length_a   5.27956295
_cell_length_b   5.71510601
_cell_length_c   7.64875317
_cell_angle_alpha   90.00000000
_cell_angle_beta   90.13530731
_cell_angle_gamma   90.00000000
_symmetry_Int_Tables_number   1
_chemical_formula_structural   Ho4CoNi(RuO6)2
_chemical_formula_sum   'Ho4 Co1 Ni1 Ru2 O12'
_cell_volume   230.78718932
_cell_formula_units_Z   1
loop_
 _symmetry_equiv_pos_site_id
 _symmetry_equiv_pos_as_xyz
  1  'x, y, z'
loop_
 _atom_site_type_symbol
 _atom_site_label
 _atom_site_symmetry_multiplicity
 _atom_site_fract_x
 _atom_site_fract_y
 _atom_site_fract_z
 _atom_site_occupancy
  Ho  Ho0  1  0.97427601  0.42373000  0.25286400  1
  Ho  Ho1  1  0.02572400  0.57627000  0.74713602  1
  Ho  Ho2  1  0.52572400  0.92373000  0.24713600  1
  Ho  Ho3  1  0.47427600  0.07627000  0.75286401  1
  Co  Co4  1  0.00000000  0.00000000  0.50000001  1
  Ni  Ni5  1  0.50000000  0.50000000  1.00000002  1
  Ru  Ru6  1  0.00000000  0.00000000  0.00000000  1
  Ru  Ru7  1  0.50000000  0.50000000  0.50000001  1
  O  O8  1  0.12606000  0.04818200  0.24647400  1
  O  O9  1  0.87394001  0.95181800  0.75352601  1
  O  O10  1  0.37394000  0.54818200  0.25352600  1
  O  O11  1  0.62606001  0.45181800  0.74647401  1
  O  O12  1  0.81657601  0.69838300  0.06703900  1
  O  O13  1  0.18342400  0.30161700  0.93296102  1
  O  O14  1  0.68342401  0.19838300  0.43296101  1
  O  O15  1  0.31657600  0.80161700  0.56703901  1
  O  O16  1  0.68868901  0.18881700  0.05721300  1
  O  O17  1  0.31131100  0.81118300  0.94278702  1
  O  O18  1  0.81131101  0.68881700  0.44278701  1
  O  O19  1  0.18868900  0.31118300  0.55721301  1
