# generated using pymatgen
data_TiO
_symmetry_space_group_name_H-M   'P 1'
_cell_length_a   3.10268831
_cell_length_b   3.10268831
_cell_length_c   5.14009953
_cell_angle_alpha   72.43353271
_cell_angle_beta   72.43353271
_cell_angle_gamma   59.99999237
_symmetry_Int_Tables_number   1
_chemical_formula_structural   TiO
_chemical_formula_sum   'Ti2 O2'
_cell_volume   40.16619487
_cell_formula_units_Z   2
loop_
 _symmetry_equiv_pos_site_id
 _symmetry_equiv_pos_as_xyz
  1  'x, y, z'
loop_
 _atom_site_type_symbol
 _atom_site_label
 _atom_site_symmetry_multiplicity
 _atom_site_fract_x
 _atom_site_fract_y
 _atom_site_fract_z
 _atom_site_occupancy
  Ti  Ti0  1  0.24366902  0.24366901  0.26899299  1
  Ti  Ti1  1  0.75633106  0.75633102  0.73100698  1
  O  O2  1  0.00000000  0.00000000  0.00000000  1
  O  O3  1  0.50000004  0.50000001  0.49999998  1
