# generated using pymatgen
data_Dy2InPd2
_symmetry_space_group_name_H-M   'P 1'
_cell_length_a   3.89633608
_cell_length_b   7.57723188
_cell_length_c   7.57723188
_cell_angle_alpha   90.00000000
_cell_angle_beta   90.00000000
_cell_angle_gamma   90.00000000
_symmetry_Int_Tables_number   1
_chemical_formula_structural   Dy2InPd2
_chemical_formula_sum   'Dy4 In2 Pd4'
_cell_volume   223.70596579
_cell_formula_units_Z   2
loop_
 _symmetry_equiv_pos_site_id
 _symmetry_equiv_pos_as_xyz
  1  'x, y, z'
loop_
 _atom_site_type_symbol
 _atom_site_label
 _atom_site_symmetry_multiplicity
 _atom_site_fract_x
 _atom_site_fract_y
 _atom_site_fract_z
 _atom_site_occupancy
  Dy  Dy0  1  0.49999999  0.16971300  0.66971301  1
  Dy  Dy1  1  0.49999999  0.83028701  0.33028701  1
  Dy  Dy2  1  0.49999999  0.33028701  0.16971300  1
  Dy  Dy3  1  0.49999999  0.66971301  0.83028701  1
  In  In4  1  0.00000000  0.00000000  0.00000000  1
  In  In5  1  0.00000000  0.50000001  0.50000001  1
  Pd  Pd6  1  0.00000000  0.63173501  0.13173500  1
  Pd  Pd7  1  0.00000000  0.36826501  0.86826501  1
  Pd  Pd8  1  0.00000000  0.86826501  0.63173501  1
  Pd  Pd9  1  0.00000000  0.13173500  0.36826501  1
