# generated using pymatgen
data_Li4MnCoO12
_symmetry_space_group_name_H-M   'P 1'
_cell_length_a   4.66361094
_cell_length_b   5.53686333
_cell_length_c   7.55285597
_cell_angle_alpha   84.76705933
_cell_angle_beta   88.37520599
_cell_angle_gamma   88.70867920
_symmetry_Int_Tables_number   1
_chemical_formula_structural   Li4MnCoO12
_chemical_formula_sum   'Li4 Mn1 Co1 O12'
_cell_volume   194.09822643
_cell_formula_units_Z   1
loop_
 _symmetry_equiv_pos_site_id
 _symmetry_equiv_pos_as_xyz
  1  'x, y, z'
loop_
 _atom_site_type_symbol
 _atom_site_label
 _atom_site_symmetry_multiplicity
 _atom_site_fract_x
 _atom_site_fract_y
 _atom_site_fract_z
 _atom_site_occupancy
  Li  Li0  1  0.51860398  0.83462697  0.66987401  1
  Li  Li1  1  0.49301399  0.50898198  0.99697400  1
  Li  Li2  1  0.52255100  0.17918599  0.34027799  1
  Li  Li3  1  0.99899501  0.32058599  0.67436199  1
  Mn  Mn4  1  0.97277799  0.65295098  0.31952600  1
  Co  Co5  1  0.99413701  0.00927300  0.98531098  1
  O  O6  1  0.80511800  0.37261299  0.43634199  1
  O  O7  1  0.80103699  0.70954598  0.09600800  1
  O  O8  1  0.79890601  0.01996100  0.77170599  1
  O  O9  1  0.68924200  0.20522499  0.10886299  1
  O  O10  1  0.69623099  0.51745998  0.77880100  1
  O  O11  1  0.71601198  0.86662197  0.42461501  1
  O  O12  1  0.30966400  0.13682400  0.55156700  1
  O  O13  1  0.29802999  0.47717899  0.23651101  1
  O  O14  1  0.29262398  0.79588198  0.90449701  1
  O  O15  1  0.19993499  0.29029999  0.91044600  1
  O  O16  1  0.19503197  0.96776397  0.22837502  1
  O  O17  1  0.19809098  0.63501898  0.56594401  1
