# generated using pymatgen
data_CeFeGe2Ru
_symmetry_space_group_name_H-M   'P 1'
_cell_length_a   4.10899401
_cell_length_b   4.10899401
_cell_length_c   5.81705618
_cell_angle_alpha   110.68225098
_cell_angle_beta   110.68225098
_cell_angle_gamma   90.00000000
_symmetry_Int_Tables_number   1
_chemical_formula_structural   CeFeGe2Ru
_chemical_formula_sum   'Ce1 Fe1 Ge2 Ru1'
_cell_volume   85.08550793
_cell_formula_units_Z   1
loop_
 _symmetry_equiv_pos_site_id
 _symmetry_equiv_pos_as_xyz
  1  'x, y, z'
loop_
 _atom_site_type_symbol
 _atom_site_label
 _atom_site_symmetry_multiplicity
 _atom_site_fract_x
 _atom_site_fract_y
 _atom_site_fract_z
 _atom_site_occupancy
  Ce  Ce0  1  0.00000000  0.00000000  0.00000000  1
  Fe  Fe1  1  0.25000004  0.75000002  0.50000006  1
  Ge  Ge2  1  0.61725904  0.61725902  0.23451806  1
  Ge  Ge3  1  0.38274102  0.38274101  0.76548205  1
  Ru  Ru4  1  0.75000003  0.25000001  0.50000005  1
