# generated using pymatgen
data_LiMgCd2
_symmetry_space_group_name_H-M   'P 1'
_cell_length_a   3.24931002
_cell_length_b   3.24930906
_cell_length_c   9.78384018
_cell_angle_alpha   90.00000000
_cell_angle_beta   90.00000000
_cell_angle_gamma   120.00000763
_symmetry_Int_Tables_number   1
_chemical_formula_structural   LiMgCd2
_chemical_formula_sum   'Li1 Mg1 Cd2'
_cell_volume   89.45860454
_cell_formula_units_Z   1
loop_
 _symmetry_equiv_pos_site_id
 _symmetry_equiv_pos_as_xyz
  1  'x, y, z'
loop_
 _atom_site_type_symbol
 _atom_site_label
 _atom_site_symmetry_multiplicity
 _atom_site_fract_x
 _atom_site_fract_y
 _atom_site_fract_z
 _atom_site_occupancy
  Li  Li0  1  0.66666666  0.33333334  0.37102599  1
  Mg  Mg1  1  0.33333332  0.66666667  0.62897399  1
  Cd  Cd2  1  0.33333332  0.66666667  0.12593500  1
  Cd  Cd3  1  0.66666666  0.33333334  0.87406498  1
