# generated using pymatgen
data_HoBRh4
_symmetry_space_group_name_H-M   'P 1'
_cell_length_a   3.02136898
_cell_length_b   5.03868198
_cell_length_c   5.03868246
_cell_angle_alpha   120.00000000
_cell_angle_beta   90.00000000
_cell_angle_gamma   90.00000000
_symmetry_Int_Tables_number   1
_chemical_formula_structural   HoBRh4
_chemical_formula_sum   'Ho1 B1 Rh4'
_cell_volume   66.43062469
_cell_formula_units_Z   1
loop_
 _symmetry_equiv_pos_site_id
 _symmetry_equiv_pos_as_xyz
  1  'x, y, z'
loop_
 _atom_site_type_symbol
 _atom_site_label
 _atom_site_symmetry_multiplicity
 _atom_site_fract_x
 _atom_site_fract_y
 _atom_site_fract_z
 _atom_site_occupancy
  Ho  Ho0  1  0.00000000  0.00000000  0.00000000  1
  B  B1  1  0.50000000  0.50000001  0.50000001  1
  Rh  Rh2  1  0.50000000  0.50000001  0.00000002  1
  Rh  Rh3  1  0.50000000  0.00000000  0.49999999  1
  Rh  Rh4  1  -0.00000000  0.66666668  0.33333335  1
  Rh  Rh5  1  -0.00000000  0.33333334  0.66666666  1
