# generated using pymatgen
data_Zr2Al3Cu
_symmetry_space_group_name_H-M   'P 1'
_cell_length_a   5.26630545
_cell_length_b   5.26674366
_cell_length_c   8.60749531
_cell_angle_alpha   90.00000000
_cell_angle_beta   90.00000000
_cell_angle_gamma   119.01751709
_symmetry_Int_Tables_number   1
_chemical_formula_structural   Zr2Al3Cu
_chemical_formula_sum   'Zr4 Al6 Cu2'
_cell_volume   208.77123148
_cell_formula_units_Z   2
loop_
 _symmetry_equiv_pos_site_id
 _symmetry_equiv_pos_as_xyz
  1  'x, y, z'
loop_
 _atom_site_type_symbol
 _atom_site_label
 _atom_site_symmetry_multiplicity
 _atom_site_fract_x
 _atom_site_fract_y
 _atom_site_fract_z
 _atom_site_occupancy
  Zr  Zr0  1  0.33339703  0.66661304  0.55361098  1
  Zr  Zr1  1  0.66887002  0.33112902  0.42605298  1
  Zr  Zr2  1  0.66887002  0.33112902  0.07394700  1
  Zr  Zr3  1  0.33339703  0.66661304  0.94638897  1
  Al  Al4  1  0.99461301  0.00542200  0.48471698  1
  Al  Al5  1  0.99461301  0.00542200  0.01528300  1
  Al  Al6  1  0.34027401  0.16514401  0.74999997  1
  Al  Al7  1  0.83484903  0.65976604  0.74999997  1
  Cu  Cu8  1  0.83339401  0.16672734  0.74999997  1
  Al  Al9  1  0.64451504  0.82006005  0.24999999  1
  Cu  Cu10  1  0.17986502  0.35542002  0.24999999  1
  Al  Al11  1  0.17334303  0.82661805  0.24999999  1
