# generated using pymatgen
data_K
_symmetry_space_group_name_H-M   'P 1'
_cell_length_a   8.11232185
_cell_length_b   8.33113861
_cell_length_c   12.01814365
_cell_angle_alpha   108.37213135
_cell_angle_beta   107.90949249
_cell_angle_gamma   94.36125946
_symmetry_Int_Tables_number   1
_chemical_formula_structural   K
_chemical_formula_sum   K8
_cell_volume   719.91090756
_cell_formula_units_Z   8
loop_
 _symmetry_equiv_pos_site_id
 _symmetry_equiv_pos_as_xyz
  1  'x, y, z'
loop_
 _atom_site_type_symbol
 _atom_site_label
 _atom_site_symmetry_multiplicity
 _atom_site_fract_x
 _atom_site_fract_y
 _atom_site_fract_z
 _atom_site_occupancy
  K  K0  1  0.42854904  0.71240000  0.87037300  1
  K  K1  1  0.06055203  0.83296499  0.13131298  1
  K  K2  1  0.31025202  0.10584500  0.62178001  1
  K  K3  1  0.56066603  0.29952400  0.12574702  1
  K  K4  1  0.68786206  0.89359599  0.38290300  1
  K  K5  1  0.17947602  0.47227000  0.36947300  1
  K  K6  1  0.93451604  0.15994900  0.87011904  1
  K  K7  1  0.80799605  0.51521600  0.62664602  1
