# generated using pymatgen
data_Li6Mn3Sb8
_symmetry_space_group_name_H-M   'P 1'
_cell_length_a   7.22789288
_cell_length_b   8.85203362
_cell_length_c   8.97701263
_cell_angle_alpha   110.00492096
_cell_angle_beta   107.50080109
_cell_angle_gamma   96.53522491
_symmetry_Int_Tables_number   1
_chemical_formula_structural   Li6Mn3Sb8
_chemical_formula_sum   'Li6 Mn3 Sb8'
_cell_volume   499.45291724
_cell_formula_units_Z   1
loop_
 _symmetry_equiv_pos_site_id
 _symmetry_equiv_pos_as_xyz
  1  'x, y, z'
loop_
 _atom_site_type_symbol
 _atom_site_label
 _atom_site_symmetry_multiplicity
 _atom_site_fract_x
 _atom_site_fract_y
 _atom_site_fract_z
 _atom_site_occupancy
  Li  Li0  1  0.86893802  0.23945301  0.94994602  1
  Li  Li1  1  0.13106198  0.76054702  0.05005399  1
  Li  Li2  1  0.01969097  0.89173502  0.68692797  1
  Li  Li3  1  0.98030903  0.10826500  0.31307204  1
  Li  Li4  1  0.37506901  0.19877000  0.15076801  1
  Li  Li5  1  0.62493099  0.80123002  0.84923200  1
  Sb  Sb6  1  0.00000000  0.00000000  0.00000000  1
  Sb  Sb7  1  0.90729602  0.16177300  0.62932503  1
  Mn  Mn8  1  0.09270398  0.83822702  0.37067498  1
  Sb  Sb9  1  0.45076401  0.07514800  0.82927901  1
  Mn  Mn10  1  0.54923599  0.92485202  0.17072100  1
  Mn  Mn11  1  0.20001699  0.64503401  0.74062298  1
  Sb  Sb12  1  0.79998301  0.35496601  0.25937702  1
  Sb  Sb13  1  0.24543399  0.45650601  0.08088100  1
  Sb  Sb14  1  0.75456601  0.54349401  0.91911901  1
  Sb  Sb15  1  0.63380900  0.71614902  0.53289100  1
  Sb  Sb16  1  0.36619100  0.28385101  0.46710900  1
