# generated using pymatgen
data_Ti5Ga4Ge
_symmetry_space_group_name_H-M   'P 1'
_cell_length_a   3.22084308
_cell_length_b   3.22084308
_cell_length_c   16.06086540
_cell_angle_alpha   90.00000000
_cell_angle_beta   90.00000000
_cell_angle_gamma   90.00000000
_symmetry_Int_Tables_number   1
_chemical_formula_structural   Ti5Ga4Ge
_chemical_formula_sum   'Ti5 Ga4 Ge1'
_cell_volume   166.61268934
_cell_formula_units_Z   1
loop_
 _symmetry_equiv_pos_site_id
 _symmetry_equiv_pos_as_xyz
  1  'x, y, z'
loop_
 _atom_site_type_symbol
 _atom_site_label
 _atom_site_symmetry_multiplicity
 _atom_site_fract_x
 _atom_site_fract_y
 _atom_site_fract_z
 _atom_site_occupancy
  Ti  Ti0  1  0.49999999  0.49999999  0.10073700  1
  Ti  Ti1  1  0.49999999  0.49999999  0.29989201  1
  Ti  Ti2  1  0.49999999  0.49999999  0.50000002  1
  Ti  Ti3  1  0.49999999  0.49999999  0.70010803  1
  Ti  Ti4  1  0.49999999  0.49999999  0.89926303  1
  Ga  Ga5  1  0.00000000  0.00000000  0.20099301  1
  Ga  Ga6  1  0.00000000  0.00000000  0.40036401  1
  Ga  Ga7  1  0.00000000  0.00000000  0.59963602  1
  Ga  Ga8  1  0.00000000  0.00000000  0.79900703  1
  Ge  Ge9  1  0.00000000  0.00000000  0.00000000  1
