# generated using pymatgen
data_Sr2Nb3Bi2IO12
_symmetry_space_group_name_H-M   'P 1'
_cell_length_a   3.75405192
_cell_length_b   3.75405192
_cell_length_c   22.52899170
_cell_angle_alpha   90.00000000
_cell_angle_beta   90.00000000
_cell_angle_gamma   90.00000000
_symmetry_Int_Tables_number   1
_chemical_formula_structural   Sr2Nb3Bi2IO12
_chemical_formula_sum   'Sr2 Nb3 Bi2 I1 O12'
_cell_volume   317.49895883
_cell_formula_units_Z   1
loop_
 _symmetry_equiv_pos_site_id
 _symmetry_equiv_pos_as_xyz
  1  'x, y, z'
loop_
 _atom_site_type_symbol
 _atom_site_label
 _atom_site_symmetry_multiplicity
 _atom_site_fract_x
 _atom_site_fract_y
 _atom_site_fract_z
 _atom_site_occupancy
  Sr  Sr0  1  0.00000000  0.00000000  0.24978000  1
  Sr  Sr1  1  0.50000001  0.50000001  0.50000001  1
  I  I2  1  0.00000000  0.00000000  0.75022001  1
  Nb  Nb3  1  0.50000001  0.50000001  0.00000000  1
  Nb  Nb4  1  -0.00000000  0.50000001  0.12355500  1
  Nb  Nb5  1  0.50000001  0.00000000  0.37502901  1
  Bi  Bi6  1  -0.00000000  0.50000001  0.62497101  1
  Bi  Bi7  1  0.50000001  0.00000000  0.87644501  1
  O  O8  1  0.50000001  0.00000000  0.12355500  1
  O  O9  1  -0.00000000  0.50000001  0.37502901  1
  O  O10  1  0.50000001  0.00000000  0.62497101  1
  O  O11  1  -0.00000000  0.50000001  0.87644501  1
  O  O12  1  0.50000001  0.50000001  0.17532600  1
  O  O13  1  0.00000000  0.00000000  0.42683201  1
  O  O14  1  0.50000001  0.50000001  0.67703501  1
  O  O15  1  0.00000000  0.00000000  0.92879701  1
  O  O16  1  0.00000000  0.00000000  0.07120300  1
  O  O17  1  0.50000001  0.50000001  0.32296500  1
  O  O18  1  0.00000000  0.00000000  0.57316801  1
  O  O19  1  0.50000001  0.50000001  0.82467401  1
