# generated using pymatgen
data_CoCu5S8
_symmetry_space_group_name_H-M   'P 1'
_cell_length_a   7.08157110
_cell_length_b   7.08157110
_cell_length_c   7.08157110
_cell_angle_alpha   60.00000000
_cell_angle_beta   60.00000000
_cell_angle_gamma   60.00000000
_symmetry_Int_Tables_number   1
_chemical_formula_structural   CoCu5S8
_chemical_formula_sum   'Co1 Cu5 S8'
_cell_volume   251.11569777
_cell_formula_units_Z   1
loop_
 _symmetry_equiv_pos_site_id
 _symmetry_equiv_pos_as_xyz
  1  'x, y, z'
loop_
 _atom_site_type_symbol
 _atom_site_label
 _atom_site_symmetry_multiplicity
 _atom_site_fract_x
 _atom_site_fract_y
 _atom_site_fract_z
 _atom_site_occupancy
  Cu  Cu0  1  0.87500001  0.37500000  0.87500001  1
  Co  Co1  1  0.87500001  0.87500001  0.87500001  1
  Cu  Cu2  1  0.87500001  0.87500001  0.37500000  1
  Cu  Cu3  1  0.37500000  0.87500001  0.87500001  1
  Cu  Cu4  1  0.50000001  0.50000001  0.50000001  1
  Cu  Cu5  1  0.25000000  0.25000000  0.25000000  1
  S  S6  1  0.11040200  0.62986601  0.62986601  1
  S  S7  1  0.12013500  0.12013400  0.63959701  1
  S  S8  1  0.12013500  0.63959701  0.12013400  1
  S  S9  1  0.12013500  0.12013400  0.12013400  1
  S  S10  1  0.62986501  0.11040300  0.62986601  1
  S  S11  1  0.62986501  0.62986601  0.62986601  1
  S  S12  1  0.63959801  0.12013400  0.12013400  1
  S  S13  1  0.62986501  0.62986601  0.11040300  1
