# generated using pymatgen
data_Y5Ge3
_symmetry_space_group_name_H-M   'P 1'
_cell_length_a   5.58344698
_cell_length_b   8.41891575
_cell_length_c   8.41891479
_cell_angle_alpha   83.68701935
_cell_angle_beta   70.63400269
_cell_angle_gamma   70.63399506
_symmetry_Int_Tables_number   1
_chemical_formula_structural   Y5Ge3
_chemical_formula_sum   'Y10 Ge6'
_cell_volume   352.22847104
_cell_formula_units_Z   2
loop_
 _symmetry_equiv_pos_site_id
 _symmetry_equiv_pos_as_xyz
  1  'x, y, z'
loop_
 _atom_site_type_symbol
 _atom_site_label
 _atom_site_symmetry_multiplicity
 _atom_site_fract_x
 _atom_site_fract_y
 _atom_site_fract_z
 _atom_site_occupancy
  Y  Y0  1  0.70149195  0.86354800  0.70981598  1
  Y  Y1  1  0.27485599  0.13645200  0.29018400  1
  Y  Y2  1  0.79850799  0.29018400  0.13645197  1
  Y  Y3  1  0.22514395  0.70981600  0.86354801  1
  Y  Y4  1  0.56503996  0.70981600  0.13645196  1
  Y  Y5  1  0.41130799  0.29018400  0.86354802  1
  Y  Y6  1  0.08869199  0.13645200  0.70981603  1
  Y  Y7  1  0.93495995  0.86354800  0.29018395  1
  Y  Y8  1  0.74999998  0.50000000  0.49999998  1
  Y  Y9  1  0.24999997  0.50000000  0.50000000  1
  Ge  Ge10  1  0.25000000  0.00000000  -0.00000001  1
  Ge  Ge11  1  0.16320597  0.50000000  0.17358798  1
  Ge  Ge12  1  0.83679398  0.50000000  0.82641200  1
  Ge  Ge13  1  0.33679394  0.82641200  0.49999998  1
  Ge  Ge14  1  0.66320600  0.17358800  0.50000000  1
  Ge  Ge15  1  0.75000001  0.00000000  -0.00000002  1
