# generated using pymatgen
data_V2O5F
_symmetry_space_group_name_H-M   'P 1'
_cell_length_a   4.85701990
_cell_length_b   4.87780714
_cell_length_c   8.79718494
_cell_angle_alpha   90.00000000
_cell_angle_beta   89.53959656
_cell_angle_gamma   90.00000000
_symmetry_Int_Tables_number   1
_chemical_formula_structural   V2O5F
_chemical_formula_sum   'V4 O10 F2'
_cell_volume   208.41271393
_cell_formula_units_Z   2
loop_
 _symmetry_equiv_pos_site_id
 _symmetry_equiv_pos_as_xyz
  1  'x, y, z'
loop_
 _atom_site_type_symbol
 _atom_site_label
 _atom_site_symmetry_multiplicity
 _atom_site_fract_x
 _atom_site_fract_y
 _atom_site_fract_z
 _atom_site_occupancy
  V  V0  1  0.50918801  0.76354398  0.82681002  1
  V  V1  1  0.98956402  0.23953499  0.68698704  1
  V  V2  1  0.00918800  0.23645599  0.32681000  1
  V  V3  1  0.48956401  0.76046498  0.18698702  1
  O  O4  1  0.79205802  0.04450100  0.80748203  1
  O  O5  1  0.29205801  0.95549897  0.30748201  1
  O  O6  1  0.21930400  0.46874599  0.81700501  1
  O  O7  1  0.71518101  0.53906398  0.67645903  1
  O  O8  1  0.28516901  0.96850797  0.67330001  1
  O  O9  1  0.17452500  0.41912399  0.50945801  1
  O  O10  1  0.81769902  0.06822900  0.50055203  1
  O  O11  1  0.71930401  0.53125398  0.31700502  1
  O  O12  1  0.78516902  0.03149200  0.17330003  1
  O  O13  1  0.21518100  0.46093599  0.17645901  1
  F  F14  1  0.67452501  0.58087598  0.00945802  1
  F  F15  1  0.31769901  0.93177097  0.00055201  1
