# generated using pymatgen
data_Li4Ca3S7
_symmetry_space_group_name_H-M   'P 1'
_cell_length_a   7.39262438
_cell_length_b   7.40097427
_cell_length_c   7.40111971
_cell_angle_alpha   119.91058350
_cell_angle_beta   119.95787811
_cell_angle_gamma   60.04365921
_symmetry_Int_Tables_number   1
_chemical_formula_structural   Li4Ca3S7
_chemical_formula_sum   'Li4 Ca3 S7'
_cell_volume   286.71090579
_cell_formula_units_Z   1
loop_
 _symmetry_equiv_pos_site_id
 _symmetry_equiv_pos_as_xyz
  1  'x, y, z'
loop_
 _atom_site_type_symbol
 _atom_site_label
 _atom_site_symmetry_multiplicity
 _atom_site_fract_x
 _atom_site_fract_y
 _atom_site_fract_z
 _atom_site_occupancy
  Li  Li0  1  0.12419401  0.62579201  0.87420301  1
  Li  Li1  1  0.87582303  0.37419601  0.12581404  1
  Ca  Ca2  1  0.50002302  0.49998201  0.50000302  1
  Li  Li3  1  0.49998603  0.99997902  0.00000001  1
  Ca  Ca4  1  0.99992404  0.99998802  0.49992304  1
  Ca  Ca5  1  0.50000802  0.00009900  0.50006403  1
  S  S6  1  0.25312201  0.21623200  0.72253101  1
  Li  Li7  1  0.27797901  0.23322200  0.26678501  1
  S  S8  1  0.75560703  0.23318900  0.26678703  1
  S  S9  1  0.74690603  0.22251900  0.71624004  1
  S  S10  1  0.24439501  0.76676401  0.73317301  1
  S  S11  1  0.25314601  0.77746301  0.28376301  1
  S  S12  1  0.74684903  0.78378401  0.27748403  1
  S  S13  1  0.72203903  0.76679001  0.73323503  1
