# generated using pymatgen
data_GdFeC2
_symmetry_space_group_name_H-M   'P 1'
_cell_length_a   3.60492611
_cell_length_b   3.72583032
_cell_length_c   3.72583032
_cell_angle_alpha   104.96105957
_cell_angle_beta   90.00000000
_cell_angle_gamma   90.00000000
_symmetry_Int_Tables_number   1
_chemical_formula_structural   GdFeC2
_chemical_formula_sum   'Gd1 Fe1 C2'
_cell_volume   48.34652581
_cell_formula_units_Z   1
loop_
 _symmetry_equiv_pos_site_id
 _symmetry_equiv_pos_as_xyz
  1  'x, y, z'
loop_
 _atom_site_type_symbol
 _atom_site_label
 _atom_site_symmetry_multiplicity
 _atom_site_fract_x
 _atom_site_fract_y
 _atom_site_fract_z
 _atom_site_occupancy
  Gd  Gd0  1  -0.00000000  0.99503496  0.00496494  1
  Fe  Fe1  1  0.49999998  0.38668699  0.61331297  1
  C  C2  1  0.49999998  0.85646997  0.45319194  1
  C  C3  1  0.49999998  0.54680798  0.14352997  1
