# generated using pymatgen
data_KBiPd2
_symmetry_space_group_name_H-M   'P 1'
_cell_length_a   4.50953579
_cell_length_b   6.29454422
_cell_length_c   8.17366314
_cell_angle_alpha   90.00000000
_cell_angle_beta   90.00000000
_cell_angle_gamma   110.99030304
_symmetry_Int_Tables_number   1
_chemical_formula_structural   KBiPd2
_chemical_formula_sum   'K2 Bi2 Pd4'
_cell_volume   216.61713488
_cell_formula_units_Z   2
loop_
 _symmetry_equiv_pos_site_id
 _symmetry_equiv_pos_as_xyz
  1  'x, y, z'
loop_
 _atom_site_type_symbol
 _atom_site_label
 _atom_site_symmetry_multiplicity
 _atom_site_fract_x
 _atom_site_fract_y
 _atom_site_fract_z
 _atom_site_occupancy
  K  K0  1  0.94829911  0.89659801  0.74999999  1
  K  K1  1  0.05170101  0.10340200  0.25000000  1
  Bi  Bi2  1  0.33378706  0.66757400  0.44432699  1
  Bi  Bi3  1  0.66621306  0.33242600  0.55567299  1
  Pd  Pd4  1  0.33378706  0.66757400  0.05567300  1
  Pd  Pd5  1  0.66621306  0.33242600  0.94432698  1
  Pd  Pd6  1  0.78181908  0.56363800  0.25000000  1
  Pd  Pd7  1  0.21818104  0.43636200  0.74999999  1
