# generated using pymatgen
data_Nb3P4
_symmetry_space_group_name_H-M   'P 1'
_cell_length_a   5.05561447
_cell_length_b   6.69043446
_cell_length_c   6.69043446
_cell_angle_alpha   113.88064575
_cell_angle_beta   104.58894348
_cell_angle_gamma   104.58894348
_symmetry_Int_Tables_number   1
_chemical_formula_structural   Nb3P4
_chemical_formula_sum   'Nb6 P8'
_cell_volume   183.54669735
_cell_formula_units_Z   2
loop_
 _symmetry_equiv_pos_site_id
 _symmetry_equiv_pos_as_xyz
  1  'x, y, z'
loop_
 _atom_site_type_symbol
 _atom_site_label
 _atom_site_symmetry_multiplicity
 _atom_site_fract_x
 _atom_site_fract_y
 _atom_site_fract_z
 _atom_site_occupancy
  Nb  Nb0  1  0.75737893  0.86601697  0.26292497  1
  Nb  Nb1  1  0.10863796  0.60309198  0.86601697  1
  Nb  Nb2  1  0.24262099  0.13398300  0.73707498  1
  Nb  Nb3  1  0.50554597  0.26292499  0.39690798  1
  Nb  Nb4  1  0.49445395  0.73707497  0.60309197  1
  Nb  Nb5  1  0.89136196  0.39690799  0.13398297  1
  P  P6  1  0.06026998  0.31659699  0.47574598  1
  P  P7  1  0.93972994  0.68340297  0.52425396  1
  P  P8  1  0.58452396  0.52425398  0.84085096  1
  P  P9  1  0.74367297  0.15914899  0.68340297  1
  P  P10  1  0.41547596  0.47574598  0.15914898  1
  P  P11  1  0.00000000  0.00000000  0.00000000  1
  P  P12  1  0.25632695  0.84085097  0.31659697  1
  P  P13  1  0.49999993  0.99999996  0.99999995  1
