# generated using pymatgen
data_CePd5
_symmetry_space_group_name_H-M   'P 1'
_cell_length_a   5.48873949
_cell_length_b   5.48873949
_cell_length_c   5.48873949
_cell_angle_alpha   60.00000000
_cell_angle_beta   60.00000000
_cell_angle_gamma   60.00000000
_symmetry_Int_Tables_number   1
_chemical_formula_structural   CePd5
_chemical_formula_sum   'Ce1 Pd5'
_cell_volume   116.92378289
_cell_formula_units_Z   1
loop_
 _symmetry_equiv_pos_site_id
 _symmetry_equiv_pos_as_xyz
  1  'x, y, z'
loop_
 _atom_site_type_symbol
 _atom_site_label
 _atom_site_symmetry_multiplicity
 _atom_site_fract_x
 _atom_site_fract_y
 _atom_site_fract_z
 _atom_site_occupancy
  Ce  Ce0  1  0.75000002  0.75000002  0.75000002  1
  Pd  Pd1  1  0.00000000  0.00000000  0.00000000  1
  Pd  Pd2  1  0.37500001  0.37500001  0.37500001  1
  Pd  Pd3  1  0.37500001  0.87500002  0.37500001  1
  Pd  Pd4  1  0.37500001  0.37500001  0.87500002  1
  Pd  Pd5  1  0.87500002  0.37500001  0.37500001  1
