# generated using pymatgen
data_NaAg3
_symmetry_space_group_name_H-M   'P 1'
_cell_length_a   5.11589909
_cell_length_b   5.20109797
_cell_length_c   6.37635422
_cell_angle_alpha   90.00000000
_cell_angle_beta   90.00000000
_cell_angle_gamma   90.00000000
_symmetry_Int_Tables_number   1
_chemical_formula_structural   NaAg3
_chemical_formula_sum   'Na2 Ag6'
_cell_volume   169.66389700
_cell_formula_units_Z   2
loop_
 _symmetry_equiv_pos_site_id
 _symmetry_equiv_pos_as_xyz
  1  'x, y, z'
loop_
 _atom_site_type_symbol
 _atom_site_label
 _atom_site_symmetry_multiplicity
 _atom_site_fract_x
 _atom_site_fract_y
 _atom_site_fract_z
 _atom_site_occupancy
  Na  Na0  1  0.49999999  0.65711100  0.49999998  1
  Na  Na1  1  0.00000000  0.34288900  -0.00000000  1
  Ag  Ag2  1  0.00000000  0.83858101  0.25963599  1
  Ag  Ag3  1  0.49999999  0.16141900  0.24036399  1
  Ag  Ag4  1  0.00000000  0.83858101  0.74036397  1
  Ag  Ag5  1  0.49999999  0.16141900  0.75963597  1
  Ag  Ag6  1  0.00000000  0.32735000  0.49999998  1
  Ag  Ag7  1  0.49999999  0.67265000  0.00000000  1
