# generated using pymatgen
data_Ag5Se3S2
_symmetry_space_group_name_H-M   'P 1'
_cell_length_a   4.18391180
_cell_length_b   4.18391180
_cell_length_c   15.13147545
_cell_angle_alpha   97.94670868
_cell_angle_beta   97.94670868
_cell_angle_gamma   90.00000000
_symmetry_Int_Tables_number   1
_chemical_formula_structural   Ag5Se3S2
_chemical_formula_sum   'Ag5 Se3 S2'
_cell_volume   259.76615097
_cell_formula_units_Z   1
loop_
 _symmetry_equiv_pos_site_id
 _symmetry_equiv_pos_as_xyz
  1  'x, y, z'
loop_
 _atom_site_type_symbol
 _atom_site_label
 _atom_site_symmetry_multiplicity
 _atom_site_fract_x
 _atom_site_fract_y
 _atom_site_fract_z
 _atom_site_occupancy
  Ag  Ag0  1  0.50000003  0.50000003  0.99999999  1
  Ag  Ag1  1  0.90354705  0.90354705  0.80709400  1
  Ag  Ag2  1  0.30053102  0.30053102  0.60106199  1
  Ag  Ag3  1  0.69946904  0.69946904  0.39893800  1
  Ag  Ag4  1  0.09645301  0.09645301  0.19290600  1
  Se  Se5  1  0.25000002  0.75000004  0.50000000  1
  Se  Se6  1  0.64815903  0.14815901  0.29631800  1
  Se  Se7  1  0.04280301  0.54280303  0.08560600  1
  S  S8  1  0.45719703  0.95719705  0.91439399  1
  S  S9  1  0.85184105  0.35184102  0.70368199  1
