# generated using pymatgen
data_Sm2MgNi2
_symmetry_space_group_name_H-M   'P 1'
_cell_length_a   3.86876988
_cell_length_b   7.50670910
_cell_length_c   7.50670910
_cell_angle_alpha   90.00000000
_cell_angle_beta   90.00000000
_cell_angle_gamma   90.00000000
_symmetry_Int_Tables_number   1
_chemical_formula_structural   Sm2MgNi2
_chemical_formula_sum   'Sm4 Mg2 Ni4'
_cell_volume   218.00781951
_cell_formula_units_Z   2
loop_
 _symmetry_equiv_pos_site_id
 _symmetry_equiv_pos_as_xyz
  1  'x, y, z'
loop_
 _atom_site_type_symbol
 _atom_site_label
 _atom_site_symmetry_multiplicity
 _atom_site_fract_x
 _atom_site_fract_y
 _atom_site_fract_z
 _atom_site_occupancy
  Sm  Sm0  1  0.50000001  0.32560300  0.82560299  1
  Sm  Sm1  1  0.50000001  0.82560299  0.67439699  1
  Sm  Sm2  1  0.50000001  0.17439700  0.32560300  1
  Sm  Sm3  1  0.50000001  0.67439699  0.17439700  1
  Mg  Mg4  1  -0.00000000  0.49999999  0.49999999  1
  Mg  Mg5  1  0.00000000  0.00000000  0.00000000  1
  Ni  Ni6  1  0.00000000  0.11927200  0.61927199  1
  Ni  Ni7  1  0.00000000  0.61927199  0.88072799  1
  Ni  Ni8  1  -0.00000000  0.88072799  0.38072799  1
  Ni  Ni9  1  0.00000000  0.38072799  0.11927200  1
