# generated using pymatgen
data_NbSb2Br11
_symmetry_space_group_name_H-M   'P 1'
_cell_length_a   7.12141371
_cell_length_b   7.12141371
_cell_length_c   7.25083494
_cell_angle_alpha   109.04953003
_cell_angle_beta   111.12638092
_cell_angle_gamma   107.50003052
_symmetry_Int_Tables_number   1
_chemical_formula_structural   NbSb2Br11
_chemical_formula_sum   'Nb1 Sb2 Br11'
_cell_volume   285.40405137
_cell_formula_units_Z   1
loop_
 _symmetry_equiv_pos_site_id
 _symmetry_equiv_pos_as_xyz
  1  'x, y, z'
loop_
 _atom_site_type_symbol
 _atom_site_label
 _atom_site_symmetry_multiplicity
 _atom_site_fract_x
 _atom_site_fract_y
 _atom_site_fract_z
 _atom_site_occupancy
  Nb  Nb0  1  0.74847199  0.00721000  0.75568197  1
  Sb  Sb1  1  0.25089992  0.50117996  0.75207994  1
  Sb  Sb2  1  0.74909992  0.49881996  0.24791990  1
  Br  Br3  1  0.25152784  0.99278993  0.24431787  1
  Br  Br4  1  -0.00000008  0.49999996  -0.00000006  1
  Br  Br5  1  0.75172488  0.75172494  -0.00000014  1
  Br  Br6  1  0.24827496  0.24827498  0.99999998  1
  Br  Br7  1  0.50000000  0.00000000  1.00000000  1
  Br  Br8  1  0.00292088  0.75617694  0.75909693  1
  Br  Br9  1  0.99707995  0.24382298  0.24090291  1
  Br  Br10  1  0.69684992  0.45476997  0.69316092  1
  Br  Br11  1  0.23839084  0.99631093  0.69316088  1
  Br  Br12  1  0.30314991  0.54522996  0.30683892  1
  Br  Br13  1  0.76160899  0.00368900  0.30683896  1
