# generated using pymatgen
data_BiBr5
_symmetry_space_group_name_H-M   'P 1'
_cell_length_a   7.89027977
_cell_length_b   9.73304462
_cell_length_c   9.77796268
_cell_angle_alpha   107.54797363
_cell_angle_beta   96.54710388
_cell_angle_gamma   104.65224457
_symmetry_Int_Tables_number   1
_chemical_formula_structural   BiBr5
_chemical_formula_sum   'Bi3 Br15'
_cell_volume   677.78702982
_cell_formula_units_Z   3
loop_
 _symmetry_equiv_pos_site_id
 _symmetry_equiv_pos_as_xyz
  1  'x, y, z'
loop_
 _atom_site_type_symbol
 _atom_site_label
 _atom_site_symmetry_multiplicity
 _atom_site_fract_x
 _atom_site_fract_y
 _atom_site_fract_z
 _atom_site_occupancy
  Bi  Bi0  1  0.10826200  0.04014300  0.77834303  1
  Bi  Bi1  1  0.38179500  0.13336499  0.17973899  1
  Br  Br2  1  0.89173793  0.95985693  0.22165694  1
  Bi  Bi3  1  0.03298493  0.73729795  0.92457202  1
  Br  Br4  1  0.96701500  0.26270198  0.07542795  1
  Br  Br5  1  0.61820494  0.86663494  0.82026098  1
  Br  Br6  1  0.91080093  0.96908293  0.95817397  1
  Br  Br7  1  0.08919900  0.03091700  0.04182600  1
  Br  Br8  1  0.18902294  0.72741895  0.63566600  1
  Br  Br9  1  0.08935697  0.37489097  0.81803302  1
  Br  Br10  1  0.45455494  0.80628694  0.09435896  1
  Br  Br11  1  0.25781800  0.08613899  0.46504401  1
  Br  Br12  1  0.54544499  0.19371299  0.90564101  1
  Br  Br13  1  0.81097699  0.27258098  0.36433397  1
  Br  Br14  1  0.34990797  0.45864497  0.27425598  1
  Br  Br15  1  0.91064296  0.62510896  0.18196695  1
  Br  Br16  1  0.65009197  0.54135496  0.72574399  1
  Br  Br17  1  0.74218193  0.91386094  0.53495596  1
