# generated using pymatgen
data_Sr3(CuP2)2
_symmetry_space_group_name_H-M   'P 1'
_cell_length_a   6.89241695
_cell_length_b   8.65155602
_cell_length_c   8.65155602
_cell_angle_alpha   75.82225037
_cell_angle_beta   89.71302032
_cell_angle_gamma   89.71302032
_symmetry_Int_Tables_number   1
_chemical_formula_structural   Sr3(CuP2)2
_chemical_formula_sum   'Sr6 Cu4 P8'
_cell_volume   500.16950708
_cell_formula_units_Z   2
loop_
 _symmetry_equiv_pos_site_id
 _symmetry_equiv_pos_as_xyz
  1  'x, y, z'
loop_
 _atom_site_type_symbol
 _atom_site_label
 _atom_site_symmetry_multiplicity
 _atom_site_fract_x
 _atom_site_fract_y
 _atom_site_fract_z
 _atom_site_occupancy
  Sr  Sr0  1  0.03524197  0.99597896  0.25071303  1
  Sr  Sr1  1  0.46475797  0.74928697  0.00402102  1
  Sr  Sr2  1  0.96475799  0.00402100  0.74928695  1
  Sr  Sr3  1  0.53524199  0.25071299  0.99597897  1
  Sr  Sr4  1  0.74999997  0.59983798  0.40016199  1
  Sr  Sr5  1  0.24999998  0.40016198  0.59983799  1
  Cu  Cu6  1  0.58265099  0.17519499  0.41723098  1
  Cu  Cu7  1  0.91734897  0.58276898  0.82480497  1
  Cu  Cu8  1  0.41734897  0.82480497  0.58276900  1
  Cu  Cu9  1  0.08265099  0.41723098  0.17519501  1
  P  P10  1  0.52356996  0.94120396  0.29072301  1
  P  P11  1  0.97642997  0.70927697  0.05879600  1
  P  P12  1  0.47642999  0.05879600  0.70927697  1
  P  P13  1  0.02356999  0.29072299  0.94120398  1
  P  P14  1  0.92869198  0.25844399  0.42913897  1
  P  P15  1  0.57130798  0.57086098  0.74155598  1
  P  P16  1  0.07130797  0.74155597  0.57086101  1
  P  P17  1  0.42869198  0.42913898  0.25844400  1
