# generated using pymatgen
data_Ho3Mg
_symmetry_space_group_name_H-M   'P 1'
_cell_length_a   5.50615311
_cell_length_b   7.04876995
_cell_length_c   7.04876995
_cell_angle_alpha   60.00000000
_cell_angle_beta   90.00000000
_cell_angle_gamma   90.00000000
_symmetry_Int_Tables_number   1
_chemical_formula_structural   Ho3Mg
_chemical_formula_sum   'Ho6 Mg2'
_cell_volume   236.92210837
_cell_formula_units_Z   2
loop_
 _symmetry_equiv_pos_site_id
 _symmetry_equiv_pos_as_xyz
  1  'x, y, z'
loop_
 _atom_site_type_symbol
 _atom_site_label
 _atom_site_symmetry_multiplicity
 _atom_site_fract_x
 _atom_site_fract_y
 _atom_site_fract_z
 _atom_site_occupancy
  Ho  Ho0  1  0.25000000  0.33333334  0.33333334  1
  Ho  Ho1  1  0.74999999  0.66666667  0.66666667  1
  Ho  Ho2  1  0.74999999  0.66706401  0.16646800  1
  Ho  Ho3  1  0.74999999  0.16646800  0.16646800  1
  Ho  Ho4  1  0.74999999  0.16646800  0.66706401  1
  Ho  Ho5  1  0.25000000  0.33293600  0.83353201  1
  Mg  Mg6  1  0.25000000  0.83353201  0.83353201  1
  Mg  Mg7  1  0.25000000  0.83353201  0.33293600  1
