# generated using pymatgen
data_LaCo5
_symmetry_space_group_name_H-M   'P 1'
_cell_length_a   5.54131365
_cell_length_b   5.54131365
_cell_length_c   11.73218155
_cell_angle_alpha   76.34006500
_cell_angle_beta   76.34006500
_cell_angle_gamma   60.00000381
_symmetry_Int_Tables_number   1
_chemical_formula_structural   LaCo5
_chemical_formula_sum   'La3 Co15'
_cell_volume   300.16195886
_cell_formula_units_Z   3
loop_
 _symmetry_equiv_pos_site_id
 _symmetry_equiv_pos_as_xyz
  1  'x, y, z'
loop_
 _atom_site_type_symbol
 _atom_site_label
 _atom_site_symmetry_multiplicity
 _atom_site_fract_x
 _atom_site_fract_y
 _atom_site_fract_z
 _atom_site_occupancy
  La  La0  1  0.94881098  0.94881100  0.15356698  1
  La  La1  1  0.85108998  0.85109000  0.44672999  1
  La  La2  1  0.14891000  0.14891000  0.55327000  1
  Co  Co3  1  0.05118900  0.05118900  0.84643301  1
  Co  Co4  1  0.27835699  0.27835700  0.16492900  1
  Co  Co5  1  0.49999999  0.50000000  0.50000000  1
  Co  Co6  1  0.38821299  0.38821300  0.83536100  1
  Co  Co7  1  0.72164299  0.72164300  0.83507099  1
  Co  Co8  1  0.61178699  0.61178700  0.16463899  1
  Co  Co9  1  0.60831699  0.60831700  0.67497699  1
  Co  Co10  1  0.39168298  0.89161100  0.32502299  1
  Co  Co11  1  -0.00000001  0.50000000  -0.00000000  1
  Co  Co12  1  0.89161099  0.39168300  0.32502299  1
  Co  Co13  1  0.49999999  0.50000000  -0.00000001  1
  Co  Co14  1  0.60831700  0.10838900  0.67497700  1
  Co  Co15  1  0.50000000  0.00000000  -0.00000000  1
  Co  Co16  1  0.39168299  0.39168300  0.32502300  1
  Co  Co17  1  0.10838899  0.60831700  0.67497700  1
