# generated using pymatgen
data_Li2FeNi3O8
_symmetry_space_group_name_H-M   'P 1'
_cell_length_a   5.58469057
_cell_length_b   5.69223261
_cell_length_c   5.86265659
_cell_angle_alpha   118.84542847
_cell_angle_beta   90.98716736
_cell_angle_gamma   118.39500427
_symmetry_Int_Tables_number   1
_chemical_formula_structural   Li2FeNi3O8
_chemical_formula_sum   'Li2 Fe1 Ni3 O8'
_cell_volume   136.04965423
_cell_formula_units_Z   1
loop_
 _symmetry_equiv_pos_site_id
 _symmetry_equiv_pos_as_xyz
  1  'x, y, z'
loop_
 _atom_site_type_symbol
 _atom_site_label
 _atom_site_symmetry_multiplicity
 _atom_site_fract_x
 _atom_site_fract_y
 _atom_site_fract_z
 _atom_site_occupancy
  Li  Li0  1  0.00000001  0.50000003  0.50000002  1
  Li  Li1  1  0.00000000  0.00000000  0.49999999  1
  Fe  Fe2  1  0.50000001  0.00000000  -0.00000000  1
  Ni  Ni3  1  0.50000002  0.50000003  0.00000003  1
  Ni  Ni4  1  0.00000001  0.50000003  0.00000003  1
  Ni  Ni5  1  0.00000000  0.00000000  0.00000000  1
  O  O6  1  0.77825902  0.54673003  0.79951602  1
  O  O7  1  0.77826401  0.04673300  0.79951799  1
  O  O8  1  0.22174101  0.45327103  0.20048402  1
  O  O9  1  0.22173602  0.95326705  0.20048205  1
  O  O10  1  0.24433402  0.99880906  0.78590405  1
  O  O11  1  0.24433001  0.49881203  0.78589702  1
  O  O12  1  0.75566601  0.00119100  0.21409599  1
  O  O13  1  0.75567102  0.50118803  0.21410303  1
