# generated using pymatgen
data_Nb2Tl3TeSe6IO3
_symmetry_space_group_name_H-M   'P 1'
_cell_length_a   6.30633593
_cell_length_b   7.48112917
_cell_length_c   8.02431679
_cell_angle_alpha   90.00000000
_cell_angle_beta   90.00000000
_cell_angle_gamma   90.00000000
_symmetry_Int_Tables_number   1
_chemical_formula_structural   Nb2Tl3TeSe6IO3
_chemical_formula_sum   'Nb2 Tl3 Te1 Se6 I1 O3'
_cell_volume   378.57533909
_cell_formula_units_Z   1
loop_
 _symmetry_equiv_pos_site_id
 _symmetry_equiv_pos_as_xyz
  1  'x, y, z'
loop_
 _atom_site_type_symbol
 _atom_site_label
 _atom_site_symmetry_multiplicity
 _atom_site_fract_x
 _atom_site_fract_y
 _atom_site_fract_z
 _atom_site_occupancy
  Nb  Nb0  1  0.50000001  0.00000000  0.79376902  1
  Tl  Tl1  1  0.00000000  0.00000000  0.70623102  1
  Tl  Tl2  1  0.00000000  0.00000000  0.29376901  1
  Tl  Tl3  1  0.50000001  0.00000000  0.20623101  1
  Te  Te4  1  0.85586601  0.88256998  0.00000000  1
  Nb  Nb5  1  0.64413401  0.88256998  0.50000001  1
  Se  Se6  1  0.14413400  0.11743000  0.00000000  1
  O  O7  1  0.35586600  0.11743000  0.50000001  1
  O  O8  1  0.74893801  0.21865900  0.00000000  1
  Se  Se9  1  0.75106201  0.21865900  0.50000001  1
  Se  Se10  1  0.75000001  0.68690098  0.75000002  1
  Se  Se11  1  0.75000001  0.68690098  0.25000001  1
  O  O12  1  0.25106200  0.78134098  0.00000000  1
  Se  Se13  1  0.24893800  0.78134098  0.50000001  1
  Se  Se14  1  0.25000000  0.31309899  0.75000002  1
  I  I15  1  0.25000000  0.31309899  0.25000001  1
