# generated using pymatgen
data_TiSiOs
_symmetry_space_group_name_H-M   'P 1'
_cell_length_a   3.66878796
_cell_length_b   6.69566584
_cell_length_c   6.69566631
_cell_angle_alpha   120.00000000
_cell_angle_beta   90.00000000
_cell_angle_gamma   90.00000000
_symmetry_Int_Tables_number   1
_chemical_formula_structural   TiSiOs
_chemical_formula_sum   'Ti3 Si3 Os3'
_cell_volume   142.44290308
_cell_formula_units_Z   3
loop_
 _symmetry_equiv_pos_site_id
 _symmetry_equiv_pos_as_xyz
  1  'x, y, z'
loop_
 _atom_site_type_symbol
 _atom_site_label
 _atom_site_symmetry_multiplicity
 _atom_site_fract_x
 _atom_site_fract_y
 _atom_site_fract_z
 _atom_site_occupancy
  Ti  Ti0  1  1.00000001  0.39660301  0.99999998  1
  Ti  Ti1  1  -0.00000000  0.60339702  0.60339699  1
  Ti  Ti2  1  0.00000000  0.00000000  0.39660299  1
  Si  Si3  1  0.50000001  0.33333334  0.66666665  1
  Si  Si4  1  0.50000001  0.66666669  0.33333333  1
  Si  Si5  1  0.00000000  0.00000000  0.00000000  1
  Os  Os6  1  0.50000001  0.73287202  0.00000001  1
  Os  Os7  1  0.50000001  0.26712801  0.26712800  1
  Os  Os8  1  0.50000001  0.00000000  0.73287198  1
