# generated using pymatgen
data_BaSr(CuSe2)2
_symmetry_space_group_name_H-M   'P 1'
_cell_length_a   4.16606617
_cell_length_b   7.40558147
_cell_length_c   14.50608158
_cell_angle_alpha   90.00000000
_cell_angle_beta   90.00000000
_cell_angle_gamma   106.33654022
_symmetry_Int_Tables_number   1
_chemical_formula_structural   BaSr(CuSe2)2
_chemical_formula_sum   'Ba2 Sr2 Cu4 Se8'
_cell_volume   429.47461197
_cell_formula_units_Z   2
loop_
 _symmetry_equiv_pos_site_id
 _symmetry_equiv_pos_as_xyz
  1  'x, y, z'
loop_
 _atom_site_type_symbol
 _atom_site_label
 _atom_site_symmetry_multiplicity
 _atom_site_fract_x
 _atom_site_fract_y
 _atom_site_fract_z
 _atom_site_occupancy
  Ba  Ba0  1  0.88863291  0.77726597  0.75000002  1
  Ba  Ba1  1  0.11136698  0.22273399  0.25000001  1
  Sr  Sr2  1  0.63458296  0.26916599  0.93558903  1
  Sr  Sr3  1  0.63458296  0.26916599  0.56441102  1
  Cu  Cu4  1  0.36541694  0.73083397  0.43558901  1
  Cu  Cu5  1  0.36541694  0.73083397  0.06441100  1
  Cu  Cu6  1  0.16004297  0.32008599  0.75000002  1
  Cu  Cu7  1  0.83995692  0.67991397  0.25000001  1
  Se  Se8  1  0.00000000  0.00000000  0.00000000  1
  Se  Se9  1  0.26554395  0.53108798  0.88675703  1
  Se  Se10  1  0.56466697  0.12933399  0.75000002  1
  Se  Se11  1  0.26554395  0.53108798  0.61324302  1
  Se  Se12  1  0.00000000  0.00000000  0.50000001  1
  Se  Se13  1  0.73445594  0.46891198  0.38675701  1
  Se  Se14  1  0.43533292  0.87066596  0.25000001  1
  Se  Se15  1  0.73445594  0.46891198  0.11324300  1
