# generated using pymatgen
data_SrZnB4(AsRh)2
_symmetry_space_group_name_H-M   'P 1'
_cell_length_a   5.45839024
_cell_length_b   5.46403599
_cell_length_c   6.81582451
_cell_angle_alpha   90.00000000
_cell_angle_beta   113.60446167
_cell_angle_gamma   90.00000000
_symmetry_Int_Tables_number   1
_chemical_formula_structural   SrZnB4(AsRh)2
_chemical_formula_sum   'Sr1 Zn1 B4 As2 Rh2'
_cell_volume   186.27268421
_cell_formula_units_Z   1
loop_
 _symmetry_equiv_pos_site_id
 _symmetry_equiv_pos_as_xyz
  1  'x, y, z'
loop_
 _atom_site_type_symbol
 _atom_site_label
 _atom_site_symmetry_multiplicity
 _atom_site_fract_x
 _atom_site_fract_y
 _atom_site_fract_z
 _atom_site_occupancy
  Sr  Sr0  1  0.49716598  0.50000000  0.99433199  1
  Zn  Zn1  1  0.99761896  0.00000000  0.99523800  1
  B  B2  1  0.50475698  0.24623200  0.50252700  1
  B  B3  1  0.99776996  0.75376800  0.50252700  1
  B  B4  1  0.99776996  0.24623200  0.50252700  1
  B  B5  1  0.50475698  0.75376800  0.50252700  1
  As  As6  1  0.15129399  0.50000000  0.30258800  1
  As  As7  1  0.66273698  0.00000000  0.32547400  1
  Rh  Rh8  1  0.33649099  1.00000000  0.67298200  1
  Rh  Rh9  1  0.83553997  0.50000000  0.67108000  1
