# generated using pymatgen
data_Sc2Al3Fe
_symmetry_space_group_name_H-M   'P 1'
_cell_length_a   5.22921801
_cell_length_b   5.22942924
_cell_length_c   8.23239994
_cell_angle_alpha   90.00000000
_cell_angle_beta   90.00000000
_cell_angle_gamma   119.99864960
_symmetry_Int_Tables_number   1
_chemical_formula_structural   Sc2Al3Fe
_chemical_formula_sum   'Sc4 Al6 Fe2'
_cell_volume   194.96382707
_cell_formula_units_Z   2
loop_
 _symmetry_equiv_pos_site_id
 _symmetry_equiv_pos_as_xyz
  1  'x, y, z'
loop_
 _atom_site_type_symbol
 _atom_site_label
 _atom_site_symmetry_multiplicity
 _atom_site_fract_x
 _atom_site_fract_y
 _atom_site_fract_z
 _atom_site_occupancy
  Sc  Sc0  1  0.33333330  0.66666664  0.43930900  1
  Sc  Sc1  1  0.66666665  0.33333332  0.56069100  1
  Sc  Sc2  1  0.66666665  0.33333332  0.93930901  1
  Sc  Sc3  1  0.33333330  0.66666664  0.06069100  1
  Al  Al4  1  0.83414199  0.16580699  0.25000000  1
  Al  Al5  1  0.83415597  0.66831297  0.25000000  1
  Al  Al6  1  0.33166399  0.16580699  0.25000000  1
  Al  Al7  1  0.16585796  0.83419296  0.75000001  1
  Al  Al8  1  0.16584398  0.33168699  0.75000001  1
  Fe  Fe9  1  0.66833596  0.83419296  0.75000001  1
  Fe  Fe10  1  0.00000000  0.00000000  0.50000000  1
  Al  Al11  1  0.00000000  0.00000000  0.00000000  1
