# generated using pymatgen
data_VH2O
_symmetry_space_group_name_H-M   'P 1'
_cell_length_a   3.94592977
_cell_length_b   5.62217236
_cell_length_c   5.62217236
_cell_angle_alpha   82.15373230
_cell_angle_beta   70.62326050
_cell_angle_gamma   70.62326050
_symmetry_Int_Tables_number   1
_chemical_formula_structural   VH2O
_chemical_formula_sum   'V2 H4 O2'
_cell_volume   110.94774087
_cell_formula_units_Z   2
loop_
 _symmetry_equiv_pos_site_id
 _symmetry_equiv_pos_as_xyz
  1  'x, y, z'
loop_
 _atom_site_type_symbol
 _atom_site_label
 _atom_site_symmetry_multiplicity
 _atom_site_fract_x
 _atom_site_fract_y
 _atom_site_fract_z
 _atom_site_occupancy
  V  V0  1  0.17659005  0.50709998  0.00690998  1
  V  V1  1  0.17658999  0.00691000  0.50709999  1
  H  H2  1  0.76092009  0.97818995  0.97818995  1
  H  H3  1  0.21005000  0.03363000  0.03363001  1
  H  H4  1  0.03848011  0.89149496  0.89149492  1
  H  H5  1  0.72855003  0.43890998  0.61415999  1
  O  O6  1  0.32378000  0.12023999  0.12024000  1
  O  O7  1  0.72855005  0.61415997  0.43890999  1
