# generated using pymatgen
data_Ti5Ge4
_symmetry_space_group_name_H-M   'P 1'
_cell_length_a   5.50063181
_cell_length_b   8.18869781
_cell_length_c   8.18869877
_cell_angle_alpha   120.00000000
_cell_angle_beta   90.00000000
_cell_angle_gamma   90.00000000
_symmetry_Int_Tables_number   1
_chemical_formula_structural   Ti5Ge4
_chemical_formula_sum   'Ti10 Ge8'
_cell_volume   319.42797461
_cell_formula_units_Z   2
loop_
 _symmetry_equiv_pos_site_id
 _symmetry_equiv_pos_as_xyz
  1  'x, y, z'
loop_
 _atom_site_type_symbol
 _atom_site_label
 _atom_site_symmetry_multiplicity
 _atom_site_fract_x
 _atom_site_fract_y
 _atom_site_fract_z
 _atom_site_occupancy
  Ti  Ti0  1  0.50000002  0.33333335  0.66666665  1
  Ti  Ti1  1  0.50000002  0.66666669  0.33333334  1
  Ti  Ti2  1  1.00000003  0.66666669  0.33333334  1
  Ti  Ti3  1  1.00000003  0.33333335  0.66666665  1
  Ti  Ti4  1  0.75000003  0.26903601  0.99999997  1
  Ti  Ti5  1  0.75000003  0.73096403  0.73096400  1
  Ti  Ti6  1  0.75000003  0.00000000  0.26903599  1
  Ti  Ti7  1  0.25000001  0.73096403  0.99999999  1
  Ti  Ti8  1  0.25000001  0.26903601  0.26903600  1
  Ti  Ti9  1  0.25000001  0.00000000  0.73096397  1
  Ge  Ge10  1  0.00000000  0.00000000  0.00000000  1
  Ge  Ge11  1  0.50000002  0.00000000  -0.00000000  1
  Ge  Ge12  1  0.75000003  0.61711302  0.99999998  1
  Ge  Ge13  1  0.75000003  0.38288702  0.38288700  1
  Ge  Ge14  1  0.75000003  0.00000000  0.61711298  1
  Ge  Ge15  1  0.25000001  0.38288702  0.99999997  1
  Ge  Ge16  1  0.25000001  0.61711302  0.61711300  1
  Ge  Ge17  1  0.25000001  0.00000000  0.38288698  1
