# generated using pymatgen
data_Sr2LaTi3O7
_symmetry_space_group_name_H-M   'P 1'
_cell_length_a   3.90179110
_cell_length_b   3.92760491
_cell_length_c   11.98501587
_cell_angle_alpha   90.00000000
_cell_angle_beta   90.00000000
_cell_angle_gamma   90.00000000
_symmetry_Int_Tables_number   1
_chemical_formula_structural   Sr2LaTi3O7
_chemical_formula_sum   'Sr2 La1 Ti3 O7'
_cell_volume   183.66669934
_cell_formula_units_Z   1
loop_
 _symmetry_equiv_pos_site_id
 _symmetry_equiv_pos_as_xyz
  1  'x, y, z'
loop_
 _atom_site_type_symbol
 _atom_site_label
 _atom_site_symmetry_multiplicity
 _atom_site_fract_x
 _atom_site_fract_y
 _atom_site_fract_z
 _atom_site_occupancy
  Sr  Sr0  1  0.49999999  0.50000001  0.18524200  1
  Sr  Sr1  1  0.49999999  0.50000001  0.81475801  1
  La  La2  1  0.49999999  0.50000001  0.50000001  1
  Ti  Ti3  1  0.00000000  0.00000000  0.00000000  1
  Ti  Ti4  1  0.00000000  0.00000000  0.35767300  1
  Ti  Ti5  1  0.00000000  0.00000000  0.64232701  1
  O  O6  1  0.49999999  0.00000000  0.37175800  1
  O  O7  1  0.49999999  0.00000000  0.62824201  1
  O  O8  1  0.00000000  0.00000000  0.15019300  1
  O  O9  1  0.00000000  0.00000000  0.84980701  1
  O  O10  1  -0.00000000  0.50000001  0.37205500  1
  O  O11  1  -0.00000000  0.50000001  0.62794501  1
  O  O12  1  -0.00000000  0.50000001  -0.00000000  1
