# generated using pymatgen
data_Ba4Zr3CuS12
_symmetry_space_group_name_H-M   'P 1'
_cell_length_a   3.90359497
_cell_length_b   8.92401791
_cell_length_c   14.61294556
_cell_angle_alpha   90.00000000
_cell_angle_beta   90.00000000
_cell_angle_gamma   90.00000000
_symmetry_Int_Tables_number   1
_chemical_formula_structural   Ba4Zr3CuS12
_chemical_formula_sum   'Ba4 Zr3 Cu1 S12'
_cell_volume   509.05293888
_cell_formula_units_Z   1
loop_
 _symmetry_equiv_pos_site_id
 _symmetry_equiv_pos_as_xyz
  1  'x, y, z'
loop_
 _atom_site_type_symbol
 _atom_site_label
 _atom_site_symmetry_multiplicity
 _atom_site_fract_x
 _atom_site_fract_y
 _atom_site_fract_z
 _atom_site_occupancy
  Ba  Ba0  1  0.75000001  0.56346101  0.82441403  1
  Ba  Ba1  1  0.25000000  0.93653901  0.32441401  1
  Ba  Ba2  1  0.25000000  0.43653900  0.17558601  1
  Ba  Ba3  1  0.75000001  0.06346100  0.67558602  1
  Zr  Zr4  1  0.25000000  0.16524200  0.94390103  1
  Zr  Zr5  1  0.25000000  0.66524201  0.55609902  1
  Zr  Zr6  1  0.75000001  0.33475800  0.44390101  1
  Cu  Cu7  1  0.75000001  0.83475801  0.05609900  1
  S  S8  1  0.25000000  0.52043301  0.40243501  1
  S  S9  1  0.25000000  0.67444201  0.99612403  1
  S  S10  1  0.75000001  0.47956701  0.59756502  1
  S  S11  1  0.75000001  0.72284701  0.20692201  1
  S  S12  1  0.25000000  0.27715300  0.79307802  1
  S  S13  1  0.75000001  0.97956701  0.90243503  1
  S  S14  1  0.25000000  0.02043300  0.09756500  1
  S  S15  1  0.75000001  0.22284700  0.29307801  1
  S  S16  1  0.75000001  0.32555800  0.00387600  1
  S  S17  1  0.25000000  0.77715301  0.70692202  1
  S  S18  1  0.75000001  0.82555801  0.49612402  1
  S  S19  1  0.25000000  0.17444200  0.50387602  1
