# generated using pymatgen
data_Ba2TiWO6
_symmetry_space_group_name_H-M   'P 1'
_cell_length_a   5.81590223
_cell_length_b   5.81786346
_cell_length_c   10.08848476
_cell_angle_alpha   73.39857483
_cell_angle_beta   73.37131500
_cell_angle_gamma   60.07995224
_symmetry_Int_Tables_number   1
_chemical_formula_structural   Ba2TiWO6
_chemical_formula_sum   'Ba4 Ti2 W2 O12'
_cell_volume   279.25442660
_cell_formula_units_Z   2
loop_
 _symmetry_equiv_pos_site_id
 _symmetry_equiv_pos_as_xyz
  1  'x, y, z'
loop_
 _atom_site_type_symbol
 _atom_site_label
 _atom_site_symmetry_multiplicity
 _atom_site_fract_x
 _atom_site_fract_y
 _atom_site_fract_z
 _atom_site_occupancy
  Ba  Ba0  1  0.62526098  0.62509103  0.12432599  1
  Ba  Ba1  1  0.12514300  0.12516001  0.62433400  1
  Ba  Ba2  1  0.87485598  0.87484204  0.37566699  1
  Ba  Ba3  1  0.37473999  0.37490902  0.87567400  1
  Ti  Ti4  1  0.00000197  0.99999805  0.00000097  1
  Ti  Ti5  1  0.50000099  0.50000002  0.49999900  1
  W  W6  1  0.25019499  0.24984701  0.24999700  1
  W  W7  1  0.74979998  0.75015404  0.75000200  1
  O  O8  1  0.86946298  0.86931704  0.86946500  1
  O  O9  1  0.36944799  0.36937002  0.36949300  1
  O  O10  1  0.63096700  0.10699401  0.63092001  1
  O  O11  1  0.13096598  0.60685403  0.13102098  1
  O  O12  1  0.39278897  0.86906904  0.86918999  1
  O  O13  1  0.89296799  0.36904102  0.36906001  1
  O  O14  1  0.10703398  0.63095703  0.63093899  1
  O  O15  1  0.60721200  0.13093501  0.13080901  1
  O  O16  1  0.86903399  0.39314402  0.86898201  1
  O  O17  1  0.36903497  0.89300704  0.36908298  1
  O  O18  1  0.63054998  0.63062603  0.63050500  1
  O  O19  1  0.13053600  0.13068401  0.13053300  1
