# generated using pymatgen
data_Na2Zn4O3
_symmetry_space_group_name_H-M   'P 1'
_cell_length_a   5.00464010
_cell_length_b   5.35042381
_cell_length_c   5.35042477
_cell_angle_alpha   60.00000381
_cell_angle_beta   90.00000000
_cell_angle_gamma   90.00000000
_symmetry_Int_Tables_number   1
_chemical_formula_structural   Na2Zn4O3
_chemical_formula_sum   'Na2 Zn4 O3'
_cell_volume   124.07376072
_cell_formula_units_Z   1
loop_
 _symmetry_equiv_pos_site_id
 _symmetry_equiv_pos_as_xyz
  1  'x, y, z'
loop_
 _atom_site_type_symbol
 _atom_site_label
 _atom_site_symmetry_multiplicity
 _atom_site_fract_x
 _atom_site_fract_y
 _atom_site_fract_z
 _atom_site_occupancy
  Na  Na0  1  0.24864799  0.33299102  -0.00000001  1
  Na  Na1  1  0.24864799  0.66700903  0.33299099  1
  Zn  Zn2  1  0.24864799  0.00000000  0.66700900  1
  Zn  Zn3  1  0.75135198  0.66700903  -0.00000001  1
  Zn  Zn4  1  0.75135198  0.33299102  0.66700900  1
  Zn  Zn5  1  0.75135198  0.00000000  0.33299100  1
  O  O6  1  0.49999999  0.66666670  0.66666666  1
  O  O7  1  0.49999999  0.33333335  0.33333333  1
  O  O8  1  0.00000000  0.00000000  0.00000000  1
