# generated using pymatgen
data_NaCoTc3
_symmetry_space_group_name_H-M   'P 1'
_cell_length_a   4.36848116
_cell_length_b   4.36848116
_cell_length_c   5.25951529
_cell_angle_alpha   65.46223450
_cell_angle_beta   65.46223450
_cell_angle_gamma   60.00001526
_symmetry_Int_Tables_number   1
_chemical_formula_structural   NaCoTc3
_chemical_formula_sum   'Na1 Co1 Tc3'
_cell_volume   76.27718456
_cell_formula_units_Z   1
loop_
 _symmetry_equiv_pos_site_id
 _symmetry_equiv_pos_as_xyz
  1  'x, y, z'
loop_
 _atom_site_type_symbol
 _atom_site_label
 _atom_site_symmetry_multiplicity
 _atom_site_fract_x
 _atom_site_fract_y
 _atom_site_fract_z
 _atom_site_occupancy
  Na  Na0  1  0.00000000  0.00000000  0.00000000  1
  Tc  Tc1  1  0.59595903  0.59595899  0.21212294  1
  Co  Co2  1  0.40404102  0.40404099  0.78787696  1
  Tc  Tc3  1  0.20060001  0.20060000  0.39819998  1
  Tc  Tc4  1  0.79940004  0.79939998  0.60179992  1
