# generated using pymatgen
data_BaSi2
_symmetry_space_group_name_H-M   'P 1'
_cell_length_a   4.62545586
_cell_length_b   4.62545633
_cell_length_c   9.21843910
_cell_angle_alpha   90.00000000
_cell_angle_beta   90.00000000
_cell_angle_gamma   120.00000000
_symmetry_Int_Tables_number   1
_chemical_formula_structural   BaSi2
_chemical_formula_sum   'Ba2 Si4'
_cell_volume   170.80365059
_cell_formula_units_Z   2
loop_
 _symmetry_equiv_pos_site_id
 _symmetry_equiv_pos_as_xyz
  1  'x, y, z'
loop_
 _atom_site_type_symbol
 _atom_site_label
 _atom_site_symmetry_multiplicity
 _atom_site_fract_x
 _atom_site_fract_y
 _atom_site_fract_z
 _atom_site_occupancy
  Ba  Ba0  1  0.00000000  0.00000000  0.49999999  1
  Ba  Ba1  1  0.00000000  0.00000000  0.00000000  1
  Si  Si2  1  0.66666671  0.33333336  0.74999999  1
  Si  Si3  1  0.33333339  0.66666672  0.25000000  1
  Si  Si4  1  0.66666671  0.33333336  0.25000000  1
  Si  Si5  1  0.33333339  0.66666672  0.74999999  1
