# generated using pymatgen
data_NaCrO3
_symmetry_space_group_name_H-M   'P 1'
_cell_length_a   5.82081795
_cell_length_b   6.08640099
_cell_length_c   7.72052288
_cell_angle_alpha   90.00000000
_cell_angle_beta   90.00000000
_cell_angle_gamma   101.81520844
_symmetry_Int_Tables_number   1
_chemical_formula_structural   NaCrO3
_chemical_formula_sum   'Na4 Cr4 O12'
_cell_volume   267.72631070
_cell_formula_units_Z   4
loop_
 _symmetry_equiv_pos_site_id
 _symmetry_equiv_pos_as_xyz
  1  'x, y, z'
loop_
 _atom_site_type_symbol
 _atom_site_label
 _atom_site_symmetry_multiplicity
 _atom_site_fract_x
 _atom_site_fract_y
 _atom_site_fract_z
 _atom_site_occupancy
  Na  Na0  1  0.52565604  0.57400201  0.25000000  1
  Na  Na1  1  0.47434403  0.42599801  0.75000001  1
  Na  Na2  1  0.03844300  0.04138200  0.25000000  1
  Na  Na3  1  0.96155707  0.95861802  0.75000001  1
  Cr  Cr4  1  0.50000000  0.00000000  0.50000001  1
  Cr  Cr5  1  0.50000000  0.00000000  0.00000000  1
  Cr  Cr6  1  0.00000003  0.50000001  0.50000001  1
  Cr  Cr7  1  0.00000003  0.50000001  -0.00000000  1
  O  O8  1  0.33697305  0.66850802  0.54304801  1
  O  O9  1  0.12895502  0.23164301  0.94592301  1
  O  O10  1  0.66302703  0.33149201  0.04304800  1
  O  O11  1  0.87104506  0.76835702  0.44592301  1
  O  O12  1  0.12895502  0.23164301  0.55407701  1
  O  O13  1  0.87104506  0.76835702  0.05407700  1
  O  O14  1  0.90323004  0.55791201  0.75000001  1
  O  O15  1  0.33697305  0.66850802  0.95695201  1
  O  O16  1  0.39740206  0.92880702  0.25000000  1
  O  O17  1  0.66302703  0.33149201  0.45695201  1
  O  O18  1  0.09677003  0.44208801  0.25000000  1
  O  O19  1  0.60259801  0.07119300  0.75000001  1
