# generated using pymatgen
data_Ba8Sb4N2O
_symmetry_space_group_name_H-M   'P 1'
_cell_length_a   5.31239986
_cell_length_b   5.31239986
_cell_length_c   19.71341515
_cell_angle_alpha   97.74362946
_cell_angle_beta   97.74362946
_cell_angle_gamma   90.00000000
_symmetry_Int_Tables_number   1
_chemical_formula_structural   Ba8Sb4N2O
_chemical_formula_sum   'Ba8 Sb4 N2 O1'
_cell_volume   546.15011006
_cell_formula_units_Z   1
loop_
 _symmetry_equiv_pos_site_id
 _symmetry_equiv_pos_as_xyz
  1  'x, y, z'
loop_
 _atom_site_type_symbol
 _atom_site_label
 _atom_site_symmetry_multiplicity
 _atom_site_fract_x
 _atom_site_fract_y
 _atom_site_fract_z
 _atom_site_occupancy
  Ba  Ba0  1  0.00000000  0.50000001  0.00000000  1
  Ba  Ba1  1  0.50000001  0.00000000  0.00000000  1
  Ba  Ba2  1  0.08424700  0.08424700  0.16849400  1
  Ba  Ba3  1  0.66009502  0.66009502  0.32019002  1
  Ba  Ba4  1  0.25000001  0.75000002  0.50000002  1
  Ba  Ba5  1  0.75000002  0.25000001  0.50000002  1
  Ba  Ba6  1  0.33990501  0.33990501  0.67981002  1
  Ba  Ba7  1  0.91575303  0.91575303  0.83150603  1
  Sb  Sb8  1  0.56749302  0.56749302  0.13498601  1
  Sb  Sb9  1  0.17961601  0.17961601  0.35923201  1
  Sb  Sb10  1  0.82038403  0.82038402  0.64076802  1
  Sb  Sb11  1  0.43250702  0.43250701  0.86501402  1
  N  N12  1  0.72911903  0.72911902  0.45823802  1
  N  N13  1  0.27088101  0.27088101  0.54176201  1
  O  O14  1  0.00000000  0.00000000  0.00000000  1
