# generated using pymatgen
data_Na2B5CNO11
_symmetry_space_group_name_H-M   'P 1'
_cell_length_a   6.43237877
_cell_length_b   6.43237877
_cell_length_c   6.45811844
_cell_angle_alpha   62.23767853
_cell_angle_beta   62.23767853
_cell_angle_gamma   79.19566345
_symmetry_Int_Tables_number   1
_chemical_formula_structural   Na2B5CNO11
_chemical_formula_sum   'Na2 B5 C1 N1 O11'
_cell_volume   209.08193808
_cell_formula_units_Z   1
loop_
 _symmetry_equiv_pos_site_id
 _symmetry_equiv_pos_as_xyz
  1  'x, y, z'
loop_
 _atom_site_type_symbol
 _atom_site_label
 _atom_site_symmetry_multiplicity
 _atom_site_fract_x
 _atom_site_fract_y
 _atom_site_fract_z
 _atom_site_occupancy
  Na  Na0  1  0.79483799  0.20516200  0.74999995  1
  Na  Na1  1  0.20516198  0.79483800  0.24999997  1
  B  B2  1  0.77763399  0.22236600  0.24999997  1
  C  C3  1  0.22236598  0.77763400  0.74999996  1
  B  B4  1  0.34035099  0.20535400  0.58470497  1
  B  B5  1  0.79464598  0.65964900  0.91529494  1
  B  B6  1  0.65964898  0.79464600  0.41529495  1
  B  B7  1  0.20535399  0.34035100  0.08470498  1
  O  O8  1  0.78026800  0.00982100  0.21265797  1
  O  O9  1  0.20941999  0.38394100  0.50341197  1
  O  O10  1  0.61605898  0.79058000  0.99658794  1
  O  O11  1  0.79057998  0.61605900  0.49658795  1
  N  N12  1  0.21424499  0.58329000  0.99103496  1
  O  O13  1  0.41670998  0.78575500  0.50896496  1
  O  O14  1  0.78575499  0.41671000  0.00896497  1
  O  O15  1  0.58328999  0.21424500  0.49103497  1
  O  O16  1  0.21973198  0.99017899  0.78734195  1
  O  O17  1  0.00982098  0.78026800  0.71265797  1
  O  O18  1  0.38394099  0.20942000  0.00341198  1
  O  O19  1  0.99017899  0.21973200  0.28734196  1
