# generated using pymatgen
data_FeNi15
_symmetry_space_group_name_H-M   'P 1'
_cell_length_a   3.72773910
_cell_length_b   5.00984955
_cell_length_c   10.01899433
_cell_angle_alpha   97.00192261
_cell_angle_beta   90.00000000
_cell_angle_gamma   90.00000000
_symmetry_Int_Tables_number   1
_chemical_formula_structural   FeNi15
_chemical_formula_sum   'Fe1 Ni15'
_cell_volume   185.71340097
_cell_formula_units_Z   1
loop_
 _symmetry_equiv_pos_site_id
 _symmetry_equiv_pos_as_xyz
  1  'x, y, z'
loop_
 _atom_site_type_symbol
 _atom_site_label
 _atom_site_symmetry_multiplicity
 _atom_site_fract_x
 _atom_site_fract_y
 _atom_site_fract_z
 _atom_site_occupancy
  Fe  Fe0  1  0.49999999  0.27974601  0.35847402  1
  Ni  Ni1  1  0.49999999  0.28115301  0.86102704  1
  Ni  Ni2  1  0.49999999  0.71894503  0.14012202  1
  Ni  Ni3  1  0.49999999  0.71918603  0.64098604  1
  Ni  Ni4  1  0.00000000  0.00019600  0.00004900  1
  Ni  Ni5  1  0.00000000  0.00279600  0.49841202  1
  Ni  Ni6  1  0.49999999  0.77444803  0.38622304  1
  Ni  Ni7  1  0.49999999  0.77506403  0.88868505  1
  Ni  Ni8  1  0.49999999  0.22507101  0.11242401  1
  Ni  Ni9  1  0.49999999  0.22539301  0.61264703  1
  Ni  Ni10  1  0.00000000  0.99879903  0.24910404  1
  Ni  Ni11  1  0.00000000  0.00094600  0.75046703  1
  Ni  Ni12  1  0.00000000  0.50070002  0.00082401  1
  Ni  Ni13  1  0.00000000  0.50032602  0.49917603  1
  Ni  Ni14  1  0.00000000  0.49920602  0.25000102  1
  Ni  Ni15  1  0.00000000  0.49802202  0.75137704  1
