# generated using pymatgen
data_SmDy2Cu(SeO5)2
_symmetry_space_group_name_H-M   'P 1'
_cell_length_a   5.02481508
_cell_length_b   6.34828091
_cell_length_c   6.43095398
_cell_angle_alpha   90.00000000
_cell_angle_beta   90.00000000
_cell_angle_gamma   90.00000000
_symmetry_Int_Tables_number   1
_chemical_formula_structural   SmDy2Cu(SeO5)2
_chemical_formula_sum   'Sm1 Dy2 Cu1 Se2 O10'
_cell_volume   205.14060001
_cell_formula_units_Z   1
loop_
 _symmetry_equiv_pos_site_id
 _symmetry_equiv_pos_as_xyz
  1  'x, y, z'
loop_
 _atom_site_type_symbol
 _atom_site_label
 _atom_site_symmetry_multiplicity
 _atom_site_fract_x
 _atom_site_fract_y
 _atom_site_fract_z
 _atom_site_occupancy
  Dy  Dy0  1  0.12628800  0.75000001  0.51823000  1
  Dy  Dy1  1  0.62628799  0.25000000  0.98177000  1
  Sm  Sm2  1  0.87371199  0.25000000  0.48177000  1
  Cu  Cu3  1  0.37371199  0.75000001  0.01823000  1
  Se  Se4  1  0.60016899  0.94707701  0.67532200  1
  Se  Se5  1  0.60016899  0.55292301  0.67532200  1
  O  O6  1  0.89983099  0.94707701  0.17532200  1
  O  O7  1  0.39983099  0.05292300  0.32467800  1
  O  O8  1  0.10016900  0.05292300  0.82467800  1
  O  O9  1  0.39983099  0.44707701  0.32467800  1
  O  O10  1  0.89983099  0.55292301  0.17532200  1
  O  O11  1  0.10016900  0.44707701  0.82467800  1
  O  O12  1  0.12269800  0.25000000  0.12565800  1
  O  O13  1  0.37730199  0.25000000  0.62565800  1
  O  O14  1  0.87730199  0.75000001  0.87434200  1
  O  O15  1  0.62269799  0.75000001  0.37434200  1
