# generated using pymatgen
data_LiNi12
_symmetry_space_group_name_H-M   'P 1'
_cell_length_a   5.00251579
_cell_length_b   6.57373333
_cell_length_c   6.57373333
_cell_angle_alpha   81.67576599
_cell_angle_beta   67.63578796
_cell_angle_gamma   67.63578796
_symmetry_Int_Tables_number   1
_chemical_formula_structural   LiNi12
_chemical_formula_sum   'Li1 Ni12'
_cell_volume   184.88136205
_cell_formula_units_Z   1
loop_
 _symmetry_equiv_pos_site_id
 _symmetry_equiv_pos_as_xyz
  1  'x, y, z'
loop_
 _atom_site_type_symbol
 _atom_site_label
 _atom_site_symmetry_multiplicity
 _atom_site_fract_x
 _atom_site_fract_y
 _atom_site_fract_z
 _atom_site_occupancy
  Li  Li0  1  0.00000000  0.00000000  0.00000000  1
  Ni  Ni1  1  0.33556296  0.66443701  0.66443702  1
  Ni  Ni2  1  -0.00000006  0.66443701  0.33556303  1
  Ni  Ni3  1  -0.00000003  0.33556300  0.66443701  1
  Ni  Ni4  1  0.66443701  0.33556300  0.33556299  1
  Ni  Ni5  1  0.28214300  0.21785700  0.21785700  1
  Ni  Ni6  1  0.71785697  0.78214301  0.78214301  1
  Ni  Ni7  1  0.49999996  0.78214301  0.21785702  1
  Ni  Ni8  1  0.50000001  0.21785700  0.78214299  1
  Ni  Ni9  1  0.00000000  0.00000000  0.50000000  1
  Ni  Ni10  1  0.50000003  0.00000000  0.49999998  1
  Ni  Ni11  1  -0.00000005  0.50000001  0.00000003  1
  Ni  Ni12  1  0.49999998  0.50000001  0.00000001  1
