# generated using pymatgen
data_LaCoO3
_symmetry_space_group_name_H-M   'P 1'
_cell_length_a   5.42046118
_cell_length_b   5.42646408
_cell_length_c   7.60236788
_cell_angle_alpha   90.00000000
_cell_angle_beta   90.00000000
_cell_angle_gamma   90.00000000
_symmetry_Int_Tables_number   1
_chemical_formula_structural   LaCoO3
_chemical_formula_sum   'La4 Co4 O12'
_cell_volume   223.61557653
_cell_formula_units_Z   4
loop_
 _symmetry_equiv_pos_site_id
 _symmetry_equiv_pos_as_xyz
  1  'x, y, z'
loop_
 _atom_site_type_symbol
 _atom_site_label
 _atom_site_symmetry_multiplicity
 _atom_site_fract_x
 _atom_site_fract_y
 _atom_site_fract_z
 _atom_site_occupancy
  La  La0  1  0.49065698  0.20487300  0.00000000  1
  La  La1  1  0.99065697  0.79512699  0.50000001  1
  La  La2  1  0.00832500  0.71205299  0.00000000  1
  La  La3  1  0.50832498  0.28794700  0.50000001  1
  Co  Co4  1  0.00035800  0.24943500  0.75009701  1
  Co  Co5  1  0.00035800  0.24943500  0.24990300  1
  Co  Co6  1  0.50035798  0.75056499  0.25009700  1
  Co  Co7  1  0.50035798  0.75056499  0.74990301  1
  O  O8  1  0.07105500  0.23483800  0.50000001  1
  O  O9  1  0.21768699  0.96788699  0.78707401  1
  O  O10  1  0.21768699  0.96788699  0.21292600  1
  O  O11  1  0.28609599  0.46452499  0.20796600  1
  O  O12  1  0.28609599  0.46452499  0.79203401  1
  O  O13  1  0.42162399  0.73797999  0.50000001  1
  O  O14  1  0.57105498  0.76516199  0.00000000  1
  O  O15  1  0.71768698  0.03211300  0.71292601  1
  O  O16  1  0.71768698  0.03211300  0.28707400  1
  O  O17  1  0.78609597  0.53547499  0.70796601  1
  O  O18  1  0.78609597  0.53547499  0.29203400  1
  O  O19  1  0.92162397  0.26202000  0.00000000  1
