# generated using pymatgen
data_Co2NiS4
_symmetry_space_group_name_H-M   'P 1'
_cell_length_a   6.65781498
_cell_length_b   6.65781498
_cell_length_c   6.65781498
_cell_angle_alpha   60.00000000
_cell_angle_beta   60.00000000
_cell_angle_gamma   60.00000000
_symmetry_Int_Tables_number   1
_chemical_formula_structural   Co2NiS4
_chemical_formula_sum   'Co4 Ni2 S8'
_cell_volume   208.67968287
_cell_formula_units_Z   2
loop_
 _symmetry_equiv_pos_site_id
 _symmetry_equiv_pos_as_xyz
  1  'x, y, z'
loop_
 _atom_site_type_symbol
 _atom_site_label
 _atom_site_symmetry_multiplicity
 _atom_site_fract_x
 _atom_site_fract_y
 _atom_site_fract_z
 _atom_site_occupancy
  Co  Co0  1  0.49999999  0.49999999  0.49999999  1
  Co  Co1  1  0.87499998  0.37499999  0.87499998  1
  Co  Co2  1  0.37499999  0.87499998  0.87499998  1
  Co  Co3  1  0.87499998  0.87499998  0.87499998  1
  Ni  Ni4  1  0.24999999  0.24999999  0.24999999  1
  Ni  Ni5  1  0.87499998  0.87499998  0.37499999  1
  S  S6  1  0.64979798  0.11673400  0.11673400  1
  S  S7  1  0.11673300  0.64979898  0.11673400  1
  S  S8  1  0.10020200  0.63326598  0.63326598  1
  S  S9  1  0.63326698  0.10020100  0.63326598  1
  S  S10  1  0.11673300  0.11673400  0.11673400  1
  S  S11  1  0.63326698  0.63326598  0.63326598  1
  S  S12  1  0.63326698  0.63326598  0.10020100  1
  S  S13  1  0.11673300  0.11673400  0.64979898  1
