# generated using pymatgen
data_SrTi3O7
_symmetry_space_group_name_H-M   'P 1'
_cell_length_a   3.87468004
_cell_length_b   3.87468004
_cell_length_c   10.79997444
_cell_angle_alpha   100.33386993
_cell_angle_beta   100.33386993
_cell_angle_gamma   90.00000000
_symmetry_Int_Tables_number   1
_chemical_formula_structural   SrTi3O7
_chemical_formula_sum   'Sr1 Ti3 O7'
_cell_volume   156.83734565
_cell_formula_units_Z   1
loop_
 _symmetry_equiv_pos_site_id
 _symmetry_equiv_pos_as_xyz
  1  'x, y, z'
loop_
 _atom_site_type_symbol
 _atom_site_label
 _atom_site_symmetry_multiplicity
 _atom_site_fract_x
 _atom_site_fract_y
 _atom_site_fract_z
 _atom_site_occupancy
  Sr  Sr0  1  0.00000000  0.00000000  0.00000000  1
  Ti  Ti1  1  0.75000000  0.25000000  0.50000001  1
  Ti  Ti2  1  0.61782701  0.61782700  0.23565402  1
  Ti  Ti3  1  0.38217300  0.38217300  0.76434600  1
  O  O4  1  0.70413801  0.70413800  0.40827602  1
  O  O5  1  0.59294500  0.09294500  0.18589001  1
  O  O6  1  0.90705500  0.40705500  0.81411001  1
  O  O7  1  0.29586200  0.29586200  0.59172400  1
  O  O8  1  0.09182401  0.59182400  0.18364801  1
  O  O9  1  0.40817601  0.90817600  0.81635201  1
  O  O10  1  0.50000001  0.50000000  1.00000000  1
