# generated using pymatgen
data_TiCoSb
_symmetry_space_group_name_H-M   'P 1'
_cell_length_a   4.25921106
_cell_length_b   4.25921106
_cell_length_c   7.44742489
_cell_angle_alpha   73.38423920
_cell_angle_beta   73.38423920
_cell_angle_gamma   59.99998474
_symmetry_Int_Tables_number   1
_chemical_formula_structural   TiCoSb
_chemical_formula_sum   'Ti2 Co2 Sb2'
_cell_volume   110.44037065
_cell_formula_units_Z   2
loop_
 _symmetry_equiv_pos_site_id
 _symmetry_equiv_pos_as_xyz
  1  'x, y, z'
loop_
 _atom_site_type_symbol
 _atom_site_label
 _atom_site_symmetry_multiplicity
 _atom_site_fract_x
 _atom_site_fract_y
 _atom_site_fract_z
 _atom_site_occupancy
  Ti  Ti0  1  0.87620499  0.87620498  0.37138497  1
  Ti  Ti1  1  0.37393800  0.37393799  0.87818598  1
  Co  Co2  1  0.00267800  0.00267800  0.99196599  1
  Co  Co3  1  0.49676400  0.49676399  0.50970798  1
  Sb  Sb4  1  0.12285200  0.12285200  0.63144399  1
  Sb  Sb5  1  0.62756299  0.62756299  0.11731098  1
