# generated using pymatgen
data_Rb2ScH2ClF10
_symmetry_space_group_name_H-M   'P 1'
_cell_length_a   6.67567778
_cell_length_b   7.09784317
_cell_length_c   8.95884991
_cell_angle_alpha   81.39526367
_cell_angle_beta   74.71118164
_cell_angle_gamma   88.92626190
_symmetry_Int_Tables_number   1
_chemical_formula_structural   Rb2ScH2ClF10
_chemical_formula_sum   'Rb2 Sc1 H2 Cl1 F10'
_cell_volume   404.76851229
_cell_formula_units_Z   1
loop_
 _symmetry_equiv_pos_site_id
 _symmetry_equiv_pos_as_xyz
  1  'x, y, z'
loop_
 _atom_site_type_symbol
 _atom_site_label
 _atom_site_symmetry_multiplicity
 _atom_site_fract_x
 _atom_site_fract_y
 _atom_site_fract_z
 _atom_site_occupancy
  Rb  Rb0  1  0.26523202  0.28378701  0.61479304  1
  Rb  Rb1  1  0.73476805  0.71621301  0.38520705  1
  Sc  Sc2  1  0.35892604  0.74711502  0.01880302  1
  H  H3  1  0.64107403  0.25288501  0.98119707  1
  H  H4  1  0.13309701  0.23947000  0.08754301  1
  Cl  Cl5  1  0.86690305  0.76053002  0.91245708  1
  F  F6  1  0.25675503  0.67557201  0.33203303  1
  F  F7  1  0.74324503  0.32442801  0.66796706  1
  F  F8  1  0.60899102  0.19297300  0.28703803  1
  F  F9  1  0.39100904  0.80702702  0.71296206  1
  F  F10  1  0.31927202  0.42265101  0.01581101  1
  F  F11  1  0.68072804  0.57734901  0.98418908  1
  F  F12  1  0.31705701  0.07029200  0.02732701  1
  F  F13  1  0.68294305  0.92970802  0.97267308  1
  F  F14  1  0.00281503  0.74174702  0.05065001  1
  F  F15  1  0.99718503  0.25825301  0.94935008  1
