# generated using pymatgen
data_ErSi
_symmetry_space_group_name_H-M   'P 1'
_cell_length_a   4.16946316
_cell_length_b   5.42254305
_cell_length_c   7.03310919
_cell_angle_alpha   90.00000000
_cell_angle_beta   90.00000000
_cell_angle_gamma   90.00000000
_symmetry_Int_Tables_number   1
_chemical_formula_structural   ErSi
_chemical_formula_sum   'Er4 Si4'
_cell_volume   159.01222297
_cell_formula_units_Z   4
loop_
 _symmetry_equiv_pos_site_id
 _symmetry_equiv_pos_as_xyz
  1  'x, y, z'
loop_
 _atom_site_type_symbol
 _atom_site_label
 _atom_site_symmetry_multiplicity
 _atom_site_fract_x
 _atom_site_fract_y
 _atom_site_fract_z
 _atom_site_occupancy
  Er  Er0  1  0.24999999  0.36615500  0.68030598  1
  Er  Er1  1  0.74999997  0.63384499  0.31969399  1
  Er  Er2  1  0.74999997  0.86615499  0.81969398  1
  Er  Er3  1  0.24999999  0.13384500  0.18030600  1
  Si  Si4  1  0.24999999  0.87284699  0.53724599  1
  Si  Si5  1  0.74999997  0.12715300  0.46275399  1
  Si  Si6  1  0.74999997  0.37284700  0.96275397  1
  Si  Si7  1  0.24999999  0.62715299  0.03724600  1
