# generated using pymatgen
data_K3Zn5Cu(AsSe3)2
_symmetry_space_group_name_H-M   'P 1'
_cell_length_a   4.01767778
_cell_length_b   9.53038406
_cell_length_c   10.29469776
_cell_angle_alpha   105.59375000
_cell_angle_beta   90.00000000
_cell_angle_gamma   102.16822052
_symmetry_Int_Tables_number   1
_chemical_formula_structural   K3Zn5Cu(AsSe3)2
_chemical_formula_sum   'K3 Zn5 Cu1 As2 Se6'
_cell_volume   370.47210307
_cell_formula_units_Z   1
loop_
 _symmetry_equiv_pos_site_id
 _symmetry_equiv_pos_as_xyz
  1  'x, y, z'
loop_
 _atom_site_type_symbol
 _atom_site_label
 _atom_site_symmetry_multiplicity
 _atom_site_fract_x
 _atom_site_fract_y
 _atom_site_fract_z
 _atom_site_occupancy
  K  K0  1  0.68787609  0.37575202  0.30550400  1
  K  K1  1  0.31212410  0.62424803  0.69449599  1
  K  K2  1  0.50000003  0.00000000  -0.00000000  1
  Zn  Zn3  1  0.92042217  0.84084405  0.46980600  1
  Zn  Zn4  1  0.70195809  0.40391602  0.92221398  1
  Zn  Zn5  1  0.52300403  0.04600800  0.64112798  1
  Zn  Zn6  1  0.88900116  0.77800204  0.21887000  1
  Zn  Zn7  1  0.47699616  0.95399205  0.35887200  1
  As  As8  1  0.07957803  0.15915601  0.53019399  1
  Cu  Cu9  1  0.29804210  0.59608403  0.07778600  1
  As  As10  1  0.11099904  0.22199801  0.78112998  1
  Se  Se11  1  0.84038814  0.68077604  0.97954798  1
  Se  Se12  1  0.15961205  0.31922402  0.02045200  1
  Se  Se13  1  0.03220301  0.06440600  0.29190899  1
  Se  Se14  1  0.65570408  0.31140802  0.64888599  1
  Se  Se15  1  0.34429612  0.68859204  0.35111400  1
  Se  Se16  1  0.96779718  0.93559405  0.70809099  1
