# generated using pymatgen
data_LiNi3(WO7)2
_symmetry_space_group_name_H-M   'P 1'
_cell_length_a   6.43308306
_cell_length_b   6.45737505
_cell_length_c   6.45709085
_cell_angle_alpha   109.53731537
_cell_angle_beta   109.14413452
_cell_angle_gamma   109.49982452
_symmetry_Int_Tables_number   1
_chemical_formula_structural   LiNi3(WO7)2
_chemical_formula_sum   'Li1 Ni3 W2 O14'
_cell_volume   207.07364441
_cell_formula_units_Z   1
loop_
 _symmetry_equiv_pos_site_id
 _symmetry_equiv_pos_as_xyz
  1  'x, y, z'
loop_
 _atom_site_type_symbol
 _atom_site_label
 _atom_site_symmetry_multiplicity
 _atom_site_fract_x
 _atom_site_fract_y
 _atom_site_fract_z
 _atom_site_occupancy
  Li  Li0  1  0.99999819  1.00000014  0.99999821  1
  Ni  Ni1  1  0.50000018  0.99999814  0.99999917  1
  Ni  Ni2  1  0.99999110  0.49999707  0.99999314  1
  Ni  Ni3  1  0.99999902  0.00000400  0.49999907  1
  W  W4  1  0.50000009  0.49999907  0.50000210  1
  W  W5  1  0.50000109  0.50000007  0.00000111  1
  O  O6  1  0.50000018  1.00000014  0.50000118  1
  O  O7  1  0.00000009  0.50000007  0.50000007  1
  O  O8  1  0.29281904  0.17967102  0.48311004  1
  O  O9  1  0.70718215  0.82032811  0.51689017  1
  O  O10  1  0.30366215  0.81906711  0.11511714  1
  O  O11  1  0.69633904  0.18093303  0.88488407  1
  O  O12  1  0.18922409  0.48314907  0.29916908  1
  O  O13  1  0.81077910  0.51685507  0.70083513  1
  O  O14  1  0.81771804  0.11953202  0.30294407  1
  O  O15  1  0.18228415  0.88046912  0.69705814  1
  O  O16  1  0.48179906  0.30049704  0.18507108  1
  O  O17  1  0.51820213  0.69949910  0.81492613  1
  O  O18  1  0.11408105  0.30485004  0.82015905  1
  O  O19  1  0.88592114  0.69515110  0.17984316  1
