# generated using pymatgen
data_Ce2NiGe6
_symmetry_space_group_name_H-M   'P 1'
_cell_length_a   4.02463818
_cell_length_b   4.05977917
_cell_length_c   10.89930058
_cell_angle_alpha   90.00000000
_cell_angle_beta   100.63945770
_cell_angle_gamma   90.00000000
_symmetry_Int_Tables_number   1
_chemical_formula_structural   Ce2NiGe6
_chemical_formula_sum   'Ce2 Ni1 Ge6'
_cell_volume   175.02365853
_cell_formula_units_Z   1
loop_
 _symmetry_equiv_pos_site_id
 _symmetry_equiv_pos_as_xyz
  1  'x, y, z'
loop_
 _atom_site_type_symbol
 _atom_site_label
 _atom_site_symmetry_multiplicity
 _atom_site_fract_x
 _atom_site_fract_y
 _atom_site_fract_z
 _atom_site_occupancy
  Ce  Ce0  1  0.77709896  0.49999998  0.55419796  1
  Ce  Ce1  1  0.11387799  0.49999998  0.22775599  1
  Ge  Ge2  1  0.55541997  0.00000000  0.11083998  1
  Ni  Ni3  1  0.49872197  0.49999998  0.99744395  1
  Ge  Ge4  1  0.38207898  0.49999998  0.76415696  1
  Ge  Ge5  1  0.99852495  0.00000000  0.99704894  1
  Ge  Ge6  1  0.88133395  0.00000000  0.76266695  1
  Ge  Ge7  1  0.66290996  0.00000000  0.32582097  1
  Ge  Ge8  1  0.23703399  0.00000000  0.47406898  1
