# generated using pymatgen
data_Ce2P3
_symmetry_space_group_name_H-M   'P 1'
_cell_length_a   4.48124981
_cell_length_b   7.06227398
_cell_length_c   7.27919817
_cell_angle_alpha   65.31507111
_cell_angle_beta   72.07257843
_cell_angle_gamma   71.50228882
_symmetry_Int_Tables_number   1
_chemical_formula_structural   Ce2P3
_chemical_formula_sum   'Ce4 P6'
_cell_volume   194.35291841
_cell_formula_units_Z   2
loop_
 _symmetry_equiv_pos_site_id
 _symmetry_equiv_pos_as_xyz
  1  'x, y, z'
loop_
 _atom_site_type_symbol
 _atom_site_label
 _atom_site_symmetry_multiplicity
 _atom_site_fract_x
 _atom_site_fract_y
 _atom_site_fract_z
 _atom_site_occupancy
  Ce  Ce0  1  0.50000002  0.50000001  0.50000001  1
  Ce  Ce1  1  0.14890701  0.54765001  0.15453599  1
  Ce  Ce2  1  0.85109303  0.45235001  0.84546404  1
  Ce  Ce3  1  0.37209101  0.01222400  0.24359402  1
  P  P4  1  0.62790903  0.98777602  0.75640601  1
  P  P5  1  0.00000000  0.00000000  0.00000000  1
  P  P6  1  0.25891402  0.74559701  0.73657501  1
  P  P7  1  0.74108602  0.25440300  0.26342502  1
  P  P8  1  0.10887401  0.22610400  0.55614801  1
  P  P9  1  0.89112604  0.77389601  0.44385201  1
