# generated using pymatgen
data_ScCo2
_symmetry_space_group_name_H-M   'P 1'
_cell_length_a   4.94857597
_cell_length_b   4.94967985
_cell_length_c   7.97611189
_cell_angle_alpha   90.00000000
_cell_angle_beta   90.00000000
_cell_angle_gamma   119.99262238
_symmetry_Int_Tables_number   1
_chemical_formula_structural   ScCo2
_chemical_formula_sum   'Sc4 Co8'
_cell_volume   169.20434160
_cell_formula_units_Z   4
loop_
 _symmetry_equiv_pos_site_id
 _symmetry_equiv_pos_as_xyz
  1  'x, y, z'
loop_
 _atom_site_type_symbol
 _atom_site_label
 _atom_site_symmetry_multiplicity
 _atom_site_fract_x
 _atom_site_fract_y
 _atom_site_fract_z
 _atom_site_occupancy
  Sc  Sc0  1  0.33333332  0.66666665  0.43632101  1
  Sc  Sc1  1  0.66666666  0.33333332  0.56367901  1
  Sc  Sc2  1  0.66666666  0.33333332  0.93632101  1
  Sc  Sc3  1  0.33333332  0.66666665  0.06367900  1
  Co  Co4  1  0.83002100  0.16996500  0.25000000  1
  Co  Co5  1  0.83000299  0.66000598  0.25000000  1
  Co  Co6  1  0.33994400  0.16996500  0.25000000  1
  Co  Co7  1  0.16997898  0.83003498  0.75000001  1
  Co  Co8  1  0.16999699  0.33999399  0.75000001  1
  Co  Co9  1  0.66005598  0.83003498  0.75000001  1
  Co  Co10  1  0.00000000  0.00000000  0.50000001  1
  Co  Co11  1  0.00000000  0.00000000  0.00000000  1
