# generated using pymatgen
data_LiVO4
_symmetry_space_group_name_H-M   'P 1'
_cell_length_a   4.75913000
_cell_length_b   5.01788330
_cell_length_c   5.85530186
_cell_angle_alpha   90.00000000
_cell_angle_beta   90.00000000
_cell_angle_gamma   91.81138611
_symmetry_Int_Tables_number   1
_chemical_formula_structural   LiVO4
_chemical_formula_sum   'Li2 V2 O8'
_cell_volume   139.75917949
_cell_formula_units_Z   2
loop_
 _symmetry_equiv_pos_site_id
 _symmetry_equiv_pos_as_xyz
  1  'x, y, z'
loop_
 _atom_site_type_symbol
 _atom_site_label
 _atom_site_symmetry_multiplicity
 _atom_site_fract_x
 _atom_site_fract_y
 _atom_site_fract_z
 _atom_site_occupancy
  Li  Li0  1  0.50000001  0.25000001  0.32200001  1
  Li  Li1  1  0.50000003  0.75000002  0.67800002  1
  V  V2  1  0.00000001  0.25000001  0.82561702  1
  V  V3  1  0.00000003  0.75000002  0.17438300  1
  O  O4  1  0.21495104  0.93464303  0.89349502  1
  O  O5  1  0.78504902  0.56535702  0.89349502  1
  O  O6  1  0.78504900  0.06535700  0.10650500  1
  O  O7  1  0.21495102  0.43464301  0.10650500  1
  O  O8  1  0.25784202  0.40506401  0.62959902  1
  O  O9  1  0.74215800  0.09493600  0.62959902  1
  O  O10  1  0.74215803  0.59493602  0.37040101  1
  O  O11  1  0.25784204  0.90506403  0.37040101  1
