# generated using pymatgen
data_La3Ni5P4
_symmetry_space_group_name_H-M   'P 1'
_cell_length_a   4.00513220
_cell_length_b   4.00513268
_cell_length_c   16.18999290
_cell_angle_alpha   90.00000000
_cell_angle_beta   90.00000000
_cell_angle_gamma   119.99999237
_symmetry_Int_Tables_number   1
_chemical_formula_structural   La3Ni5P4
_chemical_formula_sum   'La3 Ni5 P4'
_cell_volume   224.91120182
_cell_formula_units_Z   1
loop_
 _symmetry_equiv_pos_site_id
 _symmetry_equiv_pos_as_xyz
  1  'x, y, z'
loop_
 _atom_site_type_symbol
 _atom_site_label
 _atom_site_symmetry_multiplicity
 _atom_site_fract_x
 _atom_site_fract_y
 _atom_site_fract_z
 _atom_site_occupancy
  La  La0  1  0.00000000  0.00000000  0.75000000  1
  La  La1  1  0.00000000  0.00000000  0.25000000  1
  La  La2  1  0.00000000  0.00000000  0.00000000  1
  Ni  Ni3  1  0.00000000  0.00000000  0.50000000  1
  Ni  Ni4  1  0.66666663  0.33333334  0.87449101  1
  Ni  Ni5  1  0.33333331  0.66666668  0.12550900  1
  Ni  Ni6  1  0.33333331  0.66666668  0.37449100  1
  Ni  Ni7  1  0.66666663  0.33333334  0.62550900  1
  P  P8  1  0.66666663  0.33333334  0.37471600  1
  P  P9  1  0.33333331  0.66666668  0.62528400  1
  P  P10  1  0.33333331  0.66666668  0.87471601  1
  P  P11  1  0.66666663  0.33333334  0.12528400  1
