# generated using pymatgen
data_Li7TiO6
_symmetry_space_group_name_H-M   'P 1'
_cell_length_a   5.61033773
_cell_length_b   5.61033773
_cell_length_c   5.89449978
_cell_angle_alpha   61.58229065
_cell_angle_beta   61.58229065
_cell_angle_gamma   60.00000381
_symmetry_Int_Tables_number   1
_chemical_formula_structural   Li7TiO6
_chemical_formula_sum   'Li7 Ti1 O6'
_cell_volume   134.24336615
_cell_formula_units_Z   1
loop_
 _symmetry_equiv_pos_site_id
 _symmetry_equiv_pos_as_xyz
  1  'x, y, z'
loop_
 _atom_site_type_symbol
 _atom_site_label
 _atom_site_symmetry_multiplicity
 _atom_site_fract_x
 _atom_site_fract_y
 _atom_site_fract_z
 _atom_site_occupancy
  Li  Li0  1  0.49342998  0.12374700  0.65729097  1
  Li  Li1  1  0.23560098  0.48927599  0.34363999  1
  Li  Li2  1  0.93148296  0.23560100  0.34363998  1
  Li  Li3  1  0.65462596  0.65462599  0.03612200  1
  Li  Li4  1  0.12374697  0.72553198  0.65729098  1
  Li  Li5  1  0.72553196  0.49342999  0.65729097  1
  Li  Li6  1  0.48927596  0.93148298  0.34363999  1
  Ti  Ti7  1  0.00021200  0.00021200  0.99936396  1
  O  O8  1  0.63933697  0.23079700  0.24562299  1
  O  O9  1  0.07159799  0.37571899  0.75736597  1
  O  O10  1  0.79531697  0.07159800  0.75736597  1
  O  O11  1  0.23079697  0.88424298  0.24562299  1
  O  O12  1  0.88424295  0.63933699  0.24562299  1
  O  O13  1  0.37571896  0.79531698  0.75736597  1
