# generated using pymatgen
data_TbInNi
_symmetry_space_group_name_H-M   'P 1'
_cell_length_a   4.17589617
_cell_length_b   7.12780380
_cell_length_c   7.12780476
_cell_angle_alpha   120.00000000
_cell_angle_beta   90.00000000
_cell_angle_gamma   90.00000000
_symmetry_Int_Tables_number   1
_chemical_formula_structural   TbInNi
_chemical_formula_sum   'Tb3 In3 Ni3'
_cell_volume   183.73498373
_cell_formula_units_Z   3
loop_
 _symmetry_equiv_pos_site_id
 _symmetry_equiv_pos_as_xyz
  1  'x, y, z'
loop_
 _atom_site_type_symbol
 _atom_site_label
 _atom_site_symmetry_multiplicity
 _atom_site_fract_x
 _atom_site_fract_y
 _atom_site_fract_z
 _atom_site_occupancy
  Tb  Tb0  1  0.49999998  0.58285503  0.00000003  1
  Tb  Tb1  1  0.49999998  0.41714502  0.41714501  1
  Tb  Tb2  1  0.49999998  0.00000000  0.58285498  1
  In  In3  1  0.99999996  0.25154301  0.00000001  1
  In  In4  1  0.99999996  0.74845704  0.74845702  1
  In  In5  1  0.00000000  0.00000000  0.25154299  1
  Ni  Ni6  1  0.99999996  0.33333335  0.66666667  1
  Ni  Ni7  1  -0.00000000  0.66666670  0.33333336  1
  Ni  Ni8  1  0.49999998  0.00000000  -0.00000000  1
