# generated using pymatgen
data_SrBi3
_symmetry_space_group_name_H-M   'P 1'
_cell_length_a   4.50253010
_cell_length_b   4.50253010
_cell_length_c   8.65137959
_cell_angle_alpha   74.91686249
_cell_angle_beta   74.91686249
_cell_angle_gamma   60.00000381
_symmetry_Int_Tables_number   1
_chemical_formula_structural   SrBi3
_chemical_formula_sum   'Sr1 Bi3'
_cell_volume   144.87106784
_cell_formula_units_Z   1
loop_
 _symmetry_equiv_pos_site_id
 _symmetry_equiv_pos_as_xyz
  1  'x, y, z'
loop_
 _atom_site_type_symbol
 _atom_site_label
 _atom_site_symmetry_multiplicity
 _atom_site_fract_x
 _atom_site_fract_y
 _atom_site_fract_z
 _atom_site_occupancy
  Sr  Sr0  1  0.49999999  0.49999997  0.50000000  1
  Bi  Bi1  1  0.00000000  0.00000000  0.00000000  1
  Bi  Bi2  1  0.26382499  0.26382498  0.20852500  1
  Bi  Bi3  1  0.73617498  0.73617495  0.79147500  1
