# generated using pymatgen
data_Y6NpO12
_symmetry_space_group_name_H-M   'P 1'
_cell_length_a   6.64329338
_cell_length_b   6.64329338
_cell_length_c   6.64329386
_cell_angle_alpha   99.50261688
_cell_angle_beta   99.50261688
_cell_angle_gamma   99.50260925
_symmetry_Int_Tables_number   1
_chemical_formula_structural   Y6NpO12
_chemical_formula_sum   'Y6 Np1 O12'
_cell_volume   279.56843722
_cell_formula_units_Z   1
loop_
 _symmetry_equiv_pos_site_id
 _symmetry_equiv_pos_as_xyz
  1  'x, y, z'
loop_
 _atom_site_type_symbol
 _atom_site_label
 _atom_site_symmetry_multiplicity
 _atom_site_fract_x
 _atom_site_fract_y
 _atom_site_fract_z
 _atom_site_occupancy
  Y  Y0  1  0.60847304  0.30222002  0.13831502  1
  Y  Y1  1  0.30222002  0.13831501  0.60847301  1
  Y  Y2  1  0.13831505  0.60847303  0.30222002  1
  Y  Y3  1  0.39152706  0.69778004  0.86168503  1
  Y  Y4  1  0.69778009  0.86168504  0.39152704  1
  Y  Y5  1  0.86168506  0.39152702  0.69778003  1
  Np  Np6  1  0.00000000  0.00000000  0.00000000  1
  O  O7  1  0.82059407  0.56404903  0.42096203  1
  O  O8  1  0.56404905  0.42096202  0.82059403  1
  O  O9  1  0.42096207  0.82059404  0.56404904  1
  O  O10  1  0.17940604  0.43595102  0.57903802  1
  O  O11  1  0.43595106  0.57903803  0.17940603  1
  O  O12  1  0.57903803  0.17940601  0.43595102  1
  O  O13  1  0.67379609  0.93699405  0.06422204  1
  O  O14  1  0.93577806  0.32620402  0.06300603  1
  O  O15  1  0.06300607  0.93577805  0.32620403  1
  O  O16  1  0.32620402  0.06300600  0.93577801  1
  O  O17  1  0.06422205  0.67379603  0.93699402  1
  O  O18  1  0.93699404  0.06422200  0.67379602  1
