# generated using pymatgen
data_Zr4Mn5Al3
_symmetry_space_group_name_H-M   'P 1'
_cell_length_a   5.20261860
_cell_length_b   5.21231985
_cell_length_c   8.48620605
_cell_angle_alpha   90.00000000
_cell_angle_beta   90.00000000
_cell_angle_gamma   119.88372040
_symmetry_Int_Tables_number   1
_chemical_formula_structural   Zr4Mn5Al3
_chemical_formula_sum   'Zr4 Mn5 Al3'
_cell_volume   199.52849532
_cell_formula_units_Z   1
loop_
 _symmetry_equiv_pos_site_id
 _symmetry_equiv_pos_as_xyz
  1  'x, y, z'
loop_
 _atom_site_type_symbol
 _atom_site_label
 _atom_site_symmetry_multiplicity
 _atom_site_fract_x
 _atom_site_fract_y
 _atom_site_fract_z
 _atom_site_occupancy
  Zr  Zr0  1  0.33141703  0.66307904  0.43190900  1
  Zr  Zr1  1  0.66252504  0.32473602  0.55225100  1
  Zr  Zr2  1  0.66252504  0.32473602  0.94774899  1
  Zr  Zr3  1  0.33141703  0.66307904  0.06809100  1
  Mn  Mn4  1  0.00130500  0.00263800  0.48584600  1
  Mn  Mn5  1  0.00130500  0.00263800  0.01415400  1
  Mn  Mn6  1  0.34013102  0.17536501  0.25000000  1
  Mn  Mn7  1  0.83513904  0.17545901  0.25000000  1
  Mn  Mn8  1  0.83575805  0.67156304  0.25000000  1
  Al  Al9  1  0.66520505  0.83085505  0.75000000  1
  Al  Al10  1  0.16574103  0.83086805  0.75000000  1
  Al  Al11  1  0.16753402  0.33498302  0.75000000  1
