# generated using pymatgen
data_Na4CuPO6
_symmetry_space_group_name_H-M   'P 1'
_cell_length_a   6.40802479
_cell_length_b   6.51724386
_cell_length_c   7.53992605
_cell_angle_alpha   66.78918457
_cell_angle_beta   77.82403564
_cell_angle_gamma   61.17458725
_symmetry_Int_Tables_number   1
_chemical_formula_structural   Na4CuPO6
_chemical_formula_sum   'Na4 Cu1 P1 O6'
_cell_volume   253.45650712
_cell_formula_units_Z   1
loop_
 _symmetry_equiv_pos_site_id
 _symmetry_equiv_pos_as_xyz
  1  'x, y, z'
loop_
 _atom_site_type_symbol
 _atom_site_label
 _atom_site_symmetry_multiplicity
 _atom_site_fract_x
 _atom_site_fract_y
 _atom_site_fract_z
 _atom_site_occupancy
  Na  Na0  1  0.51144501  0.28545399  0.50211102  1
  Na  Na1  1  0.48855501  0.71454599  0.49788901  1
  Na  Na2  1  0.93810202  0.30941299  0.50777404  1
  Na  Na3  1  0.06189801  0.69058699  0.49222599  1
  Cu  Cu4  1  0.32258101  0.16996700  0.32965401  1
  O  O5  1  0.67741902  0.83003298  0.67034602  1
  O  O6  1  0.85921902  0.15158600  0.30679704  1
  P  P7  1  0.14078101  0.84841398  0.69320300  1
  O  O8  1  0.36265801  0.66935499  0.25073801  1
  O  O9  1  0.63734202  0.33064499  0.74926203  1
  O  O10  1  0.82494902  0.70092199  0.27494403  1
  O  O11  1  0.17505101  0.29907799  0.72505601  1
