# generated using pymatgen
data_CeIn3(AgSe2)4
_symmetry_space_group_name_H-M   'P 1'
_cell_length_a   6.53440809
_cell_length_b   7.08285809
_cell_length_c   9.65012455
_cell_angle_alpha   90.00000000
_cell_angle_beta   90.00000000
_cell_angle_gamma   90.00000000
_symmetry_Int_Tables_number   1
_chemical_formula_structural   CeIn3(AgSe2)4
_chemical_formula_sum   'Ce1 In3 Ag4 Se8'
_cell_volume   446.62981656
_cell_formula_units_Z   1
loop_
 _symmetry_equiv_pos_site_id
 _symmetry_equiv_pos_as_xyz
  1  'x, y, z'
loop_
 _atom_site_type_symbol
 _atom_site_label
 _atom_site_symmetry_multiplicity
 _atom_site_fract_x
 _atom_site_fract_y
 _atom_site_fract_z
 _atom_site_occupancy
  Ce  Ce0  1  0.13182800  0.02668700  0.25000001  1
  Ag  Ag1  1  0.63182799  0.47331299  0.75000003  1
  In  In2  1  0.36817199  0.52668699  0.25000001  1
  In  In3  1  0.86817199  0.97331299  0.75000003  1
  In  In4  1  0.68027599  0.17969900  0.06177100  1
  Ag  Ag5  1  0.18027600  0.32030100  0.93822904  1
  Ag  Ag6  1  0.81972399  0.67969899  0.43822902  1
  Ag  Ag7  1  0.31972400  0.82030099  0.56177103  1
  Se  Se8  1  0.31972400  0.82030099  0.93822904  1
  Se  Se9  1  0.81972399  0.67969899  0.06177100  1
  Se  Se10  1  0.18027600  0.32030100  0.56177103  1
  Se  Se11  1  0.68027599  0.17969900  0.43822902  1
  Se  Se12  1  0.95113299  0.38877300  0.25000001  1
  Se  Se13  1  0.45113299  0.11122700  0.75000003  1
  Se  Se14  1  0.54886699  0.88877299  0.25000001  1
  Se  Se15  1  0.04886700  0.61122699  0.75000003  1
