# generated using pymatgen
data_LiCuF4
_symmetry_space_group_name_H-M   'P 1'
_cell_length_a   5.12204981
_cell_length_b   5.12204981
_cell_length_c   6.37776279
_cell_angle_alpha   90.00000000
_cell_angle_beta   90.00000000
_cell_angle_gamma   110.23348236
_symmetry_Int_Tables_number   1
_chemical_formula_structural   LiCuF4
_chemical_formula_sum   'Li2 Cu2 F8'
_cell_volume   156.99779186
_cell_formula_units_Z   2
loop_
 _symmetry_equiv_pos_site_id
 _symmetry_equiv_pos_as_xyz
  1  'x, y, z'
loop_
 _atom_site_type_symbol
 _atom_site_label
 _atom_site_symmetry_multiplicity
 _atom_site_fract_x
 _atom_site_fract_y
 _atom_site_fract_z
 _atom_site_occupancy
  Li  Li0  1  0.64258898  0.35741100  0.25000001  1
  Li  Li1  1  0.35741096  0.64258899  0.75000002  1
  Cu  Cu2  1  0.00000000  0.00000000  0.00000000  1
  Cu  Cu3  1  0.00000000  0.00000000  0.50000002  1
  F  F4  1  0.20852399  0.23322900  0.75000002  1
  F  F5  1  0.23322899  0.20852400  0.25000001  1
  F  F6  1  0.77478499  0.22521500  0.48244702  1
  F  F7  1  0.77478499  0.22521500  0.01755300  1
  F  F8  1  0.22521495  0.77478499  0.98244703  1
  F  F9  1  0.22521495  0.77478499  0.51755302  1
  F  F10  1  0.76677096  0.79147599  0.75000002  1
  F  F11  1  0.79147596  0.76677099  0.25000001  1
