# generated using pymatgen
data_Th2C3
_symmetry_space_group_name_H-M   'P 1'
_cell_length_a   7.41462040
_cell_length_b   7.41462040
_cell_length_c   7.41462040
_cell_angle_alpha   109.47122192
_cell_angle_beta   109.47122192
_cell_angle_gamma   109.47122192
_symmetry_Int_Tables_number   1
_chemical_formula_structural   Th2C3
_chemical_formula_sum   'Th8 C12'
_cell_volume   313.79415777
_cell_formula_units_Z   4
loop_
 _symmetry_equiv_pos_site_id
 _symmetry_equiv_pos_as_xyz
  1  'x, y, z'
loop_
 _atom_site_type_symbol
 _atom_site_label
 _atom_site_symmetry_multiplicity
 _atom_site_fract_x
 _atom_site_fract_y
 _atom_site_fract_z
 _atom_site_occupancy
  Th  Th0  1  1.00000002  0.50000001  0.59694004  1
  Th  Th1  1  0.40306002  0.40306001  0.90306001  1
  Th  Th2  1  0.50000000  0.09694000  0.50000001  1
  Th  Th3  1  0.09694000  0.00000000  0.00000000  1
  Th  Th4  1  0.90306005  0.90306002  0.40306006  1
  Th  Th5  1  1.00000002  0.50000001  0.09694005  1
  Th  Th6  1  0.50000003  0.59694001  0.50000004  1
  Th  Th7  1  0.59693999  0.00000000  0.00000001  1
  C  C8  1  0.95746800  0.20746800  0.75000002  1
  C  C9  1  0.54253201  0.29253201  0.25000002  1
  C  C10  1  0.70746802  0.45746801  0.25000004  1
  C  C11  1  0.79253199  0.04253200  0.75000001  1
  C  C12  1  0.20746801  0.25000000  0.45746801  1
  C  C13  1  0.29253204  0.75000001  0.04253205  1
  C  C14  1  0.45746804  0.75000001  0.20746805  1
  C  C15  1  0.04253202  0.25000000  0.29253201  1
  C  C16  1  0.75000003  0.54253201  0.79253203  1
  C  C17  1  0.25000006  0.95746802  0.70746805  1
  C  C18  1  0.25000005  0.79253202  0.54253204  1
  C  C19  1  0.75000004  0.70746801  0.95746804  1
