# generated using pymatgen
data_Ce2ScSi2
_symmetry_space_group_name_H-M   'P 1'
_cell_length_a   4.24805021
_cell_length_b   7.23179579
_cell_length_c   7.23179579
_cell_angle_alpha   90.00000000
_cell_angle_beta   90.00000000
_cell_angle_gamma   90.00000000
_symmetry_Int_Tables_number   1
_chemical_formula_structural   Ce2ScSi2
_chemical_formula_sum   'Ce4 Sc2 Si4'
_cell_volume   222.16822718
_cell_formula_units_Z   2
loop_
 _symmetry_equiv_pos_site_id
 _symmetry_equiv_pos_as_xyz
  1  'x, y, z'
loop_
 _atom_site_type_symbol
 _atom_site_label
 _atom_site_symmetry_multiplicity
 _atom_site_fract_x
 _atom_site_fract_y
 _atom_site_fract_z
 _atom_site_occupancy
  Ce  Ce0  1  0.49999997  0.67949802  0.17949801  1
  Ce  Ce1  1  0.49999997  0.32050201  0.82050202  1
  Ce  Ce2  1  0.49999997  0.17949801  0.32050201  1
  Ce  Ce3  1  0.49999997  0.82050202  0.67949802  1
  Sc  Sc4  1  0.00000000  0.00000000  0.00000000  1
  Sc  Sc5  1  0.00000000  0.50000001  0.50000001  1
  Si  Si6  1  0.00000000  0.11668000  0.61668002  1
  Si  Si7  1  0.99999995  0.88332003  0.38332001  1
  Si  Si8  1  -0.00000000  0.61668002  0.88332003  1
  Si  Si9  1  0.99999995  0.38332001  0.11668000  1
