# generated using pymatgen
data_La(CoGe)2
_symmetry_space_group_name_H-M   'P 1'
_cell_length_a   4.10419989
_cell_length_b   4.10419989
_cell_length_c   5.79543686
_cell_angle_alpha   110.73761749
_cell_angle_beta   110.73761749
_cell_angle_gamma   90.00000000
_symmetry_Int_Tables_number   1
_chemical_formula_structural   La(CoGe)2
_chemical_formula_sum   'La1 Co2 Ge2'
_cell_volume   84.49952351
_cell_formula_units_Z   1
loop_
 _symmetry_equiv_pos_site_id
 _symmetry_equiv_pos_as_xyz
  1  'x, y, z'
loop_
 _atom_site_type_symbol
 _atom_site_label
 _atom_site_symmetry_multiplicity
 _atom_site_fract_x
 _atom_site_fract_y
 _atom_site_fract_z
 _atom_site_occupancy
  La  La0  1  0.00000000  0.00000000  0.00000000  1
  Co  Co1  1  0.25000002  0.75000003  0.50000003  1
  Co  Co2  1  0.75000003  0.25000001  0.50000002  1
  Ge  Ge3  1  0.36832202  0.36832201  0.73664403  1
  Ge  Ge4  1  0.63167803  0.63167802  0.26335602  1
