# generated using pymatgen
data_Dy(Al2Mo)4
_symmetry_space_group_name_H-M   'P 1'
_cell_length_a   5.55445194
_cell_length_b   7.05837536
_cell_length_c   7.05837536
_cell_angle_alpha   81.40914154
_cell_angle_beta   66.82970428
_cell_angle_gamma   66.82970428
_symmetry_Int_Tables_number   1
_chemical_formula_structural   Dy(Al2Mo)4
_chemical_formula_sum   'Dy1 Al8 Mo4'
_cell_volume   233.88023386
_cell_formula_units_Z   1
loop_
 _symmetry_equiv_pos_site_id
 _symmetry_equiv_pos_as_xyz
  1  'x, y, z'
loop_
 _atom_site_type_symbol
 _atom_site_label
 _atom_site_symmetry_multiplicity
 _atom_site_fract_x
 _atom_site_fract_y
 _atom_site_fract_z
 _atom_site_occupancy
  Dy  Dy0  1  0.00000000  0.00000000  0.00000000  1
  Al  Al1  1  0.33706597  0.66293400  0.66293404  1
  Al  Al2  1  0.66293399  0.33706600  0.33706602  1
  Al  Al3  1  1.00000000  0.34255800  0.65744201  1
  Al  Al4  1  -0.00000003  0.65744200  0.34255804  1
  Al  Al5  1  0.49999997  0.81425300  0.18574705  1
  Al  Al6  1  0.50000000  0.18574700  0.81425300  1
  Al  Al7  1  0.99999999  0.50000000  0.00000003  1
  Al  Al8  1  0.49999998  0.50000000  1.00000002  1
  Mo  Mo9  1  0.00000000  0.00000000  0.50000000  1
  Mo  Mo10  1  0.50000001  0.00000000  0.49999999  1
  Mo  Mo11  1  0.26710799  0.23289200  0.23289201  1
  Mo  Mo12  1  0.73289197  0.76710800  0.76710804  1
