# generated using pymatgen
data_Y(Fe5Mo)2
_symmetry_space_group_name_H-M   'P 1'
_cell_length_a   4.68728590
_cell_length_b   6.53113413
_cell_length_c   6.53113413
_cell_angle_alpha   81.50563812
_cell_angle_beta   68.97092438
_cell_angle_gamma   68.97092438
_symmetry_Int_Tables_number   1
_chemical_formula_structural   Y(Fe5Mo)2
_chemical_formula_sum   'Y1 Fe10 Mo2'
_cell_volume   174.15265455
_cell_formula_units_Z   1
loop_
 _symmetry_equiv_pos_site_id
 _symmetry_equiv_pos_as_xyz
  1  'x, y, z'
loop_
 _atom_site_type_symbol
 _atom_site_label
 _atom_site_symmetry_multiplicity
 _atom_site_fract_x
 _atom_site_fract_y
 _atom_site_fract_z
 _atom_site_occupancy
  Y  Y0  1  0.00000000  0.00000000  0.00000000  1
  Fe  Fe1  1  0.50000002  0.77964000  0.22035997  1
  Fe  Fe2  1  0.50000001  0.22036000  0.77963999  1
  Fe  Fe3  1  0.73169903  0.76830100  0.76830097  1
  Fe  Fe4  1  0.26830101  0.23169900  0.23169899  1
  Fe  Fe5  1  0.00000000  0.00000000  0.50000000  1
  Fe  Fe6  1  0.50000001  0.00000000  0.50000000  1
  Fe  Fe7  1  0.50000002  0.50000000  -0.00000002  1
  Fe  Fe8  1  0.00000001  0.50000000  -0.00000002  1
  Fe  Fe9  1  1.00000003  0.35870700  0.64129298  1
  Fe  Fe10  1  1.00000003  0.64129300  0.35870697  1
  Mo  Mo11  1  0.64190802  0.35809200  0.35809198  1
  Mo  Mo12  1  0.35809202  0.64190800  0.64190797  1
