# generated using pymatgen
data_Al7Fe3
_symmetry_space_group_name_H-M   'P 1'
_cell_length_a   3.55226493
_cell_length_b   3.55226493
_cell_length_c   17.68818474
_cell_angle_alpha   90.00000000
_cell_angle_beta   90.00000000
_cell_angle_gamma   90.00000000
_symmetry_Int_Tables_number   1
_chemical_formula_structural   Al7Fe3
_chemical_formula_sum   'Al14 Fe6'
_cell_volume   223.19988250
_cell_formula_units_Z   2
loop_
 _symmetry_equiv_pos_site_id
 _symmetry_equiv_pos_as_xyz
  1  'x, y, z'
loop_
 _atom_site_type_symbol
 _atom_site_label
 _atom_site_symmetry_multiplicity
 _atom_site_fract_x
 _atom_site_fract_y
 _atom_site_fract_z
 _atom_site_occupancy
  Al  Al0  1  0.00000000  0.00000000  0.00000000  1
  Al  Al1  1  0.00000000  0.00000000  0.20122900  1
  Al  Al2  1  0.00000000  0.00000000  0.39941601  1
  Al  Al3  1  0.00000000  0.00000000  0.60058401  1
  Al  Al4  1  0.00000000  0.00000000  0.79877101  1
  Al  Al5  1  0.50000001  0.50000001  -0.00000000  1
  Al  Al6  1  0.50000001  0.50000001  0.20052600  1
  Al  Al7  1  0.50000001  0.50000001  0.39995001  1
  Fe  Fe8  1  0.50000001  0.50000001  0.60005001  1
  Al  Al9  1  0.50000001  0.50000001  0.79947401  1
  Al  Al10  1  0.50000001  0.00000000  0.10122500  1
  Al  Al11  1  0.50000001  0.00000000  0.29986900  1
  Fe  Fe12  1  0.50000001  0.00000000  0.50000001  1
  Fe  Fe13  1  0.50000001  0.00000000  0.70013101  1
  Al  Al14  1  0.50000001  0.00000000  0.89877501  1
  Al  Al15  1  -0.00000000  0.50000001  0.10122500  1
  Fe  Fe16  1  -0.00000000  0.50000001  0.29986900  1
  Fe  Fe17  1  -0.00000000  0.50000001  0.50000001  1
  Fe  Fe18  1  -0.00000000  0.50000001  0.70013101  1
  Al  Al19  1  -0.00000000  0.50000001  0.89877501  1
