# generated using pymatgen
data_Dy3Tl5
_symmetry_space_group_name_H-M   'P 1'
_cell_length_a   6.54813099
_cell_length_b   6.54813099
_cell_length_c   10.49524117
_cell_angle_alpha   90.00000000
_cell_angle_beta   90.00000000
_cell_angle_gamma   102.66236115
_symmetry_Int_Tables_number   1
_chemical_formula_structural   Dy3Tl5
_chemical_formula_sum   'Dy6 Tl10'
_cell_volume   439.07022609
_cell_formula_units_Z   2
loop_
 _symmetry_equiv_pos_site_id
 _symmetry_equiv_pos_as_xyz
  1  'x, y, z'
loop_
 _atom_site_type_symbol
 _atom_site_label
 _atom_site_symmetry_multiplicity
 _atom_site_fract_x
 _atom_site_fract_y
 _atom_site_fract_z
 _atom_site_occupancy
  Dy  Dy0  1  0.62671896  0.62671900  0.74999999  1
  Dy  Dy1  1  0.37328098  0.37328100  0.25000000  1
  Dy  Dy2  1  0.79643199  0.20356800  0.49999999  1
  Dy  Dy3  1  0.79643199  0.20356800  -0.00000000  1
  Dy  Dy4  1  0.20356795  0.79643199  0.49999999  1
  Dy  Dy5  1  0.20356795  0.79643199  0.99999998  1
  Tl  Tl6  1  0.01724600  0.01724600  0.74999999  1
  Tl  Tl7  1  0.98275394  0.98275399  0.25000000  1
  Tl  Tl8  1  0.31429698  0.31429700  0.95433798  1
  Tl  Tl9  1  0.68570296  0.68570299  0.04566200  1
  Tl  Tl10  1  0.31429698  0.31429700  0.54566199  1
  Tl  Tl11  1  0.68570296  0.68570299  0.45433799  1
  Tl  Tl12  1  0.06668697  0.50243600  0.74999999  1
  Tl  Tl13  1  0.49756394  0.93331299  0.25000000  1
  Tl  Tl14  1  0.93331297  0.49756400  0.25000000  1
  Tl  Tl15  1  0.50243600  0.06668700  0.74999999  1
