# generated using pymatgen
data_Sc3MnCoSi3Ru4
_symmetry_space_group_name_H-M   'P 1'
_cell_length_a   4.01019192
_cell_length_b   6.43904209
_cell_length_c   6.95292091
_cell_angle_alpha   90.00000000
_cell_angle_beta   90.00000000
_cell_angle_gamma   90.00000000
_symmetry_Int_Tables_number   1
_chemical_formula_structural   Sc3MnCoSi3Ru4
_chemical_formula_sum   'Sc3 Mn1 Co1 Si3 Ru4'
_cell_volume   179.53689536
_cell_formula_units_Z   1
loop_
 _symmetry_equiv_pos_site_id
 _symmetry_equiv_pos_as_xyz
  1  'x, y, z'
loop_
 _atom_site_type_symbol
 _atom_site_label
 _atom_site_symmetry_multiplicity
 _atom_site_fract_x
 _atom_site_fract_y
 _atom_site_fract_z
 _atom_site_occupancy
  Sc  Sc0  1  0.75000002  0.00756900  0.20152400  1
  Sc  Sc1  1  0.25000001  0.99243099  0.79847601  1
  Sc  Sc2  1  0.75000002  0.50756899  0.29847600  1
  Mn  Mn3  1  0.25000001  0.49243099  0.70152401  1
  Co  Co4  1  0.25000001  0.29984200  0.09580000  1
  Si  Si5  1  0.75000002  0.70015799  0.90420001  1
  Si  Si6  1  0.25000001  0.79984199  0.40420001  1
  Ru  Ru7  1  0.75000002  0.20015800  0.59580001  1
  Ru  Ru8  1  0.25000001  0.68139599  0.07723800  1
  Si  Si9  1  0.75000002  0.31860400  0.92276201  1
  Ru  Ru10  1  0.25000001  0.18139600  0.42276201  1
  Ru  Ru11  1  0.75000002  0.81860399  0.57723801  1
