# generated using pymatgen
data_Li3MnF6
_symmetry_space_group_name_H-M   'P 1'
_cell_length_a   3.99799800
_cell_length_b   6.46731377
_cell_length_c   9.91315079
_cell_angle_alpha   90.00000000
_cell_angle_beta   90.00000000
_cell_angle_gamma   90.00000000
_symmetry_Int_Tables_number   1
_chemical_formula_structural   Li3MnF6
_chemical_formula_sum   'Li6 Mn2 F12'
_cell_volume   256.31747504
_cell_formula_units_Z   2
loop_
 _symmetry_equiv_pos_site_id
 _symmetry_equiv_pos_as_xyz
  1  'x, y, z'
loop_
 _atom_site_type_symbol
 _atom_site_label
 _atom_site_symmetry_multiplicity
 _atom_site_fract_x
 _atom_site_fract_y
 _atom_site_fract_z
 _atom_site_occupancy
  Li  Li0  1  0.75000000  0.22054701  0.44154901  1
  Li  Li1  1  0.75000000  0.72054703  0.05845100  1
  Li  Li2  1  0.25000000  0.27945301  0.94154902  1
  Li  Li3  1  0.25000000  0.77945303  0.55845101  1
  Li  Li4  1  0.75000000  0.07464600  0.75803902  1
  Li  Li5  1  0.75000000  0.57464602  0.74196102  1
  Mn  Mn6  1  0.25000000  0.42535402  0.25803901  1
  Mn  Mn7  1  0.25000000  0.92535403  0.24196101  1
  F  F8  1  0.75000000  0.34510601  0.89606102  1
  F  F9  1  0.75000000  0.84510603  0.60393901  1
  F  F10  1  0.75000000  0.31309101  0.61818901  1
  F  F11  1  0.75000000  0.40246701  0.28526601  1
  F  F12  1  0.75000000  0.81309103  0.88181102  1
  F  F13  1  0.75000000  0.90246703  0.21473400  1
  F  F14  1  0.25000000  0.09753300  0.78526602  1
  F  F15  1  0.25000000  0.18690901  0.11818900  1
  F  F16  1  0.25000000  0.59753302  0.71473402  1
  F  F17  1  0.25000000  0.68690902  0.38181101  1
  F  F18  1  0.25000000  0.15489401  0.39606101  1
  F  F19  1  0.25000000  0.65489402  0.10393900  1
