# generated using pymatgen
data_La2Mn2Rh7
_symmetry_space_group_name_H-M   'P 1'
_cell_length_a   4.29628515
_cell_length_b   5.44329596
_cell_length_c   9.16968346
_cell_angle_alpha   107.26606750
_cell_angle_beta   90.00000000
_cell_angle_gamma   90.00000000
_symmetry_Int_Tables_number   1
_chemical_formula_structural   La2Mn2Rh7
_chemical_formula_sum   'La2 Mn2 Rh7'
_cell_volume   204.77832967
_cell_formula_units_Z   1
loop_
 _symmetry_equiv_pos_site_id
 _symmetry_equiv_pos_as_xyz
  1  'x, y, z'
loop_
 _atom_site_type_symbol
 _atom_site_label
 _atom_site_symmetry_multiplicity
 _atom_site_fract_x
 _atom_site_fract_y
 _atom_site_fract_z
 _atom_site_occupancy
  La  La0  1  0.49999998  0.38291001  0.75362403  1
  La  La1  1  0.49999998  0.62928601  0.24637601  1
  Mn  Mn2  1  0.99999996  0.77375101  0.00000001  1
  Mn  Mn3  1  0.00000000  0.89007401  0.78014903  1
  Rh  Rh4  1  0.99999996  0.10992500  0.21985101  1
  Rh  Rh5  1  0.00000000  0.50916301  0.49508102  1
  Rh  Rh6  1  -0.00000000  0.01408200  0.50491902  1
  Rh  Rh7  1  0.49999998  0.80563401  0.59754203  1
  Rh  Rh8  1  0.49999998  0.20809200  0.40245801  1
  Rh  Rh9  1  0.49999998  0.99920401  0.00000001  1
  Rh  Rh10  1  0.00000000  0.36428000  0.00000000  1
