# generated using pymatgen
data_Ce(GeIr)2
_symmetry_space_group_name_H-M   'P 1'
_cell_length_a   4.26877022
_cell_length_b   4.26877022
_cell_length_c   6.11124420
_cell_angle_alpha   110.44178009
_cell_angle_beta   110.44178009
_cell_angle_gamma   90.00000000
_symmetry_Int_Tables_number   1
_chemical_formula_structural   Ce(GeIr)2
_chemical_formula_sum   'Ce1 Ge2 Ir2'
_cell_volume   96.82955921
_cell_formula_units_Z   1
loop_
 _symmetry_equiv_pos_site_id
 _symmetry_equiv_pos_as_xyz
  1  'x, y, z'
loop_
 _atom_site_type_symbol
 _atom_site_label
 _atom_site_symmetry_multiplicity
 _atom_site_fract_x
 _atom_site_fract_y
 _atom_site_fract_z
 _atom_site_occupancy
  Ce  Ce0  1  0.00000000  0.00000000  0.00000000  1
  Ge  Ge1  1  0.61908100  0.61908098  0.23816205  1
  Ge  Ge2  1  0.38091900  0.38091899  0.76183805  1
  Ir  Ir3  1  0.74999998  0.24999999  0.50000005  1
  Ir  Ir4  1  0.25000002  0.74999998  0.50000005  1
