# generated using pymatgen
data_NaV3O8
_symmetry_space_group_name_H-M   'P 1'
_cell_length_a   5.11124229
_cell_length_b   5.11124229
_cell_length_c   7.99141312
_cell_angle_alpha   87.29788208
_cell_angle_beta   87.29788208
_cell_angle_gamma   65.22770691
_symmetry_Int_Tables_number   1
_chemical_formula_structural   NaV3O8
_chemical_formula_sum   'Na1 V3 O8'
_cell_volume   189.26557601
_cell_formula_units_Z   1
loop_
 _symmetry_equiv_pos_site_id
 _symmetry_equiv_pos_as_xyz
  1  'x, y, z'
loop_
 _atom_site_type_symbol
 _atom_site_label
 _atom_site_symmetry_multiplicity
 _atom_site_fract_x
 _atom_site_fract_y
 _atom_site_fract_z
 _atom_site_occupancy
  Na  Na0  1  0.00000000  0.00000000  0.50000001  1
  V  V1  1  0.00000000  0.00000000  0.00000000  1
  V  V2  1  0.63600596  0.63600598  0.20280697  1
  V  V3  1  0.36399398  0.36399399  0.79719300  1
  O  O4  1  0.69362795  0.69362798  0.40173297  1
  O  O5  1  0.30637198  0.30637199  0.59826699  1
  O  O6  1  0.77342496  0.26668599  0.17985297  1
  O  O7  1  0.22657497  0.73331397  0.82014699  1
  O  O8  1  0.73331396  0.22657499  0.82014699  1
  O  O9  1  0.26668597  0.77342497  0.17985297  1
  O  O10  1  0.77956695  0.77956697  0.04592595  1
  O  O11  1  0.22043299  0.22043299  0.95407401  1
