# generated using pymatgen
data_Fe2Te5
_symmetry_space_group_name_H-M   'P 1'
_cell_length_a   3.59224010
_cell_length_b   6.17075062
_cell_length_c   6.91517687
_cell_angle_alpha   116.25667572
_cell_angle_beta   105.05439758
_cell_angle_gamma   90.00000000
_symmetry_Int_Tables_number   1
_chemical_formula_structural   Fe2Te5
_chemical_formula_sum   'Fe2 Te5'
_cell_volume   131.57972143
_cell_formula_units_Z   1
loop_
 _symmetry_equiv_pos_site_id
 _symmetry_equiv_pos_as_xyz
  1  'x, y, z'
loop_
 _atom_site_type_symbol
 _atom_site_label
 _atom_site_symmetry_multiplicity
 _atom_site_fract_x
 _atom_site_fract_y
 _atom_site_fract_z
 _atom_site_occupancy
  Fe  Fe0  1  0.74772402  0.73943002  0.49544803  1
  Fe  Fe1  1  0.25227601  0.26057001  0.50455202  1
  Te  Te2  1  0.00000000  0.00000000  0.00000000  1
  Te  Te3  1  0.62034703  0.95400803  0.24069401  1
  Te  Te4  1  0.37965300  0.04599200  0.75930604  1
  Te  Te5  1  0.88252101  0.54782302  0.76504205  1
  Te  Te6  1  0.11747902  0.45217701  0.23495801  1
