# generated using pymatgen
data_Zr2AgS4
_symmetry_space_group_name_H-M   'P 1'
_cell_length_a   3.38093591
_cell_length_b   3.38093567
_cell_length_c   14.00883961
_cell_angle_alpha   90.00000000
_cell_angle_beta   90.00000000
_cell_angle_gamma   120.00000763
_symmetry_Int_Tables_number   1
_chemical_formula_structural   Zr2AgS4
_chemical_formula_sum   'Zr2 Ag1 S4'
_cell_volume   138.67769240
_cell_formula_units_Z   1
loop_
 _symmetry_equiv_pos_site_id
 _symmetry_equiv_pos_as_xyz
  1  'x, y, z'
loop_
 _atom_site_type_symbol
 _atom_site_label
 _atom_site_symmetry_multiplicity
 _atom_site_fract_x
 _atom_site_fract_y
 _atom_site_fract_z
 _atom_site_occupancy
  Zr  Zr0  1  0.00000000  0.00000000  0.75726002  1
  Zr  Zr1  1  0.00000000  0.00000000  0.24274001  1
  Ag  Ag2  1  0.00000000  0.00000000  0.50000001  1
  S  S3  1  0.33333339  0.66666668  0.64472802  1
  S  S4  1  0.66666671  0.33333334  0.35527201  1
  S  S5  1  0.66666671  0.33333334  0.13479200  1
  S  S6  1  0.33333339  0.66666668  0.86520802  1
