# generated using pymatgen
data_Na2TaTi3F14
_symmetry_space_group_name_H-M   'P 1'
_cell_length_a   5.62177420
_cell_length_b   5.65695381
_cell_length_c   7.95643187
_cell_angle_alpha   90.00000000
_cell_angle_beta   90.00000000
_cell_angle_gamma   90.00000000
_symmetry_Int_Tables_number   1
_chemical_formula_structural   Na2TaTi3F14
_chemical_formula_sum   'Na2 Ta1 Ti3 F14'
_cell_volume   253.03137686
_cell_formula_units_Z   1
loop_
 _symmetry_equiv_pos_site_id
 _symmetry_equiv_pos_as_xyz
  1  'x, y, z'
loop_
 _atom_site_type_symbol
 _atom_site_label
 _atom_site_symmetry_multiplicity
 _atom_site_fract_x
 _atom_site_fract_y
 _atom_site_fract_z
 _atom_site_occupancy
  Na  Na0  1  0.49551398  0.00233700  0.75000001  1
  Na  Na1  1  0.99551397  0.49766302  0.75000001  1
  Ti  Ti2  1  0.50448598  0.99766303  0.25000000  1
  Ti  Ti3  1  0.00448600  0.50233702  0.25000000  1
  Ta  Ta4  1  0.49999998  0.50000002  0.50000001  1
  Ti  Ti5  1  0.00000000  0.00000000  0.00000000  1
  F  F6  1  0.49999998  0.50000002  0.00000000  1
  F  F7  1  0.00000000  0.00000000  0.50000001  1
  F  F8  1  0.00230600  0.95267003  0.75000001  1
  F  F9  1  0.50230598  0.54733002  0.75000001  1
  F  F10  1  0.99769397  0.04733000  0.25000000  1
  F  F11  1  0.49769398  0.45267002  0.25000000  1
  F  F12  1  0.74057997  0.23958901  0.52498701  1
  F  F13  1  0.24057999  0.26041101  0.97501302  1
  F  F14  1  0.25941999  0.76041103  0.02498700  1
  F  F15  1  0.75941997  0.73958902  0.47501301  1
  F  F16  1  0.25941999  0.76041103  0.47501301  1
  F  F17  1  0.75941997  0.73958902  0.02498700  1
  F  F18  1  0.74057997  0.23958901  0.97501302  1
  F  F19  1  0.24057999  0.26041101  0.52498701  1
