# generated using pymatgen
data_ScCo2
_symmetry_space_group_name_H-M   'P 1'
_cell_length_a   5.11543798
_cell_length_b   5.11543798
_cell_length_c   8.35932446
_cell_angle_alpha   90.00000000
_cell_angle_beta   90.00000000
_cell_angle_gamma   120.00000000
_symmetry_Int_Tables_number   1
_chemical_formula_structural   ScCo2
_chemical_formula_sum   'Sc4 Co8'
_cell_volume   189.43815780
_cell_formula_units_Z   4
loop_
 _symmetry_equiv_pos_site_id
 _symmetry_equiv_pos_as_xyz
  1  'x, y, z'
loop_
 _atom_site_type_symbol
 _atom_site_label
 _atom_site_symmetry_multiplicity
 _atom_site_fract_x
 _atom_site_fract_y
 _atom_site_fract_z
 _atom_site_occupancy
  Sc  Sc0  1  0.00000000  0.00000000  0.00000000  1
  Sc  Sc1  1  0.00000000  0.00000000  0.49999997  1
  Sc  Sc2  1  0.82983400  0.17016599  0.24999999  1
  Sc  Sc3  1  0.17016599  0.34033198  0.74999996  1
  Co  Co4  1  0.65966798  0.82983395  0.74999996  1
  Co  Co5  1  0.34033200  0.17016599  0.24999999  1
  Co  Co6  1  0.82983398  0.65966796  0.24999999  1
  Co  Co7  1  0.17016598  0.82983395  0.74999996  1
  Co  Co8  1  0.66666666  0.33333332  0.93826195  1
  Co  Co9  1  0.33333332  0.66666663  0.43826198  1
  Co  Co10  1  0.33333332  0.66666663  0.06173800  1
  Co  Co11  1  0.66666666  0.33333332  0.56173797  1
