# generated using pymatgen
data_Li2Cu
_symmetry_space_group_name_H-M   'P 1'
_cell_length_a   4.34335899
_cell_length_b   4.34335899
_cell_length_c   13.83968258
_cell_angle_alpha   90.00000000
_cell_angle_beta   90.00000000
_cell_angle_gamma   119.96614075
_symmetry_Int_Tables_number   1
_chemical_formula_structural   Li2Cu
_chemical_formula_sum   'Li8 Cu4'
_cell_volume   226.18108850
_cell_formula_units_Z   4
loop_
 _symmetry_equiv_pos_site_id
 _symmetry_equiv_pos_as_xyz
  1  'x, y, z'
loop_
 _atom_site_type_symbol
 _atom_site_label
 _atom_site_symmetry_multiplicity
 _atom_site_fract_x
 _atom_site_fract_y
 _atom_site_fract_z
 _atom_site_occupancy
  Li  Li0  1  0.00004100  0.00004100  0.74236402  1
  Li  Li1  1  0.00003900  0.00003900  0.50000002  1
  Li  Li2  1  0.00004100  0.00004100  0.25763601  1
  Li  Li3  1  0.00003200  0.00003200  0.00000000  1
  Li  Li4  1  0.66759901  0.33246501  0.85665203  1
  Li  Li5  1  0.66649601  0.33356301  0.62623702  1
  Li  Li6  1  0.66649601  0.33356301  0.37376301  1
  Li  Li7  1  0.66759901  0.33246501  0.14334800  1
  Cu  Cu8  1  0.33246497  0.66759901  0.85665203  1
  Cu  Cu9  1  0.33356297  0.66649601  0.62623702  1
  Cu  Cu10  1  0.33356297  0.66649601  0.37376301  1
  Cu  Cu11  1  0.33246497  0.66759901  0.14334800  1
