# generated using pymatgen
data_Ce4Co4Si7
_symmetry_space_group_name_H-M   'P 1'
_cell_length_a   4.19941378
_cell_length_b   4.25582695
_cell_length_c   16.60968781
_cell_angle_alpha   90.00000000
_cell_angle_beta   90.00000000
_cell_angle_gamma   90.00000000
_symmetry_Int_Tables_number   1
_chemical_formula_structural   Ce4Co4Si7
_chemical_formula_sum   'Ce4 Co4 Si7'
_cell_volume   296.84798042
_cell_formula_units_Z   1
loop_
 _symmetry_equiv_pos_site_id
 _symmetry_equiv_pos_as_xyz
  1  'x, y, z'
loop_
 _atom_site_type_symbol
 _atom_site_label
 _atom_site_symmetry_multiplicity
 _atom_site_fract_x
 _atom_site_fract_y
 _atom_site_fract_z
 _atom_site_occupancy
  Ce  Ce0  1  0.00000000  0.00000000  0.10455400  1
  Ce  Ce1  1  -0.00000000  0.50000001  0.60674501  1
  Ce  Ce2  1  0.50000003  0.50000001  0.39045300  1
  Ce  Ce3  1  0.50000003  0.00000000  0.89286201  1
  Co  Co4  1  -0.00000000  0.50000001  0.81761301  1
  Co  Co5  1  0.50000003  0.50000001  0.18670600  1
  Co  Co6  1  0.50000003  0.00000000  0.68345601  1
  Co  Co7  1  -0.00000000  0.50000001  0.25174900  1
  Si  Si8  1  0.00000000  0.00000000  0.75025201  1
  Si  Si9  1  0.50000003  0.00000000  0.25237100  1
  Si  Si10  1  0.50000003  0.50000001  0.74965501  1
  Si  Si11  1  0.00000000  0.00000000  0.45120501  1
  Si  Si12  1  -0.00000000  0.50000001  0.95512601  1
  Si  Si13  1  0.50000003  0.50000001  0.04666400  1
  Si  Si14  1  0.50000003  0.00000000  0.54508801  1
