# generated using pymatgen
data_HoCoRu
_symmetry_space_group_name_H-M   'P 1'
_cell_length_a   5.08819580
_cell_length_b   5.15190983
_cell_length_c   5.15190983
_cell_angle_alpha   62.52185440
_cell_angle_beta   60.40826416
_cell_angle_gamma   60.40826416
_symmetry_Int_Tables_number   1
_chemical_formula_structural   HoCoRu
_chemical_formula_sum   'Ho2 Co2 Ru2'
_cell_volume   97.80074108
_cell_formula_units_Z   2
loop_
 _symmetry_equiv_pos_site_id
 _symmetry_equiv_pos_as_xyz
  1  'x, y, z'
loop_
 _atom_site_type_symbol
 _atom_site_label
 _atom_site_symmetry_multiplicity
 _atom_site_fract_x
 _atom_site_fract_y
 _atom_site_fract_z
 _atom_site_occupancy
  Ho  Ho0  1  0.12235801  0.12764200  0.62764202  1
  Ho  Ho1  1  0.87764204  0.87235800  0.37235805  1
  Co  Co2  1  0.00000001  0.50000000  1.00000002  1
  Co  Co3  1  0.50000002  0.50000000  1.00000004  1
  Ru  Ru4  1  0.50000002  0.50000000  0.50000003  1
  Ru  Ru5  1  0.50000003  1.00000000  1.00000005  1
