# generated using pymatgen
data_LiMg
_symmetry_space_group_name_H-M   'P 1'
_cell_length_a   3.09021211
_cell_length_b   4.77616978
_cell_length_c   7.63283682
_cell_angle_alpha   90.00000000
_cell_angle_beta   101.67902374
_cell_angle_gamma   90.00000000
_symmetry_Int_Tables_number   1
_chemical_formula_structural   LiMg
_chemical_formula_sum   'Li3 Mg3'
_cell_volume   110.32360422
_cell_formula_units_Z   3
loop_
 _symmetry_equiv_pos_site_id
 _symmetry_equiv_pos_as_xyz
  1  'x, y, z'
loop_
 _atom_site_type_symbol
 _atom_site_label
 _atom_site_symmetry_multiplicity
 _atom_site_fract_x
 _atom_site_fract_y
 _atom_site_fract_z
 _atom_site_occupancy
  Li  Li0  1  0.60786098  0.25000001  0.21572199  1
  Li  Li1  1  0.39213898  0.75000004  0.78427799  1
  Li  Li2  1  0.27468299  0.25000001  0.54936599  1
  Mg  Mg3  1  0.94256196  0.25000001  0.88512398  1
  Mg  Mg4  1  0.72531697  0.75000004  0.45063399  1
  Mg  Mg5  1  0.05743800  0.75000004  0.11487600  1
