# generated using pymatgen
data_CsRbVS3O8
_symmetry_space_group_name_H-M   'P 1'
_cell_length_a   6.10417986
_cell_length_b   6.10417986
_cell_length_c   8.35938358
_cell_angle_alpha   71.84193420
_cell_angle_beta   71.84193420
_cell_angle_gamma   61.46409225
_symmetry_Int_Tables_number   1
_chemical_formula_structural   CsRbVS3O8
_chemical_formula_sum   'Cs1 Rb1 V1 S3 O8'
_cell_volume   255.02221872
_cell_formula_units_Z   1
loop_
 _symmetry_equiv_pos_site_id
 _symmetry_equiv_pos_as_xyz
  1  'x, y, z'
loop_
 _atom_site_type_symbol
 _atom_site_label
 _atom_site_symmetry_multiplicity
 _atom_site_fract_x
 _atom_site_fract_y
 _atom_site_fract_z
 _atom_site_occupancy
  Cs  Cs0  1  0.00000000  0.00000000  0.00000000  1
  Rb  Rb1  1  0.20013000  0.20013000  0.39202397  1
  V  V2  1  0.79987000  0.79987001  0.60797593  1
  S  S3  1  0.50000000  0.50000001  -0.00000003  1
  S  S4  1  0.42283100  0.42283101  0.76496694  1
  S  S5  1  0.57716900  0.57716901  0.23503296  1
  O  O6  1  0.72415800  0.72415801  0.26714295  1
  O  O7  1  0.26439300  0.70821301  0.30873596  1
  O  O8  1  0.70821301  0.26439300  0.30873596  1
  O  O9  1  0.27584200  0.27584200  0.73285695  1
  O  O10  1  0.73560701  0.29178700  0.69126394  1
  O  O11  1  0.29178700  0.73560701  0.69126394  1
  O  O12  1  0.38763600  0.38763600  0.98505793  1
  O  O13  1  0.61236400  0.61236401  0.01494197  1
