# generated using pymatgen
data_Li2V2O3
_symmetry_space_group_name_H-M   'P 1'
_cell_length_a   4.33643818
_cell_length_b   6.13336325
_cell_length_c   6.31737328
_cell_angle_alpha   101.09276581
_cell_angle_beta   90.00000000
_cell_angle_gamma   90.00000000
_symmetry_Int_Tables_number   1
_chemical_formula_structural   Li2V2O3
_chemical_formula_sum   'Li4 V4 O6'
_cell_volume   164.88368740
_cell_formula_units_Z   2
loop_
 _symmetry_equiv_pos_site_id
 _symmetry_equiv_pos_as_xyz
  1  'x, y, z'
loop_
 _atom_site_type_symbol
 _atom_site_label
 _atom_site_symmetry_multiplicity
 _atom_site_fract_x
 _atom_site_fract_y
 _atom_site_fract_z
 _atom_site_occupancy
  Li  Li0  1  0.74999997  0.60462999  0.86671594  1
  Li  Li1  1  0.74999997  0.09465400  0.88503097  1
  Li  Li2  1  0.74999997  0.18878400  0.37100098  1
  Li  Li3  1  0.24999999  0.39536999  0.13328397  1
  V  V4  1  0.24999999  0.90534598  0.11496894  1
  V  V5  1  0.24999999  0.81121598  0.62899894  1
  V  V6  1  0.24999999  0.30195899  0.68210296  1
  V  V7  1  0.74999997  0.69804099  0.31789695  1
  O  O8  1  0.24999999  0.57977899  0.85056494  1
  O  O9  1  0.24999999  0.11137100  0.87094797  1
  O  O10  1  0.24999999  0.19334400  0.39912798  1
  O  O11  1  0.74999997  0.42022099  0.14943497  1
  O  O12  1  0.74999997  0.88862898  0.12905195  1
  O  O13  1  0.74999997  0.80665598  0.60087194  1
