# generated using pymatgen
data_InCu3Te4
_symmetry_space_group_name_H-M   'P 1'
_cell_length_a   6.40846205
_cell_length_b   6.40846205
_cell_length_c   7.52258778
_cell_angle_alpha   115.21067810
_cell_angle_beta   115.21067810
_cell_angle_gamma   90.00000000
_symmetry_Int_Tables_number   1
_chemical_formula_structural   InCu3Te4
_chemical_formula_sum   'In1 Cu3 Te4'
_cell_volume   246.59895072
_cell_formula_units_Z   1
loop_
 _symmetry_equiv_pos_site_id
 _symmetry_equiv_pos_as_xyz
  1  'x, y, z'
loop_
 _atom_site_type_symbol
 _atom_site_label
 _atom_site_symmetry_multiplicity
 _atom_site_fract_x
 _atom_site_fract_y
 _atom_site_fract_z
 _atom_site_occupancy
  In  In0  1  0.49999995  0.49999998  -0.00000006  1
  Cu  Cu1  1  0.24999995  0.74999997  0.49999995  1
  Cu  Cu2  1  0.00000000  0.00000000  0.00000000  1
  Cu  Cu3  1  0.74999996  0.24999999  0.49999996  1
  Te  Te4  1  0.63969097  0.12499999  0.74999998  1
  Te  Te5  1  0.37499997  0.36030898  0.24999996  1
  Te  Te6  1  0.87499992  0.88969096  0.24999990  1
  Te  Te7  1  0.11030896  0.62499997  0.74999997  1
