# generated using pymatgen
data_La2ScSi2
_symmetry_space_group_name_H-M   'P 1'
_cell_length_a   4.36167908
_cell_length_b   7.59632683
_cell_length_c   7.59632683
_cell_angle_alpha   90.00000000
_cell_angle_beta   90.00000000
_cell_angle_gamma   90.00000000
_symmetry_Int_Tables_number   1
_chemical_formula_structural   La2ScSi2
_chemical_formula_sum   'La4 Sc2 Si4'
_cell_volume   251.68712014
_cell_formula_units_Z   2
loop_
 _symmetry_equiv_pos_site_id
 _symmetry_equiv_pos_as_xyz
  1  'x, y, z'
loop_
 _atom_site_type_symbol
 _atom_site_label
 _atom_site_symmetry_multiplicity
 _atom_site_fract_x
 _atom_site_fract_y
 _atom_site_fract_z
 _atom_site_occupancy
  La  La0  1  0.49999999  0.32055301  0.82055302  1
  La  La1  1  0.49999999  0.82055302  0.67944702  1
  La  La2  1  0.49999999  0.17944700  0.32055301  1
  La  La3  1  0.49999999  0.67944702  0.17944700  1
  Sc  Sc4  1  0.00000000  0.00000000  0.00000000  1
  Sc  Sc5  1  -0.00000000  0.50000001  0.50000001  1
  Si  Si6  1  0.99999998  0.38088101  0.11911900  1
  Si  Si7  1  0.99999998  0.88088102  0.38088101  1
  Si  Si8  1  0.00000000  0.11911900  0.61911901  1
  Si  Si9  1  0.00000000  0.61911901  0.88088102  1
