# generated using pymatgen
data_Sr4Fe(WO4)3
_symmetry_space_group_name_H-M   'P 1'
_cell_length_a   5.61032438
_cell_length_b   5.61051035
_cell_length_c   8.18742371
_cell_angle_alpha   90.02423859
_cell_angle_beta   89.97422791
_cell_angle_gamma   89.99929810
_symmetry_Int_Tables_number   1
_chemical_formula_structural   Sr4Fe(WO4)3
_chemical_formula_sum   'Sr4 Fe1 W3 O12'
_cell_volume   257.71371027
_cell_formula_units_Z   1
loop_
 _symmetry_equiv_pos_site_id
 _symmetry_equiv_pos_as_xyz
  1  'x, y, z'
loop_
 _atom_site_type_symbol
 _atom_site_label
 _atom_site_symmetry_multiplicity
 _atom_site_fract_x
 _atom_site_fract_y
 _atom_site_fract_z
 _atom_site_occupancy
  Sr  Sr0  1  0.99954796  0.50006498  0.75001695  1
  Sr  Sr1  1  0.50000298  0.99976996  0.24999199  1
  Sr  Sr2  1  0.50002998  0.00022500  0.75001496  1
  Sr  Sr3  1  0.00042700  0.49994098  0.24998900  1
  Fe  Fe4  1  0.99995196  0.00000000  0.99995493  1
  W  W5  1  0.50003998  0.50000398  0.50001997  1
  W  W6  1  0.00003700  0.00000800  0.49993498  1
  W  W7  1  0.49994798  0.49999598  0.00007900  1
  O  O8  1  0.99997696  0.00008300  0.75581994  1
  O  O9  1  0.50012098  0.49986298  0.25622298  1
  O  O10  1  0.49985398  0.50012898  0.74385996  1
  O  O11  1  0.00005900  0.99992596  0.24407801  1
  O  O12  1  0.29089399  0.78917397  0.49996399  1
  O  O13  1  0.79102897  0.28908499  0.00010098  1
  O  O14  1  0.20892399  0.71092397  0.99996697  1
  O  O15  1  0.70914897  0.21081999  0.49997696  1
  O  O16  1  0.28906999  0.20896099  0.00005200  1
  O  O17  1  0.78920297  0.70914297  0.49998297  1
  O  O18  1  0.21083499  0.29086899  0.49995798  1
  O  O19  1  0.71090197  0.79101497  0.00001699  1
