# generated using pymatgen
data_K5Ag2F11
_symmetry_space_group_name_H-M   'P 1'
_cell_length_a   6.78388977
_cell_length_b   6.78389072
_cell_length_c   10.39857101
_cell_angle_alpha   90.00000000
_cell_angle_beta   90.00000000
_cell_angle_gamma   119.99999237
_symmetry_Int_Tables_number   1
_chemical_formula_structural   K5Ag2F11
_chemical_formula_sum   'K5 Ag2 F11'
_cell_volume   414.44027515
_cell_formula_units_Z   1
loop_
 _symmetry_equiv_pos_site_id
 _symmetry_equiv_pos_as_xyz
  1  'x, y, z'
loop_
 _atom_site_type_symbol
 _atom_site_label
 _atom_site_symmetry_multiplicity
 _atom_site_fract_x
 _atom_site_fract_y
 _atom_site_fract_z
 _atom_site_occupancy
  K  K0  1  0.00000000  0.00000000  0.83333300  1
  K  K1  1  0.00000000  0.00000000  0.16666700  1
  K  K2  1  0.00000000  0.00000000  0.50000000  1
  K  K3  1  0.49999994  0.99999997  0.99599800  1
  K  K4  1  -0.00000004  0.49999999  0.66266500  1
  Ag  Ag5  1  0.49999998  0.49999999  0.32933200  1
  Ag  Ag6  1  -0.00000004  0.49999999  0.00400200  1
  F  F7  1  0.49999994  0.99999997  0.33733500  1
  F  F8  1  0.49999998  0.49999999  0.67066800  1
  F  F9  1  0.49999998  0.49999999  -0.00000000  1
  F  F10  1  0.49999994  0.99999997  0.66666667  1
  F  F11  1  -0.00000004  0.49999999  0.33333333  1
  F  F12  1  0.14783494  0.85216498  -0.00000000  1
  F  F13  1  0.85216498  0.70432998  0.66666667  1
  F  F14  1  0.29567000  0.14783500  0.33333333  1
  F  F15  1  0.70432996  0.85216498  0.33333333  1
  F  F16  1  0.85216502  0.14783500  -0.00000000  1
  F  F17  1  0.14783498  0.29566999  0.66666667  1
