# generated using pymatgen
data_Nd2Co9Ru
_symmetry_space_group_name_H-M   'P 1'
_cell_length_a   5.48061800
_cell_length_b   5.48061752
_cell_length_c   7.73031092
_cell_angle_alpha   90.00000000
_cell_angle_beta   90.00000000
_cell_angle_gamma   120.00000000
_symmetry_Int_Tables_number   1
_chemical_formula_structural   Nd2Co9Ru
_chemical_formula_sum   'Nd2 Co9 Ru1'
_cell_volume   201.08821600
_cell_formula_units_Z   1
loop_
 _symmetry_equiv_pos_site_id
 _symmetry_equiv_pos_as_xyz
  1  'x, y, z'
loop_
 _atom_site_type_symbol
 _atom_site_label
 _atom_site_symmetry_multiplicity
 _atom_site_fract_x
 _atom_site_fract_y
 _atom_site_fract_z
 _atom_site_occupancy
  Nd  Nd0  1  0.00000000  0.00000000  0.50000001  1
  Nd  Nd1  1  0.00000000  0.00000000  0.00000000  1
  Co  Co2  1  0.33333330  0.66666667  0.50000001  1
  Co  Co3  1  0.66666665  0.33333333  0.50000001  1
  Co  Co4  1  0.33333330  0.66666667  -0.00000000  1
  Co  Co5  1  0.50000000  0.00000000  0.69992401  1
  Co  Co6  1  0.49999998  0.50000000  0.69992401  1
  Co  Co7  1  0.49999998  0.50000000  0.30007600  1
  Co  Co8  1  0.50000000  0.00000000  0.30007600  1
  Co  Co9  1  0.99999998  0.50000000  0.30007600  1
  Ru  Ru10  1  0.66666665  0.33333333  1.00000001  1
  Co  Co11  1  0.99999998  0.50000000  0.69992401  1
