# generated using pymatgen
data_BaCo2Sn
_symmetry_space_group_name_H-M   'P 1'
_cell_length_a   4.66217899
_cell_length_b   6.47285414
_cell_length_c   6.47285414
_cell_angle_alpha   90.00000000
_cell_angle_beta   90.00000000
_cell_angle_gamma   90.00000000
_symmetry_Int_Tables_number   1
_chemical_formula_structural   BaCo2Sn
_chemical_formula_sum   'Ba2 Co4 Sn2'
_cell_volume   195.33523270
_cell_formula_units_Z   2
loop_
 _symmetry_equiv_pos_site_id
 _symmetry_equiv_pos_as_xyz
  1  'x, y, z'
loop_
 _atom_site_type_symbol
 _atom_site_label
 _atom_site_symmetry_multiplicity
 _atom_site_fract_x
 _atom_site_fract_y
 _atom_site_fract_z
 _atom_site_occupancy
  Ba  Ba0  1  0.50000000  0.49999999  0.49999999  1
  Ba  Ba1  1  0.50000000  0.49999999  -0.00000000  1
  Co  Co2  1  0.50000000  0.00000000  0.49999999  1
  Co  Co3  1  1.00000000  0.23472900  0.76527098  1
  Co  Co4  1  1.00000000  0.76527098  0.23472900  1
  Co  Co5  1  0.00000000  0.23472900  0.23472900  1
  Sn  Sn6  1  1.00000000  0.76527098  0.76527098  1
  Sn  Sn7  1  0.50000000  0.00000000  -0.00000000  1
