# generated using pymatgen
data_NdMg
_symmetry_space_group_name_H-M   'P 1'
_cell_length_a   3.50830793
_cell_length_b   5.50359917
_cell_length_c   9.25522995
_cell_angle_alpha   90.00000000
_cell_angle_beta   100.92542267
_cell_angle_gamma   90.00000000
_symmetry_Int_Tables_number   1
_chemical_formula_structural   NdMg
_chemical_formula_sum   'Nd3 Mg3'
_cell_volume   175.46390503
_cell_formula_units_Z   3
loop_
 _symmetry_equiv_pos_site_id
 _symmetry_equiv_pos_as_xyz
  1  'x, y, z'
loop_
 _atom_site_type_symbol
 _atom_site_label
 _atom_site_symmetry_multiplicity
 _atom_site_fract_x
 _atom_site_fract_y
 _atom_site_fract_z
 _atom_site_occupancy
  Nd  Nd0  1  0.00019600  0.00000000  0.00039200  1
  Nd  Nd1  1  0.66982601  0.00000000  0.33965199  1
  Nd  Nd2  1  0.33306401  0.00000000  0.66612798  1
  Mg  Mg3  1  0.55348401  0.49999998  0.10696800  1
  Mg  Mg4  1  0.88717502  0.49999998  0.77434998  1
  Mg  Mg5  1  0.22292100  0.49999998  0.44584199  1
