# generated using pymatgen
data_TaTiO4
_symmetry_space_group_name_H-M   'P 1'
_cell_length_a   3.14621592
_cell_length_b   4.71028280
_cell_length_c   4.71028280
_cell_angle_alpha   90.56145477
_cell_angle_beta   90.00000000
_cell_angle_gamma   90.00000000
_symmetry_Int_Tables_number   1
_chemical_formula_structural   TaTiO4
_chemical_formula_sum   'Ta1 Ti1 O4'
_cell_volume   69.80099881
_cell_formula_units_Z   1
loop_
 _symmetry_equiv_pos_site_id
 _symmetry_equiv_pos_as_xyz
  1  'x, y, z'
loop_
 _atom_site_type_symbol
 _atom_site_label
 _atom_site_symmetry_multiplicity
 _atom_site_fract_x
 _atom_site_fract_y
 _atom_site_fract_z
 _atom_site_occupancy
  Ta  Ta0  1  0.00000000  0.00000000  0.00000000  1
  Ti  Ti1  1  0.50000001  0.50000001  0.50000000  1
  O  O2  1  0.50000001  0.80609802  0.19390198  1
  O  O3  1  0.50000001  0.19390200  0.80609801  1
  O  O4  1  -0.00000000  0.30317101  0.30317100  1
  O  O5  1  -0.00000000  0.69682901  0.69682900  1
