# generated using pymatgen
data_Ti7Fe4Ge9
_symmetry_space_group_name_H-M   'P 1'
_cell_length_a   5.21755314
_cell_length_b   7.12700415
_cell_length_c   8.20788193
_cell_angle_alpha   90.00000000
_cell_angle_beta   90.00000000
_cell_angle_gamma   90.00000000
_symmetry_Int_Tables_number   1
_chemical_formula_structural   Ti7Fe4Ge9
_chemical_formula_sum   'Ti7 Fe4 Ge9'
_cell_volume   305.21438100
_cell_formula_units_Z   1
loop_
 _symmetry_equiv_pos_site_id
 _symmetry_equiv_pos_as_xyz
  1  'x, y, z'
loop_
 _atom_site_type_symbol
 _atom_site_label
 _atom_site_symmetry_multiplicity
 _atom_site_fract_x
 _atom_site_fract_y
 _atom_site_fract_z
 _atom_site_occupancy
  Ti  Ti0  1  0.24999999  0.91090898  0.37454300  1
  Ti  Ti1  1  0.74999998  0.08909100  0.62545701  1
  Ti  Ti2  1  0.49544599  0.23661900  0.37639300  1
  Ti  Ti3  1  0.99544597  0.76338098  0.62360701  1
  Ti  Ti4  1  0.50455399  0.26338099  0.87639301  1
  Ti  Ti5  1  0.99544597  0.26338099  0.87639301  1
  Ti  Ti6  1  0.50455399  0.76338098  0.62360701  1
  Ge  Ge7  1  0.00455400  0.23661900  0.37639300  1
  Fe  Fe8  1  0.49544599  0.73661898  0.12360700  1
  Fe  Fe9  1  0.24999999  0.41090899  0.12545700  1
  Fe  Fe10  1  0.00455400  0.73661898  0.12360700  1
  Fe  Fe11  1  0.74999998  0.58909099  0.87454301  1
  Ge  Ge12  1  0.24999999  0.56117399  0.40295300  1
  Ge  Ge13  1  0.24999999  0.09837400  0.64261901  1
  Ge  Ge14  1  0.74999998  0.90162598  0.35738100  1
  Ge  Ge15  1  0.74999998  0.40162599  0.14261900  1
  Ge  Ge16  1  0.24999999  0.59837399  0.85738101  1
  Ge  Ge17  1  0.24999999  0.06117400  0.09704700  1
  Ge  Ge18  1  0.74999998  0.43882599  0.59704701  1
  Ge  Ge19  1  0.74999998  0.93882598  0.90295301  1
