# generated using pymatgen
data_SrTlCuO3
_symmetry_space_group_name_H-M   'P 1'
_cell_length_a   3.95138788
_cell_length_b   3.95138788
_cell_length_c   6.98668480
_cell_angle_alpha   90.00000000
_cell_angle_beta   90.00000000
_cell_angle_gamma   90.00000000
_symmetry_Int_Tables_number   1
_chemical_formula_structural   SrTlCuO3
_chemical_formula_sum   'Sr1 Tl1 Cu1 O3'
_cell_volume   109.08636693
_cell_formula_units_Z   1
loop_
 _symmetry_equiv_pos_site_id
 _symmetry_equiv_pos_as_xyz
  1  'x, y, z'
loop_
 _atom_site_type_symbol
 _atom_site_label
 _atom_site_symmetry_multiplicity
 _atom_site_fract_x
 _atom_site_fract_y
 _atom_site_fract_z
 _atom_site_occupancy
  Sr  Sr0  1  0.00000000  0.00000000  0.24252501  1
  Tl  Tl1  1  0.00000000  0.00000000  0.75747502  1
  Cu  Cu2  1  0.50000001  0.50000001  0.00000000  1
  O  O3  1  0.50000001  0.50000001  0.50000001  1
  O  O4  1  0.00000000  0.50000001  0.00000000  1
  O  O5  1  0.50000001  0.00000000  0.00000000  1
