# generated using pymatgen
data_NaLaSbO6
_symmetry_space_group_name_H-M   'P 1'
_cell_length_a   5.62551546
_cell_length_b   5.62551546
_cell_length_c   7.99114561
_cell_angle_alpha   90.00000000
_cell_angle_beta   90.00000000
_cell_angle_gamma   89.54026794
_symmetry_Int_Tables_number   1
_chemical_formula_structural   NaLaSbO6
_chemical_formula_sum   'Na2 La2 Sb2 O12'
_cell_volume   252.88304308
_cell_formula_units_Z   2
loop_
 _symmetry_equiv_pos_site_id
 _symmetry_equiv_pos_as_xyz
  1  'x, y, z'
loop_
 _atom_site_type_symbol
 _atom_site_label
 _atom_site_symmetry_multiplicity
 _atom_site_fract_x
 _atom_site_fract_y
 _atom_site_fract_z
 _atom_site_occupancy
  Na  Na0  1  0.98596199  0.98596198  -0.00000000  1
  Na  Na1  1  0.51993278  0.51993277  0.49999999  1
  La  La2  1  0.99566810  0.48883789  0.24837484  1
  La  La3  1  0.99566810  0.48883789  0.75162515  1
  Sb  Sb4  1  0.48883790  0.99566810  0.75162515  1
  Sb  Sb5  1  0.48883790  0.99566810  0.24837484  1
  O  O6  1  0.77546219  0.22706582  0.26299160  1
  O  O7  1  0.22706584  0.77546218  0.26299160  1
  O  O8  1  0.22706584  0.77546218  0.73700839  1
  O  O9  1  0.77546219  0.22706582  0.73700839  1
  O  O10  1  0.29030880  0.29030879  0.29308695  1
  O  O11  1  0.71860456  0.71860455  0.23779886  1
  O  O12  1  0.71860456  0.71860455  0.76220113  1
  O  O13  1  0.29030880  0.29030879  0.70691304  1
  O  O14  1  0.03086932  0.47782204  -0.00000000  1
  O  O15  1  0.95818552  0.52383390  0.49999999  1
  O  O16  1  0.47782204  0.03086931  -0.00000000  1
  O  O17  1  0.52383391  0.95818552  0.49999999  1
