# generated using pymatgen
data_La(CoGe)2
_symmetry_space_group_name_H-M   'P 1'
_cell_length_a   4.28963089
_cell_length_b   4.28963089
_cell_length_c   5.80415344
_cell_angle_alpha   111.68669891
_cell_angle_beta   111.68670654
_cell_angle_gamma   90.00000000
_symmetry_Int_Tables_number   1
_chemical_formula_structural   La(CoGe)2
_chemical_formula_sum   'La1 Co2 Ge2'
_cell_volume   91.05716606
_cell_formula_units_Z   1
loop_
 _symmetry_equiv_pos_site_id
 _symmetry_equiv_pos_as_xyz
  1  'x, y, z'
loop_
 _atom_site_type_symbol
 _atom_site_label
 _atom_site_symmetry_multiplicity
 _atom_site_fract_x
 _atom_site_fract_y
 _atom_site_fract_z
 _atom_site_occupancy
  La  La0  1  0.56627598  0.56627601  0.13255197  1
  Co  Co1  1  0.23417499  0.23417500  0.46834999  1
  Co  Co2  1  0.82629699  0.32629701  0.65259397  1
  Ge  Ge3  1  0.32629697  0.82629702  0.65259398  1
  Ge  Ge4  1  0.00475600  0.00475500  0.00951100  1
