# generated using pymatgen
data_LiBe2NF4
_symmetry_space_group_name_H-M   'P 1'
_cell_length_a   4.57144785
_cell_length_b   4.87181091
_cell_length_c   4.57144785
_cell_angle_alpha   62.01934814
_cell_angle_beta   90.00000000
_cell_angle_gamma   117.98065186
_symmetry_Int_Tables_number   1
_chemical_formula_structural   LiBe2NF4
_chemical_formula_sum   'Li1 Be2 N1 F4'
_cell_volume   76.17212261
_cell_formula_units_Z   1
loop_
 _symmetry_equiv_pos_site_id
 _symmetry_equiv_pos_as_xyz
  1  'x, y, z'
loop_
 _atom_site_type_symbol
 _atom_site_label
 _atom_site_symmetry_multiplicity
 _atom_site_fract_x
 _atom_site_fract_y
 _atom_site_fract_z
 _atom_site_occupancy
  Li  Li0  1  0.49999996  0.99999991  0.50000007  1
  Be  Be1  1  0.24999998  0.49999995  0.25000004  1
  Be  Be2  1  0.00000000  0.00000000  0.00000000  1
  N  N3  1  0.75000000  0.49999995  0.75000005  1
  F  F4  1  0.37500000  0.24999998  0.04200302  1
  F  F5  1  0.87500002  0.24999998  0.70799704  1
  F  F6  1  0.70799698  0.74999993  0.37500005  1
  F  F7  1  0.04200296  0.74999993  0.87500007  1
