# generated using pymatgen
data_Li4PHSO8
_symmetry_space_group_name_H-M   'P 1'
_cell_length_a   4.67916822
_cell_length_b   5.45298386
_cell_length_c   6.14052963
_cell_angle_alpha   96.49246979
_cell_angle_beta   93.53894806
_cell_angle_gamma   103.87448883
_symmetry_Int_Tables_number   1
_chemical_formula_structural   Li4PHSO8
_chemical_formula_sum   'Li4 P1 H1 S1 O8'
_cell_volume   150.48902364
_cell_formula_units_Z   1
loop_
 _symmetry_equiv_pos_site_id
 _symmetry_equiv_pos_as_xyz
  1  'x, y, z'
loop_
 _atom_site_type_symbol
 _atom_site_label
 _atom_site_symmetry_multiplicity
 _atom_site_fract_x
 _atom_site_fract_y
 _atom_site_fract_z
 _atom_site_occupancy
  Li  Li0  1  0.15332697  0.28500800  0.57682597  1
  Li  Li1  1  0.29109393  0.57745899  0.17027097  1
  Li  Li2  1  0.70890593  0.42254099  0.82972893  1
  Li  Li3  1  0.84667289  0.71499199  0.42317393  1
  P  P4  1  0.00000000  0.00000000  0.00000000  1
  H  H5  1  0.38513791  0.78757299  0.71877194  1
  S  S6  1  0.61486195  0.21242700  0.28122796  1
  O  O7  1  0.23916294  0.57381899  0.85407995  1
  O  O8  1  0.26836192  0.69969299  0.47555596  1
  O  O9  1  0.27143997  0.18144000  0.26235398  1
  O  O10  1  0.31600298  0.04792900  0.80218796  1
  O  O11  1  0.68399688  0.95207099  0.19781194  1
  O  O12  1  0.72855989  0.81855999  0.73764592  1
  O  O13  1  0.73163794  0.30030700  0.52444394  1
  O  O14  1  0.76083692  0.42618099  0.14591995  1
