# generated using pymatgen
data_Mn
_symmetry_space_group_name_H-M   'P 1'
_cell_length_a   2.74354029
_cell_length_b   2.74354029
_cell_length_c   9.13682270
_cell_angle_alpha   81.36516571
_cell_angle_beta   81.36516571
_cell_angle_gamma   59.99999619
_symmetry_Int_Tables_number   1
_chemical_formula_structural   Mn
_chemical_formula_sum   Mn4
_cell_volume   58.65730954
_cell_formula_units_Z   4
loop_
 _symmetry_equiv_pos_site_id
 _symmetry_equiv_pos_as_xyz
  1  'x, y, z'
loop_
 _atom_site_type_symbol
 _atom_site_label
 _atom_site_symmetry_multiplicity
 _atom_site_fract_x
 _atom_site_fract_y
 _atom_site_fract_z
 _atom_site_occupancy
  Mn  Mn0  1  0.00000000  0.00000000  0.00000000  1
  Mn  Mn1  1  0.25122401  0.25122399  0.24632800  1
  Mn  Mn2  1  0.50000001  0.49999998  0.50000001  1
  Mn  Mn3  1  0.74877602  0.74877597  0.75367201  1
