# generated using pymatgen
data_Na2TiO4
_symmetry_space_group_name_H-M   'P 1'
_cell_length_a   3.83194995
_cell_length_b   3.83194995
_cell_length_c   6.75916529
_cell_angle_alpha   106.46701050
_cell_angle_beta   106.46701050
_cell_angle_gamma   90.00000000
_symmetry_Int_Tables_number   1
_chemical_formula_structural   Na2TiO4
_chemical_formula_sum   'Na2 Ti1 O4'
_cell_volume   90.92652788
_cell_formula_units_Z   1
loop_
 _symmetry_equiv_pos_site_id
 _symmetry_equiv_pos_as_xyz
  1  'x, y, z'
loop_
 _atom_site_type_symbol
 _atom_site_label
 _atom_site_symmetry_multiplicity
 _atom_site_fract_x
 _atom_site_fract_y
 _atom_site_fract_z
 _atom_site_occupancy
  Na  Na0  1  0.64125199  0.64125200  0.28250397  1
  Na  Na1  1  0.36184199  0.36184200  0.72368398  1
  Ti  Ti2  1  0.00343500  0.00343500  0.00687000  1
  O  O3  1  0.83729099  0.83729100  0.67458196  1
  O  O4  1  0.17272600  0.17272600  0.34545199  1
  O  O5  1  0.99172700  0.49172700  0.98345396  1
  O  O6  1  0.49172698  0.99172700  0.98345396  1
