# generated using pymatgen
data_Ti3(Fe2Ge)5
_symmetry_space_group_name_H-M   'P 1'
_cell_length_a   4.67676020
_cell_length_b   4.71857691
_cell_length_c   12.11627579
_cell_angle_alpha   87.20185852
_cell_angle_beta   84.34675598
_cell_angle_gamma   60.29272842
_symmetry_Int_Tables_number   1
_chemical_formula_structural   Ti3(Fe2Ge)5
_chemical_formula_sum   'Ti3 Fe10 Ge5'
_cell_volume   231.10641024
_cell_formula_units_Z   1
loop_
 _symmetry_equiv_pos_site_id
 _symmetry_equiv_pos_as_xyz
  1  'x, y, z'
loop_
 _atom_site_type_symbol
 _atom_site_label
 _atom_site_symmetry_multiplicity
 _atom_site_fract_x
 _atom_site_fract_y
 _atom_site_fract_z
 _atom_site_occupancy
  Ti  Ti0  1  0.26715097  1.00000003  0.11355701  1
  Ti  Ti1  1  0.20922198  1.00000003  0.38527401  1
  Ti  Ti2  1  0.79077795  1.00000003  0.61472603  1
  Fe  Fe3  1  0.73284895  1.00000003  0.88644304  1
  Fe  Fe4  1  0.94769095  0.67060202  0.07805102  1
  Fe  Fe5  1  0.61829297  0.32939801  0.07805101  1
  Fe  Fe6  1  0.23482198  0.49564602  0.24979601  1
  Fe  Fe7  1  0.73046796  0.50435402  0.24979602  1
  Fe  Fe8  1  0.73897597  0.00000000  0.25040502  1
  Fe  Fe9  1  0.52813797  0.33304301  0.42196602  1
  Fe  Fe10  1  0.86118095  0.66695702  0.42196602  1
  Fe  Fe11  1  0.47186197  0.66695702  0.57803402  1
  Fe  Fe12  1  0.13881899  0.33304301  0.57803402  1
  Ge  Ge13  1  0.26102399  0.00000000  0.74959502  1
  Ge  Ge14  1  0.76517796  0.50435402  0.75020403  1
  Ge  Ge15  1  0.26953198  0.49564602  0.75020402  1
  Ge  Ge16  1  0.05230899  0.32939801  0.92194903  1
  Ge  Ge17  1  0.38170697  0.67060202  0.92194903  1
