# generated using pymatgen
data_DyGa5Pd
_symmetry_space_group_name_H-M   'P 1'
_cell_length_a   4.21601582
_cell_length_b   8.14082336
_cell_length_c   8.14082336
_cell_angle_alpha   74.81753540
_cell_angle_beta   74.99266052
_cell_angle_gamma   74.99266052
_symmetry_Int_Tables_number   1
_chemical_formula_structural   DyGa5Pd
_chemical_formula_sum   'Dy2 Ga10 Pd2'
_cell_volume   254.92512820
_cell_formula_units_Z   2
loop_
 _symmetry_equiv_pos_site_id
 _symmetry_equiv_pos_as_xyz
  1  'x, y, z'
loop_
 _atom_site_type_symbol
 _atom_site_label
 _atom_site_symmetry_multiplicity
 _atom_site_fract_x
 _atom_site_fract_y
 _atom_site_fract_z
 _atom_site_occupancy
  Dy  Dy0  1  0.00000000  0.00000000  0.00000000  1
  Dy  Dy1  1  0.30921106  0.69078901  0.69078908  1
  Ga  Ga2  1  0.69078904  0.30921100  0.30921105  1
  Ga  Ga3  1  1.00000007  0.50000001  0.50000008  1
  Ga  Ga4  1  0.34286803  0.28597600  0.02828803  1
  Ga  Ga5  1  0.65713208  0.71402401  0.97171210  1
  Ga  Ga6  1  0.34286801  0.02828800  0.28597602  1
  Ga  Ga7  1  0.65713210  0.97171201  0.71402411  1
  Ga  Ga8  1  0.13697705  0.57977001  0.14627604  1
  Ga  Ga9  1  0.86302306  0.42023001  0.85372409  1
  Ga  Ga10  1  0.13697702  0.14627600  0.57977004  1
  Ga  Ga11  1  0.86302309  0.85372401  0.42023009  1
  Pd  Pd12  1  0.50000004  0.30272800  0.69727206  1
  Pd  Pd13  1  0.50000007  0.69727201  0.30272807  1
