# generated using pymatgen
data_Sr5Ag9
_symmetry_space_group_name_H-M   'P 1'
_cell_length_a   5.10525799
_cell_length_b   9.47792625
_cell_length_c   9.47792625
_cell_angle_alpha   73.34553528
_cell_angle_beta   74.37598419
_cell_angle_gamma   74.37598419
_symmetry_Int_Tables_number   1
_chemical_formula_structural   Sr5Ag9
_chemical_formula_sum   'Sr5 Ag9'
_cell_volume   413.86108599
_cell_formula_units_Z   1
loop_
 _symmetry_equiv_pos_site_id
 _symmetry_equiv_pos_as_xyz
  1  'x, y, z'
loop_
 _atom_site_type_symbol
 _atom_site_label
 _atom_site_symmetry_multiplicity
 _atom_site_fract_x
 _atom_site_fract_y
 _atom_site_fract_z
 _atom_site_occupancy
  Sr  Sr0  1  0.69125403  0.30874601  0.30874601  1
  Sr  Sr1  1  0.30874608  0.69125402  0.69125397  1
  Sr  Sr2  1  0.00000000  0.00000000  0.00000000  1
  Sr  Sr3  1  0.85368909  0.87229603  0.42032597  1
  Ag  Ag4  1  0.85368904  0.42032601  0.87229602  1
  Sr  Sr5  1  0.65711408  0.71465703  0.97111499  1
  Ag  Ag6  1  0.14631101  0.12770400  0.57967401  1
  Ag  Ag7  1  0.34288603  0.28534301  0.02888499  1
  Ag  Ag8  1  0.50000008  0.69072802  0.30927197  1
  Ag  Ag9  1  0.50000003  0.30927201  0.69072801  1
  Ag  Ag10  1  0.14631107  0.57967402  0.12770396  1
  Ag  Ag11  1  0.34288600  0.02888500  0.28534302  1
  Ag  Ag12  1  1.00000005  0.50000002  0.50000001  1
  Ag  Ag13  1  0.65711411  0.97111503  0.71465696  1
