# generated using pymatgen
data_Sr2LaCu5O8
_symmetry_space_group_name_H-M   'P 1'
_cell_length_a   3.87296009
_cell_length_b   3.89429379
_cell_length_c   16.04894257
_cell_angle_alpha   89.25999451
_cell_angle_beta   89.72046661
_cell_angle_gamma   89.61512756
_symmetry_Int_Tables_number   1
_chemical_formula_structural   Sr2LaCu5O8
_chemical_formula_sum   'Sr2 La1 Cu5 O8'
_cell_volume   242.02885537
_cell_formula_units_Z   1
loop_
 _symmetry_equiv_pos_site_id
 _symmetry_equiv_pos_as_xyz
  1  'x, y, z'
loop_
 _atom_site_type_symbol
 _atom_site_label
 _atom_site_symmetry_multiplicity
 _atom_site_fract_x
 _atom_site_fract_y
 _atom_site_fract_z
 _atom_site_occupancy
  Sr  Sr0  1  0.00079800  0.00519100  0.77678901  1
  Sr  Sr1  1  0.99920200  0.99480902  0.22321100  1
  La  La2  1  0.00000000  0.00000000  0.00000000  1
  Cu  Cu3  1  0.50031200  0.50079701  0.89030801  1
  Cu  Cu4  1  0.49968800  0.49920301  0.10969200  1
  Cu  Cu5  1  0.00000000  0.00000000  0.50000001  1
  Cu  Cu6  1  0.50203600  0.49380401  0.61085501  1
  Cu  Cu7  1  0.49796400  0.50619601  0.38914500  1
  O  O8  1  0.50405200  0.50244101  0.74706901  1
  O  O9  1  0.49594800  0.49755901  0.25293100  1
  O  O10  1  0.00006701  0.50099501  0.90284302  1
  O  O11  1  0.50048001  0.99975802  0.90257102  1
  O  O12  1  0.99993299  0.49900501  0.09715699  1
  O  O13  1  0.49951999  0.00024200  0.09742899  1
  O  O14  1  0.03137600  0.09133100  0.61369401  1
  O  O15  1  0.96862400  0.90866902  0.38630600  1
