# generated using pymatgen
data_NaBiO3
_symmetry_space_group_name_H-M   'P 1'
_cell_length_a   6.61106634
_cell_length_b   6.61106634
_cell_length_c   6.61106682
_cell_angle_alpha   91.52728271
_cell_angle_beta   91.52728271
_cell_angle_gamma   91.52729034
_symmetry_Int_Tables_number   1
_chemical_formula_structural   NaBiO3
_chemical_formula_sum   'Na4 Bi4 O12'
_cell_volume   288.63106381
_cell_formula_units_Z   4
loop_
 _symmetry_equiv_pos_site_id
 _symmetry_equiv_pos_as_xyz
  1  'x, y, z'
loop_
 _atom_site_type_symbol
 _atom_site_label
 _atom_site_symmetry_multiplicity
 _atom_site_fract_x
 _atom_site_fract_y
 _atom_site_fract_z
 _atom_site_occupancy
  Na  Na0  1  0.56217998  0.06559100  0.25207096  1
  Na  Na1  1  0.06559100  0.25207099  0.56217998  1
  Na  Na2  1  0.74792898  0.43781999  0.93440893  1
  Na  Na3  1  0.25207100  0.56217998  0.06559096  1
  Bi  Bi4  1  0.93440898  0.74792898  0.43781991  1
  Bi  Bi5  1  0.43781999  0.93440897  0.74792892  1
  Bi  Bi6  1  0.00000000  0.00000000  0.00000000  1
  Bi  Bi7  1  0.49999999  0.49999998  0.49999994  1
  O  O8  1  0.71675998  0.06235500  0.93218995  1
  O  O9  1  0.93764497  0.06781000  0.28323994  1
  O  O10  1  0.42160499  0.21719599  0.54716896  1
  O  O11  1  0.06781000  0.28323999  0.93764497  1
  O  O12  1  0.54716899  0.42160499  0.21719595  1
  O  O13  1  0.78280398  0.45283099  0.57839493  1
  O  O14  1  0.21719600  0.54716898  0.42160495  1
  O  O15  1  0.45283099  0.57839498  0.78280394  1
  O  O16  1  0.93218998  0.71675998  0.06235491  1
  O  O17  1  0.57839499  0.78280398  0.45283092  1
  O  O18  1  0.06235501  0.93218997  0.71675994  1
  O  O19  1  0.28324000  0.93764497  0.06780993  1
