# generated using pymatgen
data_CsK(WO3)2
_symmetry_space_group_name_H-M   'P 1'
_cell_length_a   5.87787485
_cell_length_b   7.25744343
_cell_length_c   12.10342503
_cell_angle_alpha   90.00000000
_cell_angle_beta   90.00000000
_cell_angle_gamma   104.54608154
_symmetry_Int_Tables_number   1
_chemical_formula_structural   CsK(WO3)2
_chemical_formula_sum   'Cs2 K2 W4 O12'
_cell_volume   499.76217948
_cell_formula_units_Z   2
loop_
 _symmetry_equiv_pos_site_id
 _symmetry_equiv_pos_as_xyz
  1  'x, y, z'
loop_
 _atom_site_type_symbol
 _atom_site_label
 _atom_site_symmetry_multiplicity
 _atom_site_fract_x
 _atom_site_fract_y
 _atom_site_fract_z
 _atom_site_occupancy
  K  K0  1  0.70292703  0.25895000  0.08101100  1
  K  K1  1  0.79707304  0.74105000  0.58101100  1
  Cs  Cs2  1  0.29707303  0.74105000  0.91898900  1
  Cs  Cs3  1  0.20292701  0.25895000  0.41898900  1
  W  W4  1  0.69183504  0.71166800  0.23314600  1
  W  W5  1  0.80816503  0.28833200  0.73314600  1
  W  W6  1  0.30816502  0.28833200  0.76685400  1
  W  W7  1  0.19183503  0.71166800  0.26685400  1
  O  O8  1  0.17265203  0.93159200  0.17660200  1
  O  O9  1  0.32734801  0.06840800  0.67660200  1
  O  O10  1  0.82734802  0.06840800  0.82339800  1
  O  O11  1  0.67265205  0.93159200  0.32339800  1
  O  O12  1  0.35103503  0.81303100  0.40014600  1
  O  O13  1  0.14896501  0.18696900  0.90014600  1
  O  O14  1  0.64896502  0.18696900  0.59985400  1
  O  O15  1  0.85103505  0.81303100  0.09985400  1
  O  O16  1  0.38445303  0.56116700  0.19864500  1
  O  O17  1  0.11554702  0.43883300  0.69864500  1
  O  O18  1  0.61554703  0.43883300  0.80135500  1
  O  O19  1  0.88445304  0.56116700  0.30135500  1
