# generated using pymatgen
data_Bi2Pb
_symmetry_space_group_name_H-M   'P 1'
_cell_length_a   4.50674009
_cell_length_b   4.50673962
_cell_length_c   5.96212721
_cell_angle_alpha   90.00000000
_cell_angle_beta   90.00000000
_cell_angle_gamma   120.00000000
_symmetry_Int_Tables_number   1
_chemical_formula_structural   Bi2Pb
_chemical_formula_sum   'Bi2 Pb1'
_cell_volume   104.87134771
_cell_formula_units_Z   1
loop_
 _symmetry_equiv_pos_site_id
 _symmetry_equiv_pos_as_xyz
  1  'x, y, z'
loop_
 _atom_site_type_symbol
 _atom_site_label
 _atom_site_symmetry_multiplicity
 _atom_site_fract_x
 _atom_site_fract_y
 _atom_site_fract_z
 _atom_site_occupancy
  Bi  Bi0  1  -0.00000001  0.26910800  0.66666664  1
  Bi  Bi1  1  0.73089195  0.73089200  0.33333332  1
  Pb  Pb2  1  0.26910799  0.00000000  -0.00000000  1
