# generated using pymatgen
data_La(AlGe)2
_symmetry_space_group_name_H-M   'P 1'
_cell_length_a   4.23389816
_cell_length_b   4.23389816
_cell_length_c   6.16332817
_cell_angle_alpha   110.08872986
_cell_angle_beta   110.08872986
_cell_angle_gamma   90.00000000
_symmetry_Int_Tables_number   1
_chemical_formula_structural   La(AlGe)2
_chemical_formula_sum   'La1 Al2 Ge2'
_cell_volume   96.57327693
_cell_formula_units_Z   1
loop_
 _symmetry_equiv_pos_site_id
 _symmetry_equiv_pos_as_xyz
  1  'x, y, z'
loop_
 _atom_site_type_symbol
 _atom_site_label
 _atom_site_symmetry_multiplicity
 _atom_site_fract_x
 _atom_site_fract_y
 _atom_site_fract_z
 _atom_site_occupancy
  La  La0  1  0.00000000  0.00000000  0.00000000  1
  Al  Al1  1  0.24999999  0.74999997  0.50000001  1
  Al  Al2  1  0.74999997  0.24999999  0.50000001  1
  Ge  Ge3  1  0.62808997  0.62808997  0.25618000  1
  Ge  Ge4  1  0.37190998  0.37190999  0.74382001  1
