# generated using pymatgen
data_DyGe3
_symmetry_space_group_name_H-M   'P 1'
_cell_length_a   4.24593210
_cell_length_b   5.78031731
_cell_length_c   13.86009789
_cell_angle_alpha   90.00000000
_cell_angle_beta   90.00000000
_cell_angle_gamma   111.54765320
_symmetry_Int_Tables_number   1
_chemical_formula_structural   DyGe3
_chemical_formula_sum   'Dy4 Ge12'
_cell_volume   316.39270963
_cell_formula_units_Z   4
loop_
 _symmetry_equiv_pos_site_id
 _symmetry_equiv_pos_as_xyz
  1  'x, y, z'
loop_
 _atom_site_type_symbol
 _atom_site_label
 _atom_site_symmetry_multiplicity
 _atom_site_fract_x
 _atom_site_fract_y
 _atom_site_fract_z
 _atom_site_occupancy
  Dy  Dy0  1  0.07740599  0.15481200  0.61376801  1
  Dy  Dy1  1  0.92259391  0.84518801  0.38623200  1
  Dy  Dy2  1  0.07740599  0.15481200  0.88623201  1
  Dy  Dy3  1  0.92259391  0.84518801  0.11376800  1
  Ge  Ge4  1  0.35431294  0.70862601  0.75000001  1
  Ge  Ge5  1  0.64568696  0.29137400  0.25000000  1
  Ge  Ge6  1  0.38545193  0.77090401  0.54045300  1
  Ge  Ge7  1  0.61454797  0.22909600  0.45954700  1
  Ge  Ge8  1  0.38545193  0.77090401  0.95954701  1
  Ge  Ge9  1  0.61454797  0.22909600  0.04045300  1
  Ge  Ge10  1  0.66202296  0.32404600  0.75000001  1
  Ge  Ge11  1  0.33797694  0.67595401  0.25000000  1
  Ge  Ge12  1  0.21300396  0.42600800  0.08317600  1
  Ge  Ge13  1  0.78699594  0.57399201  0.91682401  1
  Ge  Ge14  1  0.21300396  0.42600800  0.41682400  1
  Ge  Ge15  1  0.78699594  0.57399201  0.58317600  1
