# generated using pymatgen
data_LaCo4SnGe3Sb2AsS5
_symmetry_space_group_name_H-M   'P 1'
_cell_length_a   7.56090736
_cell_length_b   7.56090736
_cell_length_c   7.56090736
_cell_angle_alpha   109.47122192
_cell_angle_beta   109.47122192
_cell_angle_gamma   109.47122192
_symmetry_Int_Tables_number   1
_chemical_formula_structural   LaCo4SnGe3Sb2AsS5
_chemical_formula_sum   'La1 Co4 Sn1 Ge3 Sb2 As1 S5'
_cell_volume   332.73603714
_cell_formula_units_Z   1
loop_
 _symmetry_equiv_pos_site_id
 _symmetry_equiv_pos_as_xyz
  1  'x, y, z'
loop_
 _atom_site_type_symbol
 _atom_site_label
 _atom_site_symmetry_multiplicity
 _atom_site_fract_x
 _atom_site_fract_y
 _atom_site_fract_z
 _atom_site_occupancy
  La  La0  1  0.00000000  0.00000000  0.00000000  1
  Sn  Sn1  1  0.15152203  0.35430802  0.50583003  1
  Co  Co2  1  0.84847807  0.64569204  0.49417007  1
  Ge  Ge3  1  0.15152205  0.64569204  0.79721406  1
  Ge  Ge4  1  0.84847805  0.35430802  0.20278604  1
  Co  Co5  1  0.64569205  0.49417003  0.84847806  1
  S  S6  1  0.35430804  0.50583003  0.15152204  1
  Co  Co7  1  0.35430802  0.20278601  0.84847804  1
  Ge  Ge8  1  0.64569207  0.79721405  0.15152206  1
  Co  Co9  1  0.79721403  0.15152201  0.64569204  1
  As  As10  1  0.20278606  0.84847805  0.35430806  1
  Sb  Sb11  1  0.50583002  0.15152201  0.35430803  1
  Sb  Sb12  1  0.49417007  0.84847805  0.64569207  1
  S  S13  1  0.50000005  0.50000003  0.50000005  1
  S  S14  1  0.00000000  0.00000000  0.50000001  1
  S  S15  1  0.00000003  0.50000003  0.00000003  1
  S  S16  1  0.50000008  1.00000006  1.00000009  1
