# generated using pymatgen
data_Li2Cu2O3
_symmetry_space_group_name_H-M   'P 1'
_cell_length_a   3.43906808
_cell_length_b   3.43906784
_cell_length_c   17.34426689
_cell_angle_alpha   90.00000000
_cell_angle_beta   90.00000000
_cell_angle_gamma   120.00000000
_symmetry_Int_Tables_number   1
_chemical_formula_structural   Li2Cu2O3
_chemical_formula_sum   'Li4 Cu4 O6'
_cell_volume   177.65117961
_cell_formula_units_Z   2
loop_
 _symmetry_equiv_pos_site_id
 _symmetry_equiv_pos_as_xyz
  1  'x, y, z'
loop_
 _atom_site_type_symbol
 _atom_site_label
 _atom_site_symmetry_multiplicity
 _atom_site_fract_x
 _atom_site_fract_y
 _atom_site_fract_z
 _atom_site_occupancy
  Li  Li0  1  0.00000000  0.00000000  0.99734601  1
  Li  Li1  1  0.00000000  0.00000000  0.49734600  1
  Li  Li2  1  0.33333330  0.66666664  0.36364400  1
  Li  Li3  1  0.66666664  0.33333332  0.86364401  1
  Cu  Cu4  1  0.33333330  0.66666664  0.13149700  1
  Cu  Cu5  1  0.66666664  0.33333332  0.63149700  1
  Cu  Cu6  1  0.33333330  0.66666664  0.74530000  1
  Cu  Cu7  1  0.66666664  0.33333332  0.24530000  1
  O  O8  1  0.33333330  0.66666664  0.59259700  1
  O  O9  1  0.66666664  0.33333332  0.09259700  1
  O  O10  1  0.33333330  0.66666664  0.90554301  1
  O  O11  1  0.66666664  0.33333332  0.40554300  1
  O  O12  1  0.33333330  0.66666664  0.24797200  1
  O  O13  1  0.66666664  0.33333332  0.74797200  1
