# generated using pymatgen
data_Te3(MoSe2)2
_symmetry_space_group_name_H-M   'P 1'
_cell_length_a   3.47761607
_cell_length_b   3.47761607
_cell_length_c   32.08321762
_cell_angle_alpha   90.00000000
_cell_angle_beta   90.00000000
_cell_angle_gamma   120.00000000
_symmetry_Int_Tables_number   1
_chemical_formula_structural   Te3(MoSe2)2
_chemical_formula_sum   'Te3 Mo2 Se4'
_cell_volume   336.02517609
_cell_formula_units_Z   1
loop_
 _symmetry_equiv_pos_site_id
 _symmetry_equiv_pos_as_xyz
  1  'x, y, z'
loop_
 _atom_site_type_symbol
 _atom_site_label
 _atom_site_symmetry_multiplicity
 _atom_site_fract_x
 _atom_site_fract_y
 _atom_site_fract_z
 _atom_site_occupancy
  Te  Te0  1  0.66666666  0.33333335  0.28898699  1
  Te  Te1  1  0.66666666  0.33333335  0.82633096  1
  Te  Te2  1  0.66666666  0.33333335  0.17366899  1
  Se  Se3  1  0.66666666  0.33333335  0.71101296  1
  Mo  Mo4  1  0.00000000  0.00000000  0.23133399  1
  Mo  Mo5  1  0.00000000  0.00000000  0.76866596  1
  Se  Se6  1  0.66666666  0.33333335  0.99999995  1
  Se  Se7  1  0.00000000  0.00000000  0.94917995  1
  Se  Se8  1  0.00000000  0.00000000  0.05082000  1
