# generated using pymatgen
data_LiMnO3
_symmetry_space_group_name_H-M   'P 1'
_cell_length_a   5.11466599
_cell_length_b   5.20375061
_cell_length_c   5.39767551
_cell_angle_alpha   67.82722473
_cell_angle_beta   61.78088760
_cell_angle_gamma   60.67670441
_symmetry_Int_Tables_number   1
_chemical_formula_structural   LiMnO3
_chemical_formula_sum   'Li2 Mn2 O6'
_cell_volume   108.36054641
_cell_formula_units_Z   2
loop_
 _symmetry_equiv_pos_site_id
 _symmetry_equiv_pos_as_xyz
  1  'x, y, z'
loop_
 _atom_site_type_symbol
 _atom_site_label
 _atom_site_symmetry_multiplicity
 _atom_site_fract_x
 _atom_site_fract_y
 _atom_site_fract_z
 _atom_site_occupancy
  Li  Li0  1  0.65319904  0.64862103  0.04766892  1
  Li  Li1  1  0.34700302  0.35121102  0.95219597  1
  Mn  Mn2  1  0.15095001  0.14898001  0.54696299  1
  Mn  Mn3  1  0.84904705  0.85110404  0.45320491  1
  O  O4  1  0.56214206  0.92372104  0.27069691  1
  O  O5  1  0.74314703  0.42447402  0.77021995  1
  O  O6  1  0.02223504  0.74965503  0.75053395  1
  O  O7  1  0.97806502  0.25003901  0.24949995  1
  O  O8  1  0.25637803  0.57610002  0.22941895  1
  O  O9  1  0.43783401  0.07609500  0.72959799  1
