# generated using pymatgen
data_Al
_symmetry_space_group_name_H-M   'P 1'
_cell_length_a   3.80578589
_cell_length_b   3.80578589
_cell_length_c   5.16503620
_cell_angle_alpha   111.61809540
_cell_angle_beta   111.61809540
_cell_angle_gamma   90.00000000
_symmetry_Int_Tables_number   1
_chemical_formula_structural   Al
_chemical_formula_sum   Al4
_cell_volume   63.85392665
_cell_formula_units_Z   4
loop_
 _symmetry_equiv_pos_site_id
 _symmetry_equiv_pos_as_xyz
  1  'x, y, z'
loop_
 _atom_site_type_symbol
 _atom_site_label
 _atom_site_symmetry_multiplicity
 _atom_site_fract_x
 _atom_site_fract_y
 _atom_site_fract_z
 _atom_site_occupancy
  Al  Al0  1  0.00000000  0.00000000  0.00000000  1
  Al  Al1  1  0.75000005  0.25000001  0.50000004  1
  Al  Al2  1  0.25000005  0.75000004  0.50000005  1
  Al  Al3  1  0.50000005  0.50000003  0.00000005  1
