# generated using pymatgen
data_Y2Ni
_symmetry_space_group_name_H-M   'P 1'
_cell_length_a   4.30508089
_cell_length_b   7.15159798
_cell_length_c   7.15159750
_cell_angle_alpha   120.00000000
_cell_angle_beta   90.00000000
_cell_angle_gamma   90.00000000
_symmetry_Int_Tables_number   1
_chemical_formula_structural   Y2Ni
_chemical_formula_sum   'Y6 Ni3'
_cell_volume   190.68569081
_cell_formula_units_Z   3
loop_
 _symmetry_equiv_pos_site_id
 _symmetry_equiv_pos_as_xyz
  1  'x, y, z'
loop_
 _atom_site_type_symbol
 _atom_site_label
 _atom_site_symmetry_multiplicity
 _atom_site_fract_x
 _atom_site_fract_y
 _atom_site_fract_z
 _atom_site_occupancy
  Y  Y0  1  0.50000001  0.76725499  0.76725497  1
  Y  Y1  1  0.50000001  0.23274500  -0.00000001  1
  Y  Y2  1  0.50000001  0.00000000  0.23274500  1
  Y  Y3  1  1.00000003  0.99999998  0.57738196  1
  Y  Y4  1  -0.00000000  0.42261799  0.42261798  1
  Y  Y5  1  -0.00000000  0.57738199  0.99999998  1
  Ni  Ni6  1  0.50000001  0.66666665  0.33333331  1
  Ni  Ni7  1  0.50000001  0.33333333  0.66666665  1
  Ni  Ni8  1  0.00000000  0.00000000  0.00000000  1
