# generated using pymatgen
data_Sr2NiO4
_symmetry_space_group_name_H-M   'P 1'
_cell_length_a   5.79993391
_cell_length_b   5.91903591
_cell_length_c   6.92674971
_cell_angle_alpha   90.00000000
_cell_angle_beta   114.75014496
_cell_angle_gamma   90.00000000
_symmetry_Int_Tables_number   1
_chemical_formula_structural   Sr2NiO4
_chemical_formula_sum   'Sr4 Ni2 O8'
_cell_volume   215.95204997
_cell_formula_units_Z   2
loop_
 _symmetry_equiv_pos_site_id
 _symmetry_equiv_pos_as_xyz
  1  'x, y, z'
loop_
 _atom_site_type_symbol
 _atom_site_label
 _atom_site_symmetry_multiplicity
 _atom_site_fract_x
 _atom_site_fract_y
 _atom_site_fract_z
 _atom_site_occupancy
  Sr  Sr0  1  0.14721600  0.48540401  0.29443199  1
  Sr  Sr1  1  0.85278402  0.51459601  0.70556799  1
  Sr  Sr2  1  0.35278401  0.98540401  0.70556799  1
  Sr  Sr3  1  0.64721601  0.01459600  0.29443200  1
  Ni  Ni4  1  0.50000001  0.50000001  0.00000000  1
  Ni  Ni5  1  0.00000000  0.00000000  0.00000000  1
  O  O6  1  0.33682101  0.55719701  0.67364199  1
  O  O7  1  0.66317901  0.44280301  0.32635800  1
  O  O8  1  0.16317900  0.05719700  0.32635799  1
  O  O9  1  0.83682102  0.94280301  0.67364199  1
  O  O10  1  0.22835200  0.25000000  0.95670398  1
  O  O11  1  0.27164801  0.75000001  0.04329600  1
  O  O12  1  0.72835201  0.25000000  0.95670398  1
  O  O13  1  0.77164802  0.75000001  0.04329601  1
