# generated using pymatgen
data_Nb2WO3F7
_symmetry_space_group_name_H-M   'P 1'
_cell_length_a   5.63500404
_cell_length_b   5.63500404
_cell_length_c   7.79540730
_cell_angle_alpha   69.54640198
_cell_angle_beta   69.54640198
_cell_angle_gamma   72.01608276
_symmetry_Int_Tables_number   1
_chemical_formula_structural   Nb2WO3F7
_chemical_formula_sum   'Nb2 W1 O3 F7'
_cell_volume   212.33520638
_cell_formula_units_Z   1
loop_
 _symmetry_equiv_pos_site_id
 _symmetry_equiv_pos_as_xyz
  1  'x, y, z'
loop_
 _atom_site_type_symbol
 _atom_site_label
 _atom_site_symmetry_multiplicity
 _atom_site_fract_x
 _atom_site_fract_y
 _atom_site_fract_z
 _atom_site_occupancy
  Nb  Nb0  1  0.54294398  0.45705599  1.00000003  1
  Nb  Nb1  1  0.99576095  0.99103797  0.25655203  1
  O  O2  1  0.00896200  0.00423900  0.74344801  1
  W  W3  1  0.24823299  0.20351899  0.13571601  1
  F  F4  1  0.79648096  0.75176698  0.86428403  1
  O  O5  1  0.76190696  0.79065298  0.36764002  1
  O  O6  1  0.20934699  0.23809299  0.63236002  1
  F  F7  1  0.93200697  0.06799300  0.00000001  1
  F  F8  1  0.05438398  0.94561598  0.50000002  1
  F  F9  1  0.70734897  0.26244099  0.74177402  1
  F  F10  1  0.73755897  0.29265099  0.25822602  1
  F  F11  1  0.28360598  0.73776498  0.80817303  1
  F  F12  1  0.26223498  0.71639398  0.19182702  1
