# generated using pymatgen
data_Mn5Ni3P8
_symmetry_space_group_name_H-M   'P 1'
_cell_length_a   6.44933510
_cell_length_b   6.44933414
_cell_length_c   6.44933510
_cell_angle_alpha   90.06198120
_cell_angle_beta   119.96422577
_cell_angle_gamma   119.96422577
_symmetry_Int_Tables_number   1
_chemical_formula_structural   Mn5Ni3P8
_chemical_formula_sum   'Mn5 Ni3 P8'
_cell_volume   189.78602739
_cell_formula_units_Z   1
loop_
 _symmetry_equiv_pos_site_id
 _symmetry_equiv_pos_as_xyz
  1  'x, y, z'
loop_
 _atom_site_type_symbol
 _atom_site_label
 _atom_site_symmetry_multiplicity
 _atom_site_fract_x
 _atom_site_fract_y
 _atom_site_fract_z
 _atom_site_occupancy
  Mn  Mn0  1  0.25000004  0.37500002  0.62500003  1
  Mn  Mn1  1  0.75000003  0.37500002  0.12500000  1
  Mn  Mn2  1  0.25000009  0.87500005  0.62500006  1
  Mn  Mn3  1  0.75000003  0.37500002  0.62500001  1
  Mn  Mn4  1  0.25000009  0.87500005  0.12500006  1
  Ni  Ni5  1  0.75000009  0.87500005  0.62500005  1
  Ni  Ni6  1  0.25000004  0.37500002  0.12500002  1
  Ni  Ni7  1  0.75000009  0.87500005  0.12500004  1
  P  P8  1  0.24013401  0.11941301  0.88056501  1
  P  P9  1  0.75986706  0.64043104  0.87928003  1
  P  P10  1  0.73884906  0.62928003  0.36941303  1
  P  P11  1  0.25986607  0.63058703  0.36943504  1
  P  P12  1  0.26115207  0.63056503  0.89043105  1
  P  P13  1  0.74013301  0.10956901  0.37071999  1
  P  P14  1  0.76115101  0.12072001  0.88058699  1
  P  P15  1  0.23884801  0.11943501  0.35956900  1
