# generated using pymatgen
data_Na2PO5
_symmetry_space_group_name_H-M   'P 1'
_cell_length_a   5.72965574
_cell_length_b   5.72965574
_cell_length_c   7.30392504
_cell_angle_alpha   101.54756927
_cell_angle_beta   106.95909882
_cell_angle_gamma   111.89978027
_symmetry_Int_Tables_number   1
_chemical_formula_structural   Na2PO5
_chemical_formula_sum   'Na4 P2 O10'
_cell_volume   199.48937757
_cell_formula_units_Z   2
loop_
 _symmetry_equiv_pos_site_id
 _symmetry_equiv_pos_as_xyz
  1  'x, y, z'
loop_
 _atom_site_type_symbol
 _atom_site_label
 _atom_site_symmetry_multiplicity
 _atom_site_fract_x
 _atom_site_fract_y
 _atom_site_fract_z
 _atom_site_occupancy
  Na  Na0  1  0.86125202  0.91986000  0.78111198  1
  Na  Na1  1  0.13874800  0.08014000  0.21888800  1
  Na  Na2  1  0.50000002  0.00000000  0.00000002  1
  Na  Na3  1  -0.00000001  0.50000000  -0.00000003  1
  P  P4  1  0.28193200  0.40405400  0.68598599  1
  P  P5  1  0.71806802  0.59594600  0.31401400  1
  O  O6  1  0.57061401  0.29135300  0.24520601  1
  O  O7  1  0.04614700  0.32540800  0.75479398  1
  O  O8  1  0.42938601  0.70864700  0.75479398  1
  O  O9  1  0.95385302  0.67459200  0.24520600  1
  O  O10  1  0.13172899  0.85057000  0.98229896  1
  O  O11  1  0.86827102  0.14943000  0.01770103  1
  O  O12  1  0.53014101  0.70006400  0.23020499  1
  O  O13  1  0.46985901  0.29993600  0.76979500  1
  O  O14  1  0.15466400  0.30547300  0.46013699  1
  O  O15  1  0.84533602  0.69452700  0.53986300  1
