# generated using pymatgen
data_AlSiP6
_symmetry_space_group_name_H-M   'P 1'
_cell_length_a   5.77895594
_cell_length_b   5.77895594
_cell_length_c   6.75981283
_cell_angle_alpha   115.30580139
_cell_angle_beta   115.30580139
_cell_angle_gamma   90.00000000
_symmetry_Int_Tables_number   1
_chemical_formula_structural   AlSiP6
_chemical_formula_sum   'Al2 Si2 P12'
_cell_volume   179.83514936
_cell_formula_units_Z   2
loop_
 _symmetry_equiv_pos_site_id
 _symmetry_equiv_pos_as_xyz
  1  'x, y, z'
loop_
 _atom_site_type_symbol
 _atom_site_label
 _atom_site_symmetry_multiplicity
 _atom_site_fract_x
 _atom_site_fract_y
 _atom_site_fract_z
 _atom_site_occupancy
  Al  Al0  1  0.53287000  0.03287000  0.72594596  1
  Al  Al1  1  0.03286999  0.19307600  0.72594597  1
  Si  Si2  1  0.69307599  0.53287000  0.72594594  1
  Si  Si3  1  0.96712998  0.80692400  0.27405394  1
  P  P4  1  0.19307598  0.69307600  0.72594595  1
  P  P5  1  0.46712997  0.96712999  0.27405395  1
  P  P6  1  0.80692399  0.30692400  0.27405396  1
  P  P7  1  0.30692399  0.46713000  0.27405397  1
  P  P8  1  0.00000000  0.00000000  0.00000000  1
  P  P9  1  0.49999999  0.50000000  -0.00000003  1
  P  P10  1  0.24999999  0.25000000  0.49999997  1
  P  P11  1  0.74999998  0.75000000  0.49999994  1
  P  P12  1  0.61491598  0.88508399  0.99999992  1
  P  P13  1  0.11491598  0.61491600  -0.00000002  1
  P  P14  1  0.88508399  0.38508400  -0.00000003  1
  P  P15  1  0.38508400  0.11491600  -0.00000001  1
