# generated using pymatgen
data_TlSb3WO13
_symmetry_space_group_name_H-M   'P 1'
_cell_length_a   7.28285980
_cell_length_b   7.36586332
_cell_length_c   7.36586332
_cell_angle_alpha   60.32716370
_cell_angle_beta   60.37207031
_cell_angle_gamma   60.37207031
_symmetry_Int_Tables_number   1
_chemical_formula_structural   TlSb3WO13
_chemical_formula_sum   'Tl1 Sb3 W1 O13'
_cell_volume   281.66196451
_cell_formula_units_Z   1
loop_
 _symmetry_equiv_pos_site_id
 _symmetry_equiv_pos_as_xyz
  1  'x, y, z'
loop_
 _atom_site_type_symbol
 _atom_site_label
 _atom_site_symmetry_multiplicity
 _atom_site_fract_x
 _atom_site_fract_y
 _atom_site_fract_z
 _atom_site_occupancy
  Sb  Sb0  1  0.40298801  0.28884600  0.40517801  1
  Tl  Tl1  1  0.59701202  0.59482199  0.71115401  1
  Sb  Sb2  1  0.50000003  0.99877599  0.00122400  1
  Sb  Sb3  1  1.00000004  0.99877599  0.00122402  1
  W  W4  1  0.99869902  0.49823599  0.00436602  1
  O  O5  1  0.00130002  0.99563399  0.50176499  1
  O  O6  1  0.32558703  0.92734099  0.92148400  1
  O  O7  1  0.94103002  0.30852800  0.30941202  1
  O  O8  1  0.93151903  0.93563699  0.32049502  1
  O  O9  1  0.31306601  0.32010400  0.93327700  1
  O  O10  1  0.93355202  0.32010500  0.93327702  1
  O  O11  1  0.31235003  0.93563599  0.32049500  1
  O  O12  1  0.67441201  0.07851700  0.07265902  1
  O  O13  1  0.05897002  0.69058799  0.69147199  1
  O  O14  1  0.06644700  0.06672300  0.67989600  1
  O  O15  1  0.68765002  0.67950499  0.06436401  1
  O  O16  1  0.06848102  0.67950399  0.06436399  1
  O  O17  1  0.68693301  0.06672400  0.67989602  1
