# generated using pymatgen
data_K2AsBr7
_symmetry_space_group_name_H-M   'P 1'
_cell_length_a   7.69696188
_cell_length_b   7.69696188
_cell_length_c   7.69696140
_cell_angle_alpha   60.01451111
_cell_angle_beta   60.01451111
_cell_angle_gamma   60.01451111
_symmetry_Int_Tables_number   1
_chemical_formula_structural   K2AsBr7
_chemical_formula_sum   'K2 As1 Br7'
_cell_volume   322.54166973
_cell_formula_units_Z   1
loop_
 _symmetry_equiv_pos_site_id
 _symmetry_equiv_pos_as_xyz
  1  'x, y, z'
loop_
 _atom_site_type_symbol
 _atom_site_label
 _atom_site_symmetry_multiplicity
 _atom_site_fract_x
 _atom_site_fract_y
 _atom_site_fract_z
 _atom_site_occupancy
  K  K0  1  0.26760699  0.26760700  0.26760700  1
  K  K1  1  0.76760697  0.76760699  0.76760700  1
  As  As2  1  0.00456700  0.00456700  0.00456700  1
  Br  Br3  1  0.50456698  0.50456699  0.50456700  1
  Br  Br4  1  0.80724598  0.24984500  0.69923600  1
  Br  Br5  1  0.69923597  0.80724599  0.24984501  1
  Br  Br6  1  0.24984498  0.69923599  0.80724600  1
  Br  Br7  1  0.30724599  0.19923600  0.74984499  1
  Br  Br8  1  0.19923598  0.74984499  0.30724601  1
  Br  Br9  1  0.74984498  0.30724600  0.19923601  1
