# generated using pymatgen
data_YbCeIn
_symmetry_space_group_name_H-M   'P 1'
_cell_length_a   3.35587502
_cell_length_b   5.57291794
_cell_length_c   5.57291746
_cell_angle_alpha   120.00000000
_cell_angle_beta   90.00000000
_cell_angle_gamma   90.00000000
_symmetry_Int_Tables_number   1
_chemical_formula_structural   YbCeIn
_chemical_formula_sum   'Yb1 Ce1 In1'
_cell_volume   90.26131751
_cell_formula_units_Z   1
loop_
 _symmetry_equiv_pos_site_id
 _symmetry_equiv_pos_as_xyz
  1  'x, y, z'
loop_
 _atom_site_type_symbol
 _atom_site_label
 _atom_site_symmetry_multiplicity
 _atom_site_fract_x
 _atom_site_fract_y
 _atom_site_fract_z
 _atom_site_occupancy
  Ce  Ce0  1  0.50000000  0.00000000  -0.00000000  1
  Yb  Yb1  1  -0.00000000  0.66666665  0.33333330  1
  In  In2  1  0.50000000  0.33333333  0.66666665  1
