# generated using pymatgen
data_La2NbSb5O12
_symmetry_space_group_name_H-M   'P 1'
_cell_length_a   5.46763897
_cell_length_b   5.67657280
_cell_length_c   7.84075594
_cell_angle_alpha   90.00004578
_cell_angle_beta   90.00093842
_cell_angle_gamma   89.99982452
_symmetry_Int_Tables_number   1
_chemical_formula_structural   La2NbSb5O12
_chemical_formula_sum   'La2 Nb1 Sb5 O12'
_cell_volume   243.35707551
_cell_formula_units_Z   1
loop_
 _symmetry_equiv_pos_site_id
 _symmetry_equiv_pos_as_xyz
  1  'x, y, z'
loop_
 _atom_site_type_symbol
 _atom_site_label
 _atom_site_symmetry_multiplicity
 _atom_site_fract_x
 _atom_site_fract_y
 _atom_site_fract_z
 _atom_site_occupancy
  La  La0  1  0.99999900  0.50000302  0.99999901  1
  Nb  Nb1  1  0.49999899  0.99999904  0.49999897  1
  La  La2  1  0.99999800  0.49999402  0.50000001  1
  Sb  Sb3  1  0.50000299  0.99999804  0.99999798  1
  Sb  Sb4  1  0.99065099  0.94763303  0.25000499  1
  Sb  Sb5  1  0.00934300  0.05236700  0.74999500  1
  Sb  Sb6  1  0.49065799  0.55236702  0.75000399  1
  Sb  Sb7  1  0.50934800  0.44763702  0.24999600  1
  O  O8  1  0.09297299  0.52747302  0.24993998  1
  O  O9  1  0.59296599  0.97252703  0.74993398  1
  O  O10  1  0.90702900  0.47252802  0.75006101  1
  O  O11  1  0.40703300  0.02747100  0.25006601  1
  O  O12  1  0.19753099  0.79895803  0.54532297  1
  O  O13  1  0.30247700  0.29895101  0.95467400  1
  O  O14  1  0.30258600  0.29883701  0.54533800  1
  O  O15  1  0.69741199  0.70116702  0.45466199  1
  O  O16  1  0.19741999  0.79884403  0.95466298  1
  O  O17  1  0.80246700  0.20104301  0.45467702  1
  O  O18  1  0.80258200  0.20115701  0.04533901  1
  O  O19  1  0.69752399  0.70104702  0.04532599  1
