# generated using pymatgen
data_SrGeAu
_symmetry_space_group_name_H-M   'P 1'
_cell_length_a   4.70091295
_cell_length_b   7.68612719
_cell_length_c   8.47508240
_cell_angle_alpha   90.00000000
_cell_angle_beta   90.00000000
_cell_angle_gamma   90.00000000
_symmetry_Int_Tables_number   1
_chemical_formula_structural   SrGeAu
_chemical_formula_sum   'Sr4 Ge4 Au4'
_cell_volume   306.22010795
_cell_formula_units_Z   4
loop_
 _symmetry_equiv_pos_site_id
 _symmetry_equiv_pos_as_xyz
  1  'x, y, z'
loop_
 _atom_site_type_symbol
 _atom_site_label
 _atom_site_symmetry_multiplicity
 _atom_site_fract_x
 _atom_site_fract_y
 _atom_site_fract_z
 _atom_site_occupancy
  Sr  Sr0  1  0.75000001  0.18357700  0.00076300  1
  Sr  Sr1  1  0.25000000  0.81642298  0.99923695  1
  Sr  Sr2  1  0.75000001  0.31642299  0.50076298  1
  Sr  Sr3  1  0.25000000  0.68357698  0.49923698  1
  Ge  Ge4  1  0.25000000  0.08444200  0.67532797  1
  Ge  Ge5  1  0.75000001  0.91555798  0.32467198  1
  Ge  Ge6  1  0.25000000  0.41555799  0.17532799  1
  Ge  Ge7  1  0.75000001  0.58444199  0.82467196  1
  Au  Au8  1  0.75000001  0.59971699  0.18458499  1
  Au  Au9  1  0.25000000  0.40028299  0.81541496  1
  Au  Au10  1  0.75000001  0.90028298  0.68458497  1
  Au  Au11  1  0.25000000  0.09971700  0.31541499  1
