# generated using pymatgen
data_NaLiLa2Ti2O4
_symmetry_space_group_name_H-M   'P 1'
_cell_length_a   4.97021198
_cell_length_b   5.94062757
_cell_length_c   6.48837233
_cell_angle_alpha   65.68461609
_cell_angle_beta   67.47979736
_cell_angle_gamma   65.27119446
_symmetry_Int_Tables_number   1
_chemical_formula_structural   NaLiLa2Ti2O4
_chemical_formula_sum   'Na1 Li1 La2 Ti2 O4'
_cell_volume   153.34637135
_cell_formula_units_Z   1
loop_
 _symmetry_equiv_pos_site_id
 _symmetry_equiv_pos_as_xyz
  1  'x, y, z'
loop_
 _atom_site_type_symbol
 _atom_site_label
 _atom_site_symmetry_multiplicity
 _atom_site_fract_x
 _atom_site_fract_y
 _atom_site_fract_z
 _atom_site_occupancy
  La  La0  1  0.32168105  0.76037400  0.59626398  1
  La  La1  1  0.67831902  0.23962600  0.40373599  1
  Na  Na2  1  0.96032403  0.31280200  0.76654998  1
  Li  Li3  1  0.03967605  0.68719800  0.23344999  1
  Ti  Ti4  1  0.62647406  0.87109700  0.87595498  1
  Ti  Ti5  1  0.37352601  0.12890300  0.12404499  1
  O  O6  1  0.81500106  0.76027200  0.60972598  1
  O  O7  1  0.18499902  0.23972800  0.39027399  1
  O  O8  1  0.52762806  0.74806500  0.19667898  1
  O  O9  1  0.47237202  0.25193500  0.80332099  1
