# generated using pymatgen
data_SiO3
_symmetry_space_group_name_H-M   'P 1'
_cell_length_a   5.05099583
_cell_length_b   5.21394396
_cell_length_c   5.22700787
_cell_angle_alpha   117.57679749
_cell_angle_beta   90.00000000
_cell_angle_gamma   118.97145844
_symmetry_Int_Tables_number   1
_chemical_formula_structural   SiO3
_chemical_formula_sum   'Si2 O6'
_cell_volume   102.18811056
_cell_formula_units_Z   2
loop_
 _symmetry_equiv_pos_site_id
 _symmetry_equiv_pos_as_xyz
  1  'x, y, z'
loop_
 _atom_site_type_symbol
 _atom_site_label
 _atom_site_symmetry_multiplicity
 _atom_site_fract_x
 _atom_site_fract_y
 _atom_site_fract_z
 _atom_site_occupancy
  Si  Si0  1  0.23343610  0.99576809  0.80950007  1
  Si  Si1  1  0.76233212  0.99576809  0.30950007  1
  O  O2  1  0.13719606  0.59606305  0.61318604  1
  O  O3  1  0.95611712  0.99327109  0.60295807  1
  O  O4  1  0.45886707  0.59606305  0.11318604  1
  O  O5  1  0.03715409  0.99327109  0.10295807  1
  O  O6  1  0.54652603  0.17246702  0.61070801  1
  O  O7  1  0.62594104  0.17246702  0.11070801  1
