# generated using pymatgen
data_Li4Cu3O7
_symmetry_space_group_name_H-M   'P 1'
_cell_length_a   3.77201104
_cell_length_b   5.74571180
_cell_length_c   9.34798813
_cell_angle_alpha   90.00000000
_cell_angle_beta   90.00000000
_cell_angle_gamma   104.22882080
_symmetry_Int_Tables_number   1
_chemical_formula_structural   Li4Cu3O7
_chemical_formula_sum   'Li4 Cu3 O7'
_cell_volume   196.38257089
_cell_formula_units_Z   1
loop_
 _symmetry_equiv_pos_site_id
 _symmetry_equiv_pos_as_xyz
  1  'x, y, z'
loop_
 _atom_site_type_symbol
 _atom_site_label
 _atom_site_symmetry_multiplicity
 _atom_site_fract_x
 _atom_site_fract_y
 _atom_site_fract_z
 _atom_site_occupancy
  Li  Li0  1  0.29386104  0.55104301  0.14172400  1
  Li  Li1  1  0.70613906  0.94895702  0.64172399  1
  Li  Li2  1  0.70613903  0.44895701  0.85827599  1
  Li  Li3  1  0.29386100  0.05104300  0.35827600  1
  Cu  Cu4  1  0.00000004  0.50000001  0.49999999  1
  Cu  Cu5  1  0.00000000  0.00000000  0.00000000  1
  O  O6  1  0.05267602  0.33103101  0.30795400  1
  Cu  Cu7  1  0.94732400  0.16896900  0.80795399  1
  O  O8  1  0.94732404  0.66896901  0.69204599  1
  O  O9  1  0.05267606  0.83103102  0.19204600  1
  O  O10  1  0.46777301  0.27114000  0.04306900  1
  O  O11  1  0.53222701  0.22886000  0.54306899  1
  O  O12  1  0.46777305  0.77114001  0.45693099  1
  O  O13  1  0.53222705  0.72886001  0.95693099  1
