# generated using pymatgen
data_Sc4AlFe(B2Rh5)2
_symmetry_space_group_name_H-M   'P 1'
_cell_length_a   3.01514006
_cell_length_b   9.46709919
_cell_length_c   9.46709919
_cell_angle_alpha   90.00000000
_cell_angle_beta   90.00000000
_cell_angle_gamma   90.00000000
_symmetry_Int_Tables_number   1
_chemical_formula_structural   Sc4AlFe(B2Rh5)2
_chemical_formula_sum   'Sc4 Al1 Fe1 B4 Rh10'
_cell_volume   270.23484342
_cell_formula_units_Z   1
loop_
 _symmetry_equiv_pos_site_id
 _symmetry_equiv_pos_as_xyz
  1  'x, y, z'
loop_
 _atom_site_type_symbol
 _atom_site_label
 _atom_site_symmetry_multiplicity
 _atom_site_fract_x
 _atom_site_fract_y
 _atom_site_fract_z
 _atom_site_occupancy
  Sc  Sc0  1  0.99999998  0.82390498  0.67609499  1
  Sc  Sc1  1  0.99999998  0.17609500  0.32390499  1
  Sc  Sc2  1  0.99999998  0.32390499  0.82390498  1
  Sc  Sc3  1  0.00000000  0.67609499  0.17609500  1
  Fe  Fe4  1  0.00000000  0.49999999  0.49999999  1
  Al  Al5  1  0.00000000  0.00000000  0.00000000  1
  B  B6  1  0.99999998  0.62151199  0.87848798  1
  B  B7  1  0.99999998  0.37848799  0.12151200  1
  B  B8  1  0.00000000  0.12151200  0.62151199  1
  B  B9  1  0.00000000  0.87848798  0.37848799  1
  Rh  Rh10  1  0.49999999  0.57130199  0.71839399  1
  Rh  Rh11  1  0.49999999  0.42869799  0.28160599  1
  Rh  Rh12  1  0.49999999  0.07130200  0.78160598  1
  Rh  Rh13  1  0.49999999  0.92869798  0.21839400  1
  Rh  Rh14  1  0.49999999  0.28160599  0.57130199  1
  Rh  Rh15  1  0.49999999  0.71839399  0.42869799  1
  Rh  Rh16  1  0.49999999  0.21839400  0.07130200  1
  Rh  Rh17  1  0.49999999  0.78160598  0.92869798  1
  Rh  Rh18  1  0.49999999  0.49999999  -0.00000000  1
  Rh  Rh19  1  0.49999999  0.00000000  0.49999999  1
