# generated using pymatgen
data_Sb7PtRh4
_symmetry_space_group_name_H-M   'P 1'
_cell_length_a   6.35007477
_cell_length_b   6.35007477
_cell_length_c   6.35007477
_cell_angle_alpha   90.00000000
_cell_angle_beta   90.00000000
_cell_angle_gamma   90.00000000
_symmetry_Int_Tables_number   1
_chemical_formula_structural   Sb7PtRh4
_chemical_formula_sum   'Sb7 Rh4 Pt1'
_cell_volume   256.05691961
_cell_formula_units_Z   1
loop_
 _symmetry_equiv_pos_site_id
 _symmetry_equiv_pos_as_xyz
  1  'x, y, z'
loop_
 _atom_site_type_symbol
 _atom_site_label
 _atom_site_symmetry_multiplicity
 _atom_site_fract_x
 _atom_site_fract_y
 _atom_site_fract_z
 _atom_site_occupancy
  Sb  Sb0  1  0.12365000  0.87635003  0.37635001  1
  Sb  Sb1  1  0.87635003  0.37635001  0.12365000  1
  Sb  Sb2  1  0.37635001  0.12365000  0.87635003  1
  Sb  Sb3  1  0.62365002  0.62365002  0.62365002  1
  Sb  Sb4  1  0.87859503  0.12140500  0.62140502  1
  Sb  Sb5  1  0.12140500  0.62140502  0.87859503  1
  Sb  Sb6  1  0.62140502  0.87859503  0.12140500  1
  Rh  Rh7  1  0.37859501  0.37859501  0.37859501  1
  Rh  Rh8  1  0.51329702  0.48670302  0.98670304  1
  Rh  Rh9  1  0.48670302  0.98670304  0.51329702  1
  Rh  Rh10  1  0.98670304  0.51329702  0.48670302  1
  Pt  Pt11  1  0.01329700  0.01329700  0.01329700  1
