# generated using pymatgen
data_Na4ZrO7
_symmetry_space_group_name_H-M   'P 1'
_cell_length_a   4.09289217
_cell_length_b   7.00387812
_cell_length_c   7.19344282
_cell_angle_alpha   83.15820312
_cell_angle_beta   73.47177124
_cell_angle_gamma   73.01103210
_symmetry_Int_Tables_number   1
_chemical_formula_structural   Na4ZrO7
_chemical_formula_sum   'Na4 Zr1 O7'
_cell_volume   188.91478472
_cell_formula_units_Z   1
loop_
 _symmetry_equiv_pos_site_id
 _symmetry_equiv_pos_as_xyz
  1  'x, y, z'
loop_
 _atom_site_type_symbol
 _atom_site_label
 _atom_site_symmetry_multiplicity
 _atom_site_fract_x
 _atom_site_fract_y
 _atom_site_fract_z
 _atom_site_occupancy
  Na  Na0  1  0.58469497  0.21922700  0.61138301  1
  Na  Na1  1  0.41530495  0.78077299  0.38861704  1
  Na  Na2  1  0.74936794  0.66099699  0.84026703  1
  Na  Na3  1  0.25063198  0.33900299  0.15973302  1
  Zr  Zr4  1  0.00000000  0.00000000  0.00000000  1
  O  O5  1  0.79718993  0.85235698  0.55326304  1
  O  O6  1  0.20280999  0.14764300  0.44673701  1
  O  O7  1  0.08967797  0.71042299  0.11022104  1
  O  O8  1  0.91032195  0.28957699  0.88977901  1
  O  O9  1  0.36785796  0.57125199  0.69303203  1
  O  O10  1  0.49999998  0.00000000  -0.00000000  1
  O  O11  1  0.63214196  0.42874799  0.30696802  1
