# generated using pymatgen
data_Sn2Pt
_symmetry_space_group_name_H-M   'P 1'
_cell_length_a   5.73588037
_cell_length_b   5.73588037
_cell_length_c   5.73588037
_cell_angle_alpha   105.54105377
_cell_angle_beta   105.54105377
_cell_angle_gamma   117.65473938
_symmetry_Int_Tables_number   1
_chemical_formula_structural   Sn2Pt
_chemical_formula_sum   'Sn4 Pt2'
_cell_volume   143.01884115
_cell_formula_units_Z   2
loop_
 _symmetry_equiv_pos_site_id
 _symmetry_equiv_pos_as_xyz
  1  'x, y, z'
loop_
 _atom_site_type_symbol
 _atom_site_label
 _atom_site_symmetry_multiplicity
 _atom_site_fract_x
 _atom_site_fract_y
 _atom_site_fract_z
 _atom_site_occupancy
  Sn  Sn0  1  0.00000000  0.00000000  0.00000000  1
  Sn  Sn1  1  0.50000002  0.50000002  0.00000002  1
  Sn  Sn2  1  0.08492503  0.91507503  0.50000003  1
  Sn  Sn3  1  0.41507502  0.58492502  0.50000002  1
  Pt  Pt4  1  0.91507502  0.41507501  0.83015003  1
  Pt  Pt5  1  0.58492501  0.08492500  0.16985001  1
