# generated using pymatgen
data_TbPt
_symmetry_space_group_name_H-M   'P 1'
_cell_length_a   4.44026613
_cell_length_b   6.14281178
_cell_length_c   7.09650183
_cell_angle_alpha   90.00000000
_cell_angle_beta   90.00000000
_cell_angle_gamma   90.00000000
_symmetry_Int_Tables_number   1
_chemical_formula_structural   TbPt
_chemical_formula_sum   'Tb4 Pt4'
_cell_volume   193.56219031
_cell_formula_units_Z   4
loop_
 _symmetry_equiv_pos_site_id
 _symmetry_equiv_pos_as_xyz
  1  'x, y, z'
loop_
 _atom_site_type_symbol
 _atom_site_label
 _atom_site_symmetry_multiplicity
 _atom_site_fract_x
 _atom_site_fract_y
 _atom_site_fract_z
 _atom_site_occupancy
  Tb  Tb0  1  0.24999999  0.35872201  0.67275002  1
  Tb  Tb1  1  0.24999999  0.14127801  0.17275000  1
  Tb  Tb2  1  0.74999998  0.64127802  0.32725001  1
  Tb  Tb3  1  0.74999998  0.85872203  0.82725002  1
  Pt  Pt4  1  0.24999999  0.88888903  0.53643401  1
  Pt  Pt5  1  0.24999999  0.61111102  0.03643400  1
  Pt  Pt6  1  0.74999998  0.11111100  0.46356601  1
  Pt  Pt7  1  0.74999998  0.38888901  0.96356602  1
