# generated using pymatgen
data_NaMgF2
_symmetry_space_group_name_H-M   'P 1'
_cell_length_a   3.40753293
_cell_length_b   5.68732595
_cell_length_c   5.90215349
_cell_angle_alpha   89.97590637
_cell_angle_beta   90.00000000
_cell_angle_gamma   90.00000000
_symmetry_Int_Tables_number   1
_chemical_formula_structural   NaMgF2
_chemical_formula_sum   'Na2 Mg2 F4'
_cell_volume   114.38225183
_cell_formula_units_Z   2
loop_
 _symmetry_equiv_pos_site_id
 _symmetry_equiv_pos_as_xyz
  1  'x, y, z'
loop_
 _atom_site_type_symbol
 _atom_site_label
 _atom_site_symmetry_multiplicity
 _atom_site_fract_x
 _atom_site_fract_y
 _atom_site_fract_z
 _atom_site_occupancy
  Na  Na0  1  0.25822501  0.50000000  0.75000001  1
  Na  Na1  1  0.74177502  0.50000000  0.25000001  1
  Mg  Mg2  1  0.74934502  0.00000000  0.25000000  1
  Mg  Mg3  1  0.25065501  0.00000000  0.75000000  1
  F  F4  1  0.24914601  0.20170600  0.08260500  1
  F  F5  1  0.75085402  0.20170600  0.58260500  1
  F  F6  1  0.75085402  0.79829401  0.91739501  1
  F  F7  1  0.24914601  0.79829401  0.41739501  1
