# generated using pymatgen
data_Sr2CuAsPt2
_symmetry_space_group_name_H-M   'P 1'
_cell_length_a   4.32139778
_cell_length_b   4.32139826
_cell_length_c   9.02083302
_cell_angle_alpha   90.00000000
_cell_angle_beta   90.00000000
_cell_angle_gamma   120.00000000
_symmetry_Int_Tables_number   1
_chemical_formula_structural   Sr2CuAsPt2
_chemical_formula_sum   'Sr2 Cu1 As1 Pt2'
_cell_volume   145.89009683
_cell_formula_units_Z   1
loop_
 _symmetry_equiv_pos_site_id
 _symmetry_equiv_pos_as_xyz
  1  'x, y, z'
loop_
 _atom_site_type_symbol
 _atom_site_label
 _atom_site_symmetry_multiplicity
 _atom_site_fract_x
 _atom_site_fract_y
 _atom_site_fract_z
 _atom_site_occupancy
  Sr  Sr0  1  0.00000000  0.00000000  0.50000000  1
  Sr  Sr1  1  0.00000000  0.00000000  0.00000000  1
  Cu  Cu2  1  0.66666673  0.33333336  0.25000000  1
  As  As3  1  0.33333340  0.66666673  0.75000000  1
  Pt  Pt4  1  0.66666673  0.33333336  0.75000000  1
  Pt  Pt5  1  0.33333340  0.66666673  0.25000000  1
