# generated using pymatgen
data_SiMo3WSe10
_symmetry_space_group_name_H-M   'P 1'
_cell_length_a   7.01534081
_cell_length_b   9.39031696
_cell_length_c   9.39031696
_cell_angle_alpha   79.02675629
_cell_angle_beta   72.12471771
_cell_angle_gamma   72.12471771
_symmetry_Int_Tables_number   1
_chemical_formula_structural   SiMo3WSe10
_chemical_formula_sum   'Si1 Mo3 W1 Se10'
_cell_volume   557.15245250
_cell_formula_units_Z   1
loop_
 _symmetry_equiv_pos_site_id
 _symmetry_equiv_pos_as_xyz
  1  'x, y, z'
loop_
 _atom_site_type_symbol
 _atom_site_label
 _atom_site_symmetry_multiplicity
 _atom_site_fract_x
 _atom_site_fract_y
 _atom_site_fract_z
 _atom_site_occupancy
  W  W0  1  0.00000000  0.00000000  0.00000000  1
  Mo  Mo1  1  0.26868404  0.72250202  0.72250205  1
  Si  Si2  1  0.73131600  0.27749801  0.27749805  1
  Mo  Mo3  1  0.24649404  0.74825602  0.03894702  1
  Mo  Mo4  1  0.24649399  0.03894700  0.74825605  1
  Se  Se5  1  0.75350599  0.25174401  0.96105308  1
  Se  Se6  1  0.75350604  0.96105303  0.25174405  1
  Se  Se7  1  0.20366703  0.47776302  0.78636505  1
  Se  Se8  1  0.20366705  0.78636503  0.47776304  1
  Se  Se9  1  0.79633301  0.52223702  0.21363505  1
  Se  Se10  1  0.79633299  0.21363501  0.52223706  1
  Se  Se11  1  0.83817103  0.87434303  0.87434309  1
  Se  Se12  1  0.16182900  0.12565700  0.12565701  1
  Se  Se13  1  0.35571501  0.34998801  0.34998804  1
  Se  Se14  1  0.64428502  0.65001202  0.65001207  1
