# generated using pymatgen
data_Y3MgSbPbS4
_symmetry_space_group_name_H-M   'P 1'
_cell_length_a   4.05771208
_cell_length_b   4.05948353
_cell_length_c   17.72989464
_cell_angle_alpha   96.35163879
_cell_angle_beta   90.00000000
_cell_angle_gamma   119.98556519
_symmetry_Int_Tables_number   1
_chemical_formula_structural   Y3MgSbPbS4
_chemical_formula_sum   'Y3 Mg1 Sb1 Pb1 S4'
_cell_volume   250.88818349
_cell_formula_units_Z   1
loop_
 _symmetry_equiv_pos_site_id
 _symmetry_equiv_pos_as_xyz
  1  'x, y, z'
loop_
 _atom_site_type_symbol
 _atom_site_label
 _atom_site_symmetry_multiplicity
 _atom_site_fract_x
 _atom_site_fract_y
 _atom_site_fract_z
 _atom_site_occupancy
  Y  Y0  1  0.23451599  0.46903199  0.72925597  1
  Y  Y1  1  0.96383797  0.92767598  0.88880797  1
  Y  Y2  1  0.85119597  0.70239198  0.57291298  1
  Mg  Mg3  1  0.76548398  0.53096799  0.27074399  1
  Pb  Pb4  1  0.03616200  0.07232400  0.11119200  1
  Sb  Sb5  1  0.14880399  0.29760799  0.42708698  1
  S  S6  1  0.54231699  0.08463400  0.65011997  1
  S  S7  1  0.45768298  0.91536598  0.34988000  1
  S  S8  1  0.34704198  0.69408398  0.04206501  1
  S  S9  1  0.65295798  0.30591599  0.95793496  1
