# generated using pymatgen
data_La2Mg
_symmetry_space_group_name_H-M   'P 1'
_cell_length_a   3.54640794
_cell_length_b   5.58321190
_cell_length_c   9.27736282
_cell_angle_alpha   90.00000000
_cell_angle_beta   101.01887512
_cell_angle_gamma   90.00000000
_symmetry_Int_Tables_number   1
_chemical_formula_structural   La2Mg
_chemical_formula_sum   'La4 Mg2'
_cell_volume   180.30845190
_cell_formula_units_Z   2
loop_
 _symmetry_equiv_pos_site_id
 _symmetry_equiv_pos_as_xyz
  1  'x, y, z'
loop_
 _atom_site_type_symbol
 _atom_site_label
 _atom_site_symmetry_multiplicity
 _atom_site_fract_x
 _atom_site_fract_y
 _atom_site_fract_z
 _atom_site_occupancy
  La  La0  1  0.00093000  0.50000001  0.00186000  1
  La  La1  1  0.67100302  0.50000001  0.34200601  1
  La  La2  1  0.33312101  0.50000001  0.66624201  1
  La  La3  1  0.55329201  0.00000000  0.10658401  1
  Mg  Mg4  1  0.88625402  0.00000000  0.77250802  1
  Mg  Mg5  1  0.22207301  0.00000000  0.44414601  1
