# generated using pymatgen
data_Ce3Co11Ge4
_symmetry_space_group_name_H-M   'P 1'
_cell_length_a   3.82494402
_cell_length_b   9.17171764
_cell_length_c   9.17171860
_cell_angle_alpha   120.00000000
_cell_angle_beta   90.00000000
_cell_angle_gamma   90.00000000
_symmetry_Int_Tables_number   1
_chemical_formula_structural   Ce3Co11Ge4
_chemical_formula_sum   'Ce3 Co11 Ge4'
_cell_volume   278.64875870
_cell_formula_units_Z   1
loop_
 _symmetry_equiv_pos_site_id
 _symmetry_equiv_pos_as_xyz
  1  'x, y, z'
loop_
 _atom_site_type_symbol
 _atom_site_label
 _atom_site_symmetry_multiplicity
 _atom_site_fract_x
 _atom_site_fract_y
 _atom_site_fract_z
 _atom_site_occupancy
  Ce  Ce0  1  0.00000000  0.00000000  0.00000000  1
  Ce  Ce1  1  0.50000000  0.33333336  0.66666673  1
  Ce  Ce2  1  0.50000000  0.66666672  0.33333340  1
  Ge  Ge3  1  0.50000000  0.31706402  1.00000007  1
  Co  Co4  1  0.50000000  0.68293605  0.68293609  1
  Co  Co5  1  0.50000000  0.00000000  0.31706402  1
  Co  Co6  1  0.50000000  0.68293605  1.00000010  1
  Co  Co7  1  0.50000000  0.31706402  0.31706404  1
  Co  Co8  1  0.50000000  0.00000000  0.68293603  1
  Co  Co9  1  0.99999999  0.50000004  1.00000009  1
  Co  Co10  1  0.99999999  0.50000004  0.50000006  1
  Co  Co11  1  0.00000000  0.00000000  0.50000002  1
  Co  Co12  1  0.99999999  0.18249701  0.36499403  1
  Ge  Ge13  1  0.99999999  0.18249701  0.81750205  1
  Co  Co14  1  0.99999999  0.63500505  0.81750209  1
  Co  Co15  1  0.99999999  0.81750306  0.63500609  1
  Ge  Ge16  1  0.99999999  0.36499503  0.18249804  1
  Ge  Ge17  1  -0.00000000  0.81750306  0.18249807  1
