# generated using pymatgen
data_GdSiOs2C
_symmetry_space_group_name_H-M   'P 1'
_cell_length_a   3.83454990
_cell_length_b   5.89649248
_cell_length_c   7.11747408
_cell_angle_alpha   90.00000000
_cell_angle_beta   90.00000000
_cell_angle_gamma   108.97497559
_symmetry_Int_Tables_number   1
_chemical_formula_structural   GdSiOs2C
_chemical_formula_sum   'Gd2 Si2 Os4 C2'
_cell_volume   152.18413115
_cell_formula_units_Z   2
loop_
 _symmetry_equiv_pos_site_id
 _symmetry_equiv_pos_as_xyz
  1  'x, y, z'
loop_
 _atom_site_type_symbol
 _atom_site_label
 _atom_site_symmetry_multiplicity
 _atom_site_fract_x
 _atom_site_fract_y
 _atom_site_fract_z
 _atom_site_occupancy
  Gd  Gd0  1  0.45357599  0.90715199  0.74999999  1
  Gd  Gd1  1  0.54642401  0.09284800  0.25000000  1
  Si  Si2  1  0.73166201  0.46332399  0.74999999  1
  Si  Si3  1  0.26833800  0.53667599  0.25000000  1
  Os  Os4  1  0.16461500  0.32922999  0.94211599  1
  Os  Os5  1  0.83538501  0.67076999  0.05788400  1
  Os  Os6  1  0.83538501  0.67076999  0.44211600  1
  Os  Os7  1  0.16461500  0.32922999  0.55788399  1
  C  C8  1  0.00000000  0.00000000  0.00000000  1
  C  C9  1  0.00000000  0.00000000  0.49999999  1
