# generated using pymatgen
data_VCoO2
_symmetry_space_group_name_H-M   'P 1'
_cell_length_a   3.14858508
_cell_length_b   5.07768106
_cell_length_c   5.45158577
_cell_angle_alpha   89.96604919
_cell_angle_beta   90.00000000
_cell_angle_gamma   90.00000000
_symmetry_Int_Tables_number   1
_chemical_formula_structural   VCoO2
_chemical_formula_sum   'V2 Co2 O4'
_cell_volume   87.15727132
_cell_formula_units_Z   2
loop_
 _symmetry_equiv_pos_site_id
 _symmetry_equiv_pos_as_xyz
  1  'x, y, z'
loop_
 _atom_site_type_symbol
 _atom_site_label
 _atom_site_symmetry_multiplicity
 _atom_site_fract_x
 _atom_site_fract_y
 _atom_site_fract_z
 _atom_site_occupancy
  V  V0  1  0.49999999  0.49978899  0.83270800  1
  V  V1  1  0.49999999  0.00085700  0.16493601  1
  Co  Co2  1  0.00000000  0.00072700  0.66855902  1
  Co  Co3  1  0.00000000  0.49993699  0.33368298  1
  O  O4  1  -0.00000000  0.11052500  0.33378100  1
  O  O5  1  0.49999999  0.12260100  0.83284902  1
  O  O6  1  0.49999999  0.62585799  0.15892297  1
  O  O7  1  0.00000000  0.62330699  0.67455999  1
