# generated using pymatgen
data_AgAs
_symmetry_space_group_name_H-M   'P 1'
_cell_length_a   4.79160786
_cell_length_b   5.98951292
_cell_length_c   10.31374645
_cell_angle_alpha   90.00000000
_cell_angle_beta   90.00000000
_cell_angle_gamma   90.00000000
_symmetry_Int_Tables_number   1
_chemical_formula_structural   AgAs
_chemical_formula_sum   'Ag8 As8'
_cell_volume   295.99830572
_cell_formula_units_Z   8
loop_
 _symmetry_equiv_pos_site_id
 _symmetry_equiv_pos_as_xyz
  1  'x, y, z'
loop_
 _atom_site_type_symbol
 _atom_site_label
 _atom_site_symmetry_multiplicity
 _atom_site_fract_x
 _atom_site_fract_y
 _atom_site_fract_z
 _atom_site_occupancy
  Ag  Ag0  1  0.50000001  0.50000001  0.33031599  1
  Ag  Ag1  1  0.50000001  0.00000000  0.84231896  1
  Ag  Ag2  1  0.50000001  0.74614201  0.08435200  1
  Ag  Ag3  1  0.50000001  0.25922900  0.58191897  1
  Ag  Ag4  1  0.50000001  0.25385800  0.08435200  1
  Ag  Ag5  1  0.50000001  0.74077101  0.58191897  1
  As  As6  1  0.00000000  0.00000000  0.16198399  1
  As  As7  1  0.00000000  0.50000001  0.65780897  1
  Ag  Ag8  1  0.00000000  0.73240301  0.40860098  1
  As  As9  1  0.00000000  0.24747500  0.92807896  1
  Ag  Ag10  1  0.00000000  0.26759700  0.40860098  1
  As  As11  1  0.00000000  0.75252501  0.92807896  1
  As  As12  1  0.00000000  0.50000001  0.16876499  1
  As  As13  1  0.00000000  0.00000000  0.66474597  1
  As  As14  1  0.50000001  0.00000000  0.33613999  1
  As  As15  1  0.50000001  0.50000001  0.83194996  1
