# generated using pymatgen
data_DySiIr
_symmetry_space_group_name_H-M   'P 1'
_cell_length_a   4.19231796
_cell_length_b   6.74483490
_cell_length_c   7.44927216
_cell_angle_alpha   90.00000000
_cell_angle_beta   90.00000000
_cell_angle_gamma   90.00000000
_symmetry_Int_Tables_number   1
_chemical_formula_structural   DySiIr
_chemical_formula_sum   'Dy4 Si4 Ir4'
_cell_volume   210.63928829
_cell_formula_units_Z   4
loop_
 _symmetry_equiv_pos_site_id
 _symmetry_equiv_pos_as_xyz
  1  'x, y, z'
loop_
 _atom_site_type_symbol
 _atom_site_label
 _atom_site_symmetry_multiplicity
 _atom_site_fract_x
 _atom_site_fract_y
 _atom_site_fract_z
 _atom_site_occupancy
  Dy  Dy0  1  0.25000000  0.50599801  0.18761300  1
  Dy  Dy1  1  0.75000001  0.49400201  0.81238698  1
  Dy  Dy2  1  0.75000001  0.99400201  0.68761299  1
  Dy  Dy3  1  0.25000000  0.00599800  0.31238699  1
  Si  Si4  1  0.25000000  0.79561901  0.88657098  1
  Si  Si5  1  0.75000001  0.20438100  0.11342900  1
  Si  Si6  1  0.75000001  0.70438101  0.38657099  1
  Si  Si7  1  0.25000000  0.29561900  0.61342899  1
  Ir  Ir8  1  0.25000000  0.65807801  0.56375299  1
  Ir  Ir9  1  0.75000001  0.34192201  0.43624699  1
  Ir  Ir10  1  0.75000001  0.84192201  0.06375300  1
  Ir  Ir11  1  0.25000000  0.15807800  0.93624698  1
