# generated using pymatgen
data_AsP2PbO8
_symmetry_space_group_name_H-M   'P 1'
_cell_length_a   4.87339211
_cell_length_b   5.28824472
_cell_length_c   6.88490009
_cell_angle_alpha   90.00000000
_cell_angle_beta   90.00000000
_cell_angle_gamma   96.61444092
_symmetry_Int_Tables_number   1
_chemical_formula_structural   AsP2PbO8
_chemical_formula_sum   'As1 P2 Pb1 O8'
_cell_volume   176.25445905
_cell_formula_units_Z   1
loop_
 _symmetry_equiv_pos_site_id
 _symmetry_equiv_pos_as_xyz
  1  'x, y, z'
loop_
 _atom_site_type_symbol
 _atom_site_label
 _atom_site_symmetry_multiplicity
 _atom_site_fract_x
 _atom_site_fract_y
 _atom_site_fract_z
 _atom_site_occupancy
  As  As0  1  0.80874795  0.80832301  0.25000000  1
  Pb  Pb1  1  0.19125199  0.19167700  0.74999999  1
  P  P2  1  0.27550698  0.38799801  0.25000000  1
  P  P3  1  0.72449296  0.61200201  0.74999999  1
  O  O4  1  0.82447695  0.76960101  0.57086699  1
  O  O5  1  0.17552299  0.23039900  0.07086700  1
  O  O6  1  0.17552299  0.23039900  0.42913299  1
  O  O7  1  0.82447695  0.76960101  0.92913299  1
  O  O8  1  0.82545297  0.33958800  0.74999999  1
  O  O9  1  0.17454697  0.66041201  0.25000000  1
  O  O10  1  0.40170897  0.55478101  0.74999999  1
  O  O11  1  0.59829097  0.44521901  0.25000000  1
