# generated using pymatgen
data_La5Sb3Br
_symmetry_space_group_name_H-M   'P 1'
_cell_length_a   6.97075891
_cell_length_b   9.88626575
_cell_length_c   9.88626575
_cell_angle_alpha   120.00000000
_cell_angle_beta   90.00000000
_cell_angle_gamma   90.00000000
_symmetry_Int_Tables_number   1
_chemical_formula_structural   La5Sb3Br
_chemical_formula_sum   'La10 Sb6 Br2'
_cell_volume   590.03157863
_cell_formula_units_Z   2
loop_
 _symmetry_equiv_pos_site_id
 _symmetry_equiv_pos_as_xyz
  1  'x, y, z'
loop_
 _atom_site_type_symbol
 _atom_site_label
 _atom_site_symmetry_multiplicity
 _atom_site_fract_x
 _atom_site_fract_y
 _atom_site_fract_z
 _atom_site_occupancy
  La  La0  1  0.25000000  0.27255800  -0.00000001  1
  La  La1  1  0.25000000  0.72744201  0.72744196  1
  La  La2  1  0.25000000  1.00000001  0.27255797  1
  La  La3  1  0.75000001  0.72744201  -0.00000002  1
  La  La4  1  0.75000001  0.27255800  0.27255799  1
  La  La5  1  0.75000001  0.00000000  0.72744199  1
  La  La6  1  -0.00000000  0.33333334  0.66666664  1
  La  La7  1  1.00000001  0.66666667  0.33333331  1
  La  La8  1  0.50000001  0.66666667  0.33333331  1
  La  La9  1  0.50000001  0.33333334  0.66666664  1
  Br  Br10  1  0.00000000  0.00000000  0.00000000  1
  Br  Br11  1  0.50000001  0.00000000  -0.00000000  1
  Sb  Sb12  1  0.25000000  0.62216801  0.99999996  1
  Sb  Sb13  1  0.25000000  0.37783200  0.37783198  1
  Sb  Sb14  1  0.25000000  1.00000001  0.62216796  1
  Sb  Sb15  1  0.75000001  0.37783200  0.99999997  1
  Sb  Sb16  1  0.75000001  0.62216801  0.62216797  1
  Sb  Sb17  1  0.75000001  1.00000001  0.37783196  1
