# generated using pymatgen
data_TlTeBr8
_symmetry_space_group_name_H-M   'P 1'
_cell_length_a   7.10440493
_cell_length_b   7.10440493
_cell_length_c   8.12243938
_cell_angle_alpha   100.62583160
_cell_angle_beta   100.62583160
_cell_angle_gamma   118.39342499
_symmetry_Int_Tables_number   1
_chemical_formula_structural   TlTeBr8
_chemical_formula_sum   'Tl1 Te1 Br8'
_cell_volume   336.45190129
_cell_formula_units_Z   1
loop_
 _symmetry_equiv_pos_site_id
 _symmetry_equiv_pos_as_xyz
  1  'x, y, z'
loop_
 _atom_site_type_symbol
 _atom_site_label
 _atom_site_symmetry_multiplicity
 _atom_site_fract_x
 _atom_site_fract_y
 _atom_site_fract_z
 _atom_site_occupancy
  Tl  Tl0  1  0.12172299  0.87827697  -0.00000005  1
  Te  Te1  1  0.87827697  0.12172300  -0.00000005  1
  Br  Br2  1  0.12917800  0.12917800  0.29160997  1
  Br  Br3  1  0.87082197  0.87082197  0.70838989  1
  Br  Br4  1  0.32073199  0.32073199  0.11711696  1
  Br  Br5  1  0.67926798  0.67926798  0.88288289  1
  Br  Br6  1  0.56937998  0.97772297  0.21889992  1
  Br  Br7  1  0.43061999  0.02227700  0.78109994  1
  Br  Br8  1  0.02227700  0.43061999  0.78109994  1
  Br  Br9  1  0.97772297  0.56937998  0.21889992  1
