# generated using pymatgen
data_La4Mn(RuO4)3
_symmetry_space_group_name_H-M   'P 1'
_cell_length_a   5.42993402
_cell_length_b   5.53273392
_cell_length_c   7.73710871
_cell_angle_alpha   90.00000000
_cell_angle_beta   89.87427521
_cell_angle_gamma   90.00000000
_symmetry_Int_Tables_number   1
_chemical_formula_structural   La4Mn(RuO4)3
_chemical_formula_sum   'La4 Mn1 Ru3 O12'
_cell_volume   232.44060143
_cell_formula_units_Z   1
loop_
 _symmetry_equiv_pos_site_id
 _symmetry_equiv_pos_as_xyz
  1  'x, y, z'
loop_
 _atom_site_type_symbol
 _atom_site_label
 _atom_site_symmetry_multiplicity
 _atom_site_fract_x
 _atom_site_fract_y
 _atom_site_fract_z
 _atom_site_occupancy
  La  La0  1  0.50962500  0.45442901  0.25021002  1
  La  La1  1  0.99037500  0.95442901  0.24979003  1
  La  La2  1  0.49037500  0.54557101  0.74979001  1
  La  La3  1  0.00962500  0.04557100  0.75020999  1
  Mn  Mn4  1  1.00000000  0.50000001  0.50000003  1
  Ru  Ru5  1  0.50000000  1.00000001  0.00000002  1
  Ru  Ru6  1  1.00000000  0.50000001  0.00000004  1
  Ru  Ru7  1  0.50000000  1.00000001  0.50000001  1
  O  O8  1  0.08243200  0.52307901  0.25232400  1
  O  O9  1  0.41756800  0.02307900  0.24767601  1
  O  O10  1  0.91756800  0.47692101  0.74767602  1
  O  O11  1  0.58243200  0.97692101  0.75232401  1
  O  O12  1  0.70720100  0.70555601  0.45779502  1
  O  O13  1  0.79279900  0.20555600  0.04220503  1
  O  O14  1  0.29680400  0.28990300  0.95698500  1
  O  O15  1  0.20319600  0.78990301  0.54301500  1
  O  O16  1  0.29279900  0.29444400  0.54220500  1
  O  O17  1  0.20720100  0.79444401  0.95779500  1
  O  O18  1  0.70319600  0.71009701  0.04301502  1
  O  O19  1  0.79680400  0.21009700  0.45698502  1
