# generated using pymatgen
data_TaTi4C3
_symmetry_space_group_name_H-M   'P 1'
_cell_length_a   3.54414392
_cell_length_b   3.54414415
_cell_length_c   12.55082989
_cell_angle_alpha   90.00000000
_cell_angle_beta   90.00000000
_cell_angle_gamma   120.00000000
_symmetry_Int_Tables_number   1
_chemical_formula_structural   TaTi4C3
_chemical_formula_sum   'Ta1 Ti4 C3'
_cell_volume   136.52928053
_cell_formula_units_Z   1
loop_
 _symmetry_equiv_pos_site_id
 _symmetry_equiv_pos_as_xyz
  1  'x, y, z'
loop_
 _atom_site_type_symbol
 _atom_site_label
 _atom_site_symmetry_multiplicity
 _atom_site_fract_x
 _atom_site_fract_y
 _atom_site_fract_z
 _atom_site_occupancy
  Ti  Ti0  1  0.00000000  0.00000000  0.00000000  1
  Ti  Ti1  1  0.00000000  0.00000000  0.50000000  1
  Ti  Ti2  1  0.33333337  0.66666670  0.25000000  1
  Ti  Ti3  1  0.66666670  0.33333335  0.75000001  1
  Ta  Ta4  1  0.66666670  0.33333335  0.58369401  1
  C  C5  1  0.33333337  0.66666670  0.08369400  1
  C  C6  1  0.66666670  0.33333335  0.91630601  1
  C  C7  1  0.33333337  0.66666670  0.41630600  1
