# generated using pymatgen
data_Li2CoSiO4
_symmetry_space_group_name_H-M   'P 1'
_cell_length_a   5.28080559
_cell_length_b   5.28080559
_cell_length_c   6.31615543
_cell_angle_alpha   89.58462524
_cell_angle_beta   89.58462524
_cell_angle_gamma   91.41934967
_symmetry_Int_Tables_number   1
_chemical_formula_structural   Li2CoSiO4
_chemical_formula_sum   'Li4 Co2 Si2 O8'
_cell_volume   176.07451125
_cell_formula_units_Z   2
loop_
 _symmetry_equiv_pos_site_id
 _symmetry_equiv_pos_as_xyz
  1  'x, y, z'
loop_
 _atom_site_type_symbol
 _atom_site_label
 _atom_site_symmetry_multiplicity
 _atom_site_fract_x
 _atom_site_fract_y
 _atom_site_fract_z
 _atom_site_occupancy
  Li  Li0  1  0.80490596  0.82909500  0.26367093  1
  Li  Li1  1  0.69755698  0.30244300  -0.00000004  1
  Li  Li2  1  0.32780797  0.67219200  0.49999996  1
  Li  Li3  1  0.68135698  0.31864300  0.49999996  1
  Co  Co4  1  0.17090499  0.19509400  0.73632898  1
  Co  Co5  1  0.32220297  0.67779700  -0.00000004  1
  Si  Si6  1  0.81778996  0.83077100  0.74370693  1
  Si  Si7  1  0.16922899  0.18221000  0.25629298  1
  O  O8  1  0.69713996  0.69613200  0.53708394  1
  O  O9  1  0.69007296  0.69880700  0.96629394  1
  O  O10  1  0.22002396  0.86616000  0.24237196  1
  O  O11  1  0.86366099  0.20155500  0.25002596  1
  O  O12  1  0.13383996  0.77997600  0.75762796  1
  O  O13  1  0.79844499  0.13633900  0.74997396  1
  O  O14  1  0.30119298  0.30992700  0.03370598  1
  O  O15  1  0.30386798  0.30286000  0.46291597  1
