# generated using pymatgen
data_Fe(CuSe2)2
_symmetry_space_group_name_H-M   'P 1'
_cell_length_a   3.67958808
_cell_length_b   6.43459463
_cell_length_c   6.91890717
_cell_angle_alpha   116.13916779
_cell_angle_beta   105.42092133
_cell_angle_gamma   90.00000000
_symmetry_Int_Tables_number   1
_chemical_formula_structural   Fe(CuSe2)2
_chemical_formula_sum   'Fe1 Cu2 Se4'
_cell_volume   140.46315052
_cell_formula_units_Z   1
loop_
 _symmetry_equiv_pos_site_id
 _symmetry_equiv_pos_as_xyz
  1  'x, y, z'
loop_
 _atom_site_type_symbol
 _atom_site_label
 _atom_site_symmetry_multiplicity
 _atom_site_fract_x
 _atom_site_fract_y
 _atom_site_fract_z
 _atom_site_occupancy
  Cu  Cu0  1  0.49999996  0.50000000  -0.00000003  1
  Fe  Fe1  1  0.23831498  0.21774000  0.47662998  1
  Cu  Cu2  1  0.76168493  0.78226000  0.52336995  1
  Se  Se3  1  0.86573994  0.52273100  0.73147994  1
  Se  Se4  1  0.13425997  0.47726900  0.26851998  1
  Se  Se5  1  0.37719698  0.04895400  0.75439397  1
  Se  Se6  1  0.62280293  0.95104599  0.24560595  1
