# generated using pymatgen
data_La2NiWO6
_symmetry_space_group_name_H-M   'P 1'
_cell_length_a   5.51087713
_cell_length_b   5.76395702
_cell_length_c   7.89509916
_cell_angle_alpha   90.00000000
_cell_angle_beta   89.73248291
_cell_angle_gamma   90.00000000
_symmetry_Int_Tables_number   1
_chemical_formula_structural   La2NiWO6
_chemical_formula_sum   'La4 Ni2 W2 O12'
_cell_volume   250.78081976
_cell_formula_units_Z   2
loop_
 _symmetry_equiv_pos_site_id
 _symmetry_equiv_pos_as_xyz
  1  'x, y, z'
loop_
 _atom_site_type_symbol
 _atom_site_label
 _atom_site_symmetry_multiplicity
 _atom_site_fract_x
 _atom_site_fract_y
 _atom_site_fract_z
 _atom_site_occupancy
  La  La0  1  0.98318898  0.43774300  0.25046504  1
  La  La1  1  0.01681100  0.56225700  0.74953499  1
  La  La2  1  0.51681099  0.93774300  0.24953502  1
  La  La3  1  0.48318899  0.06225700  0.75046501  1
  Ni  Ni4  1  0.00000000  0.00000000  0.49999999  1
  Ni  Ni5  1  0.49999999  0.50000000  0.00000002  1
  W  W6  1  0.00000000  0.00000000  0.00000000  1
  W  W7  1  0.49999999  0.50000000  0.50000002  1
  O  O8  1  0.10024600  0.03225500  0.24827200  1
  O  O9  1  0.89975398  0.96774500  0.75172803  1
  O  O10  1  0.39975399  0.53225500  0.25172801  1
  O  O11  1  0.60024599  0.46774500  0.74827202  1
  O  O12  1  0.80456798  0.70451300  0.05336603  1
  O  O13  1  0.19543200  0.29548700  0.94663400  1
  O  O14  1  0.69543198  0.20451300  0.44663402  1
  O  O15  1  0.30456799  0.79548700  0.55336601  1
  O  O16  1  0.70050298  0.20055600  0.05168303  1
  O  O17  1  0.29949699  0.79944400  0.94831700  1
  O  O18  1  0.79949698  0.70055600  0.44831703  1
  O  O19  1  0.20050300  0.29944400  0.55168300  1
