# generated using pymatgen
data_Al3Cu3(SiO5)2
_symmetry_space_group_name_H-M   'P 1'
_cell_length_a   3.34566188
_cell_length_b   3.34566164
_cell_length_c   20.97145653
_cell_angle_alpha   90.00000000
_cell_angle_beta   90.00000000
_cell_angle_gamma   120.00000000
_symmetry_Int_Tables_number   1
_chemical_formula_structural   Al3Cu3(SiO5)2
_chemical_formula_sum   'Al3 Si2 Cu3 O10'
_cell_volume   203.29340549
_cell_formula_units_Z   1
loop_
 _symmetry_equiv_pos_site_id
 _symmetry_equiv_pos_as_xyz
  1  'x, y, z'
loop_
 _atom_site_type_symbol
 _atom_site_label
 _atom_site_symmetry_multiplicity
 _atom_site_fract_x
 _atom_site_fract_y
 _atom_site_fract_z
 _atom_site_occupancy
  Al  Al0  1  0.66666667  0.33333334  0.74999998  1
  Al  Al1  1  0.33333331  0.66666667  0.24999999  1
  Si  Si2  1  0.00000000  0.00000000  0.15481000  1
  Al  Al3  1  0.00000000  0.00000000  0.65480998  1
  Si  Si4  1  0.33333331  0.66666667  0.04907900  1
  Cu  Cu5  1  0.66666667  0.33333334  0.54907899  1
  Cu  Cu6  1  0.33333331  0.66666667  0.45092099  1
  Cu  Cu7  1  0.66666667  0.33333334  0.95092098  1
  O  O8  1  0.00000000  0.00000000  0.34518999  1
  O  O9  1  0.00000000  0.00000000  0.84518998  1
  O  O10  1  0.66666667  0.33333334  0.86135098  1
  O  O11  1  0.33333331  0.66666667  0.36135099  1
  O  O12  1  0.33333331  0.66666667  0.13864900  1
  O  O13  1  0.66666667  0.33333334  0.63864898  1
  O  O14  1  0.00000000  0.00000000  0.49999999  1
  O  O15  1  0.00000000  0.00000000  0.00000000  1
  O  O16  1  0.00000000  0.00000000  0.74999998  1
  O  O17  1  0.00000000  0.00000000  0.24999999  1
