# generated using pymatgen
data_Na7CuO5
_symmetry_space_group_name_H-M   'P 1'
_cell_length_a   6.06589603
_cell_length_b   6.06589699
_cell_length_c   6.52927923
_cell_angle_alpha   90.00000000
_cell_angle_beta   90.00000000
_cell_angle_gamma   119.99999237
_symmetry_Int_Tables_number   1
_chemical_formula_structural   Na7CuO5
_chemical_formula_sum   'Na7 Cu1 O5'
_cell_volume   208.05870952
_cell_formula_units_Z   1
loop_
 _symmetry_equiv_pos_site_id
 _symmetry_equiv_pos_as_xyz
  1  'x, y, z'
loop_
 _atom_site_type_symbol
 _atom_site_label
 _atom_site_symmetry_multiplicity
 _atom_site_fract_x
 _atom_site_fract_y
 _atom_site_fract_z
 _atom_site_occupancy
  Na  Na0  1  0.49913497  0.49913497  0.47854398  1
  Na  Na1  1  0.00000000  0.00000000  0.72622397  1
  Na  Na2  1  0.50086494  0.99999994  0.47854398  1
  Na  Na3  1  -0.00000003  0.50086497  0.47854398  1
  Na  Na4  1  0.00000000  0.00000000  0.26229299  1
  Na  Na5  1  0.66666664  0.33333331  0.97965897  1
  Na  Na6  1  0.33333329  0.66666663  0.97965897  1
  Cu  Cu7  1  -0.00000004  0.62183197  0.78725697  1
  O  O8  1  0.62388496  0.62388497  0.17092099  1
  O  O9  1  0.37816797  0.37816798  0.78725697  1
  O  O10  1  0.62183194  0.99999994  0.78725697  1
  O  O11  1  -0.00000002  0.37611498  0.17092099  1
  O  O12  1  0.37611500  0.00000000  0.17092099  1
