# generated using pymatgen
data_KAlCl3
_symmetry_space_group_name_H-M   'P 1'
_cell_length_a   5.44547129
_cell_length_b   5.44717026
_cell_length_c   5.44817734
_cell_angle_alpha   89.83651733
_cell_angle_beta   89.99742889
_cell_angle_gamma   90.09040833
_symmetry_Int_Tables_number   1
_chemical_formula_structural   KAlCl3
_chemical_formula_sum   'K1 Al1 Cl3'
_cell_volume   161.60520653
_cell_formula_units_Z   1
loop_
 _symmetry_equiv_pos_site_id
 _symmetry_equiv_pos_as_xyz
  1  'x, y, z'
loop_
 _atom_site_type_symbol
 _atom_site_label
 _atom_site_symmetry_multiplicity
 _atom_site_fract_x
 _atom_site_fract_y
 _atom_site_fract_z
 _atom_site_occupancy
  K  K0  1  0.99989099  0.99707097  0.99879506  1
  Al  Al1  1  0.49878899  0.48387098  0.50549403  1
  Cl  Cl2  1  0.99898099  0.48576298  0.50631005  1
  Cl  Cl3  1  0.50466699  0.98422097  0.49428405  1
  Cl  Cl4  1  0.49767499  0.48907398  0.00511505  1
