# generated using pymatgen
data_Mn2CoS4
_symmetry_space_group_name_H-M   'P 1'
_cell_length_a   6.96558046
_cell_length_b   6.96558046
_cell_length_c   7.04108143
_cell_angle_alpha   60.35408783
_cell_angle_beta   60.35408783
_cell_angle_gamma   59.99999619
_symmetry_Int_Tables_number   1
_chemical_formula_structural   Mn2CoS4
_chemical_formula_sum   'Mn4 Co2 S8'
_cell_volume   242.85258273
_cell_formula_units_Z   2
loop_
 _symmetry_equiv_pos_site_id
 _symmetry_equiv_pos_as_xyz
  1  'x, y, z'
loop_
 _atom_site_type_symbol
 _atom_site_label
 _atom_site_symmetry_multiplicity
 _atom_site_fract_x
 _atom_site_fract_y
 _atom_site_fract_z
 _atom_site_occupancy
  Mn  Mn0  1  0.49999998  0.00000000  0.00000002  1
  Mn  Mn1  1  0.49999995  0.49999999  0.00000004  1
  Mn  Mn2  1  -0.00000003  0.49999999  0.00000003  1
  Mn  Mn3  1  0.49999995  0.49999999  0.50000006  1
  Co  Co4  1  0.12408199  0.12408200  0.62775403  1
  Co  Co5  1  0.87591792  0.87591798  0.37224609  1
  S  S6  1  0.72807796  0.26344499  0.74503206  1
  S  S7  1  0.26344498  0.26344499  0.74503204  1
  S  S8  1  0.26344495  0.72807798  0.74503207  1
  S  S9  1  0.25407598  0.25407599  0.23777203  1
  S  S10  1  0.27192195  0.73655498  0.25496806  1
  S  S11  1  0.73655493  0.73655498  0.25496807  1
  S  S12  1  0.73655495  0.27192199  0.25496805  1
  S  S13  1  0.74592393  0.74592398  0.76222808  1
