# generated using pymatgen
data_BaSr2Ti5O12
_symmetry_space_group_name_H-M   'P 1'
_cell_length_a   3.99291897
_cell_length_b   8.02444744
_cell_length_c   8.03103542
_cell_angle_alpha   90.00000000
_cell_angle_beta   90.00000000
_cell_angle_gamma   90.00000000
_symmetry_Int_Tables_number   1
_chemical_formula_structural   BaSr2Ti5O12
_chemical_formula_sum   'Ba1 Sr2 Ti5 O12'
_cell_volume   257.32215219
_cell_formula_units_Z   1
loop_
 _symmetry_equiv_pos_site_id
 _symmetry_equiv_pos_as_xyz
  1  'x, y, z'
loop_
 _atom_site_type_symbol
 _atom_site_label
 _atom_site_symmetry_multiplicity
 _atom_site_fract_x
 _atom_site_fract_y
 _atom_site_fract_z
 _atom_site_occupancy
  Sr  Sr0  1  0.50000000  0.25125699  0.25117099  1
  Sr  Sr1  1  0.50000000  0.25125699  0.74882896  1
  Ba  Ba2  1  0.50000000  0.74852496  0.25129599  1
  Ti  Ti3  1  0.50000000  0.74852496  0.74870396  1
  Ti  Ti4  1  0.00000000  0.50273297  0.49999997  1
  Ti  Ti5  1  0.00000000  0.99800195  -0.00000000  1
  Ti  Ti6  1  0.00000000  0.50207997  0.00000000  1
  Ti  Ti7  1  0.00000000  0.99812095  0.49999997  1
  O  O8  1  0.50000000  0.99592895  0.00000000  1
  O  O9  1  0.50000000  0.50384297  0.00000000  1
  O  O10  1  0.50000000  0.99609995  0.49999997  1
  O  O11  1  0.50000000  0.50404097  0.49999997  1
  O  O12  1  0.00000000  0.99546895  0.25870499  1
  O  O13  1  0.00000000  0.50411597  0.24889599  1
  O  O14  1  0.00000000  0.99546895  0.74129496  1
  O  O15  1  0.00000000  0.50411597  0.75110396  1
  O  O16  1  0.00000000  0.25909399  0.00000000  1
  O  O17  1  0.00000000  0.74232196  0.00000000  1
  O  O18  1  0.00000000  0.24840599  0.49999997  1
  O  O19  1  0.00000000  0.75059596  0.49999997  1
