# generated using pymatgen
data_LiN
_symmetry_space_group_name_H-M   'P 1'
_cell_length_a   3.36531639
_cell_length_b   5.78648281
_cell_length_c   8.48919964
_cell_angle_alpha   109.51593781
_cell_angle_beta   90.15185547
_cell_angle_gamma   90.20717621
_symmetry_Int_Tables_number   1
_chemical_formula_structural   LiN
_chemical_formula_sum   'Li5 N5'
_cell_volume   155.81332309
_cell_formula_units_Z   5
loop_
 _symmetry_equiv_pos_site_id
 _symmetry_equiv_pos_as_xyz
  1  'x, y, z'
loop_
 _atom_site_type_symbol
 _atom_site_label
 _atom_site_symmetry_multiplicity
 _atom_site_fract_x
 _atom_site_fract_y
 _atom_site_fract_z
 _atom_site_occupancy
  Li  Li0  1  0.24686809  0.70550200  0.66355697  1
  Li  Li1  1  0.75313203  0.29449800  0.33644300  1
  Li  Li2  1  0.74682603  0.33093200  0.83097797  1
  Li  Li3  1  0.25317409  0.66906800  0.16902200  1
  N  N4  1  0.24510501  0.10173700  0.78161197  1
  Li  Li5  1  0.74952704  0.40214800  0.08853001  1
  N  N6  1  0.25419307  0.57575700  0.38074499  1
  N  N7  1  0.75489511  0.89826300  0.21838800  1
  N  N8  1  0.25047308  0.59785200  0.91146996  1
  N  N9  1  0.74580705  0.42424300  0.61925498  1
