# generated using pymatgen
data_ScTiO2
_symmetry_space_group_name_H-M   'P 1'
_cell_length_a   4.50527716
_cell_length_b   6.47005415
_cell_length_c   7.45881224
_cell_angle_alpha   90.00000000
_cell_angle_beta   90.00000000
_cell_angle_gamma   90.00000000
_symmetry_Int_Tables_number   1
_chemical_formula_structural   ScTiO2
_chemical_formula_sum   'Sc4 Ti4 O8'
_cell_volume   217.41980567
_cell_formula_units_Z   4
loop_
 _symmetry_equiv_pos_site_id
 _symmetry_equiv_pos_as_xyz
  1  'x, y, z'
loop_
 _atom_site_type_symbol
 _atom_site_label
 _atom_site_symmetry_multiplicity
 _atom_site_fract_x
 _atom_site_fract_y
 _atom_site_fract_z
 _atom_site_occupancy
  Sc  Sc0  1  0.74999997  0.57862799  0.11917200  1
  Sc  Sc1  1  0.24999999  0.42137199  0.88082797  1
  Sc  Sc2  1  0.24999999  0.92137198  0.61917198  1
  Sc  Sc3  1  0.74999997  0.07862800  0.38082799  1
  Ti  Ti4  1  0.74999997  0.58887699  0.63055998  1
  Ti  Ti5  1  0.24999999  0.41112299  0.36943999  1
  Ti  Ti6  1  0.24999999  0.91112298  0.13056000  1
  Ti  Ti7  1  0.74999997  0.08887700  0.86943997  1
  O  O8  1  0.24999999  0.58091499  0.61619998  1
  O  O9  1  0.74999997  0.41908499  0.38379999  1
  O  O10  1  0.74999997  0.91908498  0.11620000  1
  O  O11  1  0.24999999  0.08091500  0.88379997  1
  O  O12  1  0.24999999  0.58248599  0.12934700  1
  O  O13  1  0.74999997  0.41751399  0.87065297  1
  O  O14  1  0.74999997  0.91751398  0.62934698  1
  O  O15  1  0.24999999  0.08248600  0.37065299  1
