# generated using pymatgen
data_Sr7In7Cu6
_symmetry_space_group_name_H-M   'P 1'
_cell_length_a   3.81319594
_cell_length_b   12.40178394
_cell_length_c   12.40178394
_cell_angle_alpha   90.00000000
_cell_angle_beta   90.00000000
_cell_angle_gamma   90.00000000
_symmetry_Int_Tables_number   1
_chemical_formula_structural   Sr7In7Cu6
_chemical_formula_sum   'Sr7 In7 Cu6'
_cell_volume   586.48572308
_cell_formula_units_Z   1
loop_
 _symmetry_equiv_pos_site_id
 _symmetry_equiv_pos_as_xyz
  1  'x, y, z'
loop_
 _atom_site_type_symbol
 _atom_site_label
 _atom_site_symmetry_multiplicity
 _atom_site_fract_x
 _atom_site_fract_y
 _atom_site_fract_z
 _atom_site_occupancy
  Sr  Sr0  1  0.50000001  0.00000000  0.50000000  1
  Sr  Sr1  1  0.50000001  0.50000000  0.00000000  1
  Sr  Sr2  1  0.00000000  0.32284600  0.82284600  1
  Sr  Sr3  1  0.00000000  0.67715400  0.17715400  1
  Sr  Sr4  1  0.00000000  0.17715400  0.32284600  1
  Sr  Sr5  1  0.00000000  0.82284600  0.67715400  1
  In  In6  1  0.50000001  0.55786800  0.70548100  1
  In  In7  1  0.50000001  0.44213200  0.29451900  1
  In  In8  1  0.50000001  0.94213200  0.20548100  1
  Sr  Sr9  1  0.50000001  0.05786800  0.79451900  1
  In  In10  1  0.50000001  0.70548100  0.44213200  1
  In  In11  1  0.50000001  0.29451900  0.55786800  1
  In  In12  1  0.50000001  0.20548100  0.05786800  1
  In  In13  1  0.50000001  0.79451900  0.94213200  1
  Cu  Cu14  1  0.00000000  0.50000000  0.50000000  1
  Cu  Cu15  1  0.00000000  0.00000000  0.00000000  1
  Cu  Cu16  1  0.00000000  0.12904400  0.62904400  1
  Cu  Cu17  1  0.00000000  0.87095600  0.37095600  1
  Cu  Cu18  1  0.00000000  0.37095600  0.12904400  1
  Cu  Cu19  1  0.00000000  0.62904400  0.87095600  1
