# generated using pymatgen
data_FeSiO4
_symmetry_space_group_name_H-M   'P 1'
_cell_length_a   4.76336479
_cell_length_b   4.76336479
_cell_length_c   6.13491201
_cell_angle_alpha   90.00000000
_cell_angle_beta   90.00000000
_cell_angle_gamma   94.52452087
_symmetry_Int_Tables_number   1
_chemical_formula_structural   FeSiO4
_chemical_formula_sum   'Fe2 Si2 O8'
_cell_volume   138.76517971
_cell_formula_units_Z   2
loop_
 _symmetry_equiv_pos_site_id
 _symmetry_equiv_pos_as_xyz
  1  'x, y, z'
loop_
 _atom_site_type_symbol
 _atom_site_label
 _atom_site_symmetry_multiplicity
 _atom_site_fract_x
 _atom_site_fract_y
 _atom_site_fract_z
 _atom_site_occupancy
  Fe  Fe0  1  0.42336298  0.57663701  0.25000000  1
  Fe  Fe1  1  0.57663699  0.42336301  0.75000000  1
  Si  Si2  1  0.82029601  0.17970400  0.25000000  1
  Si  Si3  1  0.17970396  0.82029602  0.75000000  1
  O  O4  1  0.67285200  0.32714801  0.45310100  1
  O  O5  1  0.32714797  0.67285202  0.54689900  1
  O  O6  1  0.67285200  0.32714801  0.04689900  1
  O  O7  1  0.32714797  0.67285202  0.95310100  1
  O  O8  1  0.74865497  0.84949402  0.25000000  1
  O  O9  1  0.84949398  0.74865502  0.75000000  1
  O  O10  1  0.25134500  0.15050600  0.75000000  1
  O  O11  1  0.15050599  0.25134501  0.25000000  1
