# generated using pymatgen
data_SrBiO3
_symmetry_space_group_name_H-M   'P 1'
_cell_length_a   6.15624285
_cell_length_b   6.22387981
_cell_length_c   8.71292496
_cell_angle_alpha   89.97702026
_cell_angle_beta   90.00000000
_cell_angle_gamma   90.00000000
_symmetry_Int_Tables_number   1
_chemical_formula_structural   SrBiO3
_chemical_formula_sum   'Sr4 Bi4 O12'
_cell_volume   333.84192776
_cell_formula_units_Z   4
loop_
 _symmetry_equiv_pos_site_id
 _symmetry_equiv_pos_as_xyz
  1  'x, y, z'
loop_
 _atom_site_type_symbol
 _atom_site_label
 _atom_site_symmetry_multiplicity
 _atom_site_fract_x
 _atom_site_fract_y
 _atom_site_fract_z
 _atom_site_occupancy
  Sr  Sr0  1  0.00000000  0.50477302  0.75254496  1
  Sr  Sr1  1  0.50000001  0.00616000  0.24718399  1
  Sr  Sr2  1  0.50000001  0.99384003  0.75281594  1
  Sr  Sr3  1  0.00000000  0.49522701  0.24745497  1
  Bi  Bi4  1  0.50000001  0.50000001  0.49999996  1
  Bi  Bi5  1  0.00000000  0.00000000  0.49999999  1
  Bi  Bi6  1  0.50000001  0.50000001  -0.00000002  1
  Bi  Bi7  1  0.00000000  0.00000000  0.00000000  1
  O  O8  1  0.00000000  0.06542300  0.75164498  1
  O  O9  1  0.50000001  0.56547502  0.25100897  1
  O  O10  1  0.50000001  0.43452501  0.74899096  1
  O  O11  1  0.00000000  0.93457703  0.24835495  1
  O  O12  1  0.25139301  0.25244401  0.46472198  1
  O  O13  1  0.74936702  0.74944002  0.96220494  1
  O  O14  1  0.25139301  0.74755602  0.53527795  1
  O  O15  1  0.74936702  0.25056001  0.03779499  1
  O  O16  1  0.25063301  0.74944002  0.96220494  1
  O  O17  1  0.74860702  0.25244401  0.46472198  1
  O  O18  1  0.25063301  0.25056001  0.03779499  1
  O  O19  1  0.74860702  0.74755602  0.53527795  1
