# generated using pymatgen
data_Sr2FeO4
_symmetry_space_group_name_H-M   'P 1'
_cell_length_a   3.91971397
_cell_length_b   3.91971397
_cell_length_c   6.80043888
_cell_angle_alpha   106.74996185
_cell_angle_beta   106.74996185
_cell_angle_gamma   90.00000000
_symmetry_Int_Tables_number   1
_chemical_formula_structural   Sr2FeO4
_chemical_formula_sum   'Sr2 Fe1 O4'
_cell_volume   95.41116143
_cell_formula_units_Z   1
loop_
 _symmetry_equiv_pos_site_id
 _symmetry_equiv_pos_as_xyz
  1  'x, y, z'
loop_
 _atom_site_type_symbol
 _atom_site_label
 _atom_site_symmetry_multiplicity
 _atom_site_fract_x
 _atom_site_fract_y
 _atom_site_fract_z
 _atom_site_occupancy
  Sr  Sr0  1  0.35943899  0.35943900  0.71887797  1
  Sr  Sr1  1  0.64056098  0.64056099  0.28112196  1
  Fe  Fe2  1  0.00000000  0.00000000  0.00000000  1
  O  O3  1  0.50000000  0.00000000  -0.00000001  1
  O  O4  1  0.15768300  0.15768300  0.31536599  1
  O  O5  1  0.84231697  0.84231699  0.68463395  1
  O  O6  1  -0.00000001  0.50000000  -0.00000001  1
