# generated using pymatgen
data_YFe12
_symmetry_space_group_name_H-M   'P 1'
_cell_length_a   4.67318583
_cell_length_b   6.50249529
_cell_length_c   6.50249434
_cell_angle_alpha   81.91033173
_cell_angle_beta   68.94046783
_cell_angle_gamma   68.94045258
_symmetry_Int_Tables_number   1
_chemical_formula_structural   YFe12
_chemical_formula_sum   'Y1 Fe12'
_cell_volume   172.06439629
_cell_formula_units_Z   1
loop_
 _symmetry_equiv_pos_site_id
 _symmetry_equiv_pos_as_xyz
  1  'x, y, z'
loop_
 _atom_site_type_symbol
 _atom_site_label
 _atom_site_symmetry_multiplicity
 _atom_site_fract_x
 _atom_site_fract_y
 _atom_site_fract_z
 _atom_site_occupancy
  Y  Y0  1  0.00000005  0.99319498  0.00680501  1
  Fe  Fe1  1  0.00000002  0.37048999  0.62951002  1
  Fe  Fe2  1  0.50000005  0.76710498  0.23289502  1
  Fe  Fe3  1  0.50000003  0.22773800  0.77226203  1
  Fe  Fe4  1  0.72284006  0.77792798  0.77639203  1
  Fe  Fe5  1  0.27716002  0.22360800  0.22207201  1
  Fe  Fe6  1  0.00072805  0.99919098  0.50021602  1
  Fe  Fe7  1  0.49986506  0.99919098  0.50021603  1
  Fe  Fe8  1  0.50013504  0.49978399  0.00080901  1
  Fe  Fe9  1  0.99927206  0.49978399  0.00080901  1
  Fe  Fe10  1  0.00000003  0.64508999  0.35491001  1
  Fe  Fe11  1  0.64220004  0.35624699  0.35935202  1
  Fe  Fe12  1  0.35779904  0.64064799  0.64375303  1
