# generated using pymatgen
data_Dy4Cu3PO4
_symmetry_space_group_name_H-M   'P 1'
_cell_length_a   4.16980219
_cell_length_b   7.07083797
_cell_length_c   7.87537622
_cell_angle_alpha   90.00000000
_cell_angle_beta   90.00000000
_cell_angle_gamma   90.00000000
_symmetry_Int_Tables_number   1
_chemical_formula_structural   Dy4Cu3PO4
_chemical_formula_sum   'Dy4 Cu3 P1 O4'
_cell_volume   232.19755845
_cell_formula_units_Z   1
loop_
 _symmetry_equiv_pos_site_id
 _symmetry_equiv_pos_as_xyz
  1  'x, y, z'
loop_
 _atom_site_type_symbol
 _atom_site_label
 _atom_site_symmetry_multiplicity
 _atom_site_fract_x
 _atom_site_fract_y
 _atom_site_fract_z
 _atom_site_occupancy
  Dy  Dy0  1  0.24999999  0.63953500  0.56178598  1
  Dy  Dy1  1  0.74999997  0.36046500  0.43821399  1
  Dy  Dy2  1  0.74999997  0.86046500  0.06178600  1
  Dy  Dy3  1  0.24999999  0.13953500  0.93821397  1
  Cu  Cu4  1  0.24999999  0.52184600  0.19036899  1
  P  P5  1  0.74999997  0.47815400  0.80963098  1
  Cu  Cu6  1  0.74999997  0.97815400  0.69036898  1
  Cu  Cu7  1  0.24999999  0.02184600  0.30963099  1
  O  O8  1  0.24999999  0.76661500  0.89008997  1
  O  O9  1  0.74999997  0.23338500  0.10991000  1
  O  O10  1  0.74999997  0.73338500  0.39008999  1
  O  O11  1  0.24999999  0.26661500  0.60990998  1
