# generated using pymatgen
data_Sr4Br5N
_symmetry_space_group_name_H-M   'P 1'
_cell_length_a   4.44016981
_cell_length_b   9.23978615
_cell_length_c   10.25712585
_cell_angle_alpha   102.22012329
_cell_angle_beta   102.50020599
_cell_angle_gamma   90.00000000
_symmetry_Int_Tables_number   1
_chemical_formula_structural   Sr4Br5N
_chemical_formula_sum   'Sr4 Br5 N1'
_cell_volume   401.06388427
_cell_formula_units_Z   1
loop_
 _symmetry_equiv_pos_site_id
 _symmetry_equiv_pos_as_xyz
  1  'x, y, z'
loop_
 _atom_site_type_symbol
 _atom_site_label
 _atom_site_symmetry_multiplicity
 _atom_site_fract_x
 _atom_site_fract_y
 _atom_site_fract_z
 _atom_site_occupancy
  Sr  Sr0  1  0.14737900  0.07660000  0.29475800  1
  Sr  Sr1  1  0.85262101  0.92339998  0.70524202  1
  Sr  Sr2  1  0.49855601  0.21271700  0.99711200  1
  Sr  Sr3  1  0.50144401  0.78728298  0.00288801  1
  N  N4  1  0.00000000  0.00000000  0.00000000  1
  Br  Br5  1  0.32774001  0.16934600  0.65548000  1
  Br  Br6  1  0.67226001  0.83065398  0.34452001  1
  Br  Br7  1  0.33484500  0.66269199  0.66969002  1
  Br  Br8  1  0.66515502  0.33730799  0.33031000  1
  Br  Br9  1  -0.00000001  0.49999999  0.00000002  1
