# generated using pymatgen
data_Nd3Ni5Sn
_symmetry_space_group_name_H-M   'P 1'
_cell_length_a   4.24146795
_cell_length_b   7.14627600
_cell_length_c   7.14627552
_cell_angle_alpha   120.00000000
_cell_angle_beta   90.00000000
_cell_angle_gamma   90.00000000
_symmetry_Int_Tables_number   1
_chemical_formula_structural   Nd3Ni5Sn
_chemical_formula_sum   'Nd3 Ni5 Sn1'
_cell_volume   187.58856575
_cell_formula_units_Z   1
loop_
 _symmetry_equiv_pos_site_id
 _symmetry_equiv_pos_as_xyz
  1  'x, y, z'
loop_
 _atom_site_type_symbol
 _atom_site_label
 _atom_site_symmetry_multiplicity
 _atom_site_fract_x
 _atom_site_fract_y
 _atom_site_fract_z
 _atom_site_occupancy
  Nd  Nd0  1  0.50000001  0.00000000  0.41693200  1
  Nd  Nd1  1  0.50000001  0.41693199  0.99999998  1
  Nd  Nd2  1  0.50000001  0.58306799  0.58306797  1
  Ni  Ni3  1  1.00000001  0.66666665  0.33333330  1
  Ni  Ni4  1  -0.00000000  0.33333333  0.66666665  1
  Ni  Ni5  1  0.50000001  0.00000000  -0.00000000  1
  Ni  Ni6  1  1.00000001  0.00000000  0.74953500  1
  Ni  Ni7  1  -0.00000000  0.74953498  -0.00000003  1
  Sn  Sn8  1  -0.00000000  0.25046499  0.25046499  1
