# generated using pymatgen
data_Cs2RuF6
_symmetry_space_group_name_H-M   'P 1'
_cell_length_a   6.39991331
_cell_length_b   6.39991331
_cell_length_c   6.39991331
_cell_angle_alpha   60.00000000
_cell_angle_beta   60.00000000
_cell_angle_gamma   60.00000000
_symmetry_Int_Tables_number   1
_chemical_formula_structural   Cs2RuF6
_chemical_formula_sum   'Cs2 Ru1 F6'
_cell_volume   185.35626780
_cell_formula_units_Z   1
loop_
 _symmetry_equiv_pos_site_id
 _symmetry_equiv_pos_as_xyz
  1  'x, y, z'
loop_
 _atom_site_type_symbol
 _atom_site_label
 _atom_site_symmetry_multiplicity
 _atom_site_fract_x
 _atom_site_fract_y
 _atom_site_fract_z
 _atom_site_occupancy
  Cs  Cs0  1  0.24999999  0.24999999  0.24999999  1
  Cs  Cs1  1  0.74999998  0.74999998  0.74999998  1
  Ru  Ru2  1  0.00000000  0.00000000  0.00000000  1
  F  F3  1  0.79921798  0.20078200  0.20078200  1
  F  F4  1  0.20078200  0.20078200  0.79921798  1
  F  F5  1  0.79921798  0.79921798  0.20078200  1
  F  F6  1  0.20078200  0.79921798  0.79921798  1
  F  F7  1  0.79921798  0.20078200  0.79921798  1
  F  F8  1  0.20078200  0.79921798  0.20078200  1
