# generated using pymatgen
data_Li4CoSbS4
_symmetry_space_group_name_H-M   'P 1'
_cell_length_a   5.87095881
_cell_length_b   7.83056879
_cell_length_c   7.94245577
_cell_angle_alpha   90.00000000
_cell_angle_beta   90.00000000
_cell_angle_gamma   90.00000000
_symmetry_Int_Tables_number   1
_chemical_formula_structural   Li4CoSbS4
_chemical_formula_sum   'Li8 Co2 Sb2 S8'
_cell_volume   365.13809642
_cell_formula_units_Z   2
loop_
 _symmetry_equiv_pos_site_id
 _symmetry_equiv_pos_as_xyz
  1  'x, y, z'
loop_
 _atom_site_type_symbol
 _atom_site_label
 _atom_site_symmetry_multiplicity
 _atom_site_fract_x
 _atom_site_fract_y
 _atom_site_fract_z
 _atom_site_occupancy
  Li  Li0  1  0.25333501  0.75748102  0.78763602  1
  Li  Li1  1  0.25333501  0.24251901  0.78763602  1
  Li  Li2  1  0.79621303  0.50000001  0.00000000  1
  Li  Li3  1  0.25333501  0.75748102  0.21236401  1
  Li  Li4  1  0.25333501  0.24251901  0.21236401  1
  Li  Li5  1  0.74666502  0.74251902  0.28763601  1
  Li  Li6  1  0.74666502  0.25748101  0.28763601  1
  Li  Li7  1  0.20378701  0.00000000  0.50000001  1
  Co  Co8  1  0.74666502  0.74251902  0.71236402  1
  Co  Co9  1  0.74666502  0.25748101  0.71236402  1
  Sb  Sb10  1  0.77144503  0.00000000  0.00000000  1
  Sb  Sb11  1  0.22855501  0.50000001  0.50000001  1
  S  S12  1  0.98404503  0.00000000  0.76074002  1
  S  S13  1  0.55708702  0.75589302  0.00000000  1
  S  S14  1  0.55708702  0.24410701  0.00000000  1
  S  S15  1  0.98404503  0.00000000  0.23926001  1
  S  S16  1  0.01595500  0.50000001  0.26074001  1
  S  S17  1  0.44291301  0.74410702  0.50000001  1
  S  S18  1  0.44291301  0.25589301  0.50000001  1
  S  S19  1  0.01595500  0.50000001  0.73926002  1
