# generated using pymatgen
data_NaBiPd2
_symmetry_space_group_name_H-M   'P 1'
_cell_length_a   4.61385202
_cell_length_b   4.61385298
_cell_length_c   9.10858727
_cell_angle_alpha   90.00000000
_cell_angle_beta   90.00000000
_cell_angle_gamma   119.99999237
_symmetry_Int_Tables_number   1
_chemical_formula_structural   NaBiPd2
_chemical_formula_sum   'Na2 Bi2 Pd4'
_cell_volume   167.92258132
_cell_formula_units_Z   2
loop_
 _symmetry_equiv_pos_site_id
 _symmetry_equiv_pos_as_xyz
  1  'x, y, z'
loop_
 _atom_site_type_symbol
 _atom_site_label
 _atom_site_symmetry_multiplicity
 _atom_site_fract_x
 _atom_site_fract_y
 _atom_site_fract_z
 _atom_site_occupancy
  Na  Na0  1  0.33333331  0.66666663  0.24999999  1
  Na  Na1  1  0.66666665  0.33333332  0.74999998  1
  Bi  Bi2  1  0.00000000  0.00000000  0.49999999  1
  Bi  Bi3  1  0.00000000  0.00000000  0.00000000  1
  Pd  Pd4  1  0.33333331  0.66666663  0.90972397  1
  Pd  Pd5  1  0.66666665  0.33333332  0.09027600  1
  Pd  Pd6  1  0.66666665  0.33333332  0.40972399  1
  Pd  Pd7  1  0.33333331  0.66666663  0.59027598  1
