# generated using pymatgen
data_Er2Ga5Pd
_symmetry_space_group_name_H-M   'P 1'
_cell_length_a   4.39984417
_cell_length_b   5.47907019
_cell_length_c   6.57829809
_cell_angle_alpha   90.00000000
_cell_angle_beta   90.00000000
_cell_angle_gamma   113.67284393
_symmetry_Int_Tables_number   1
_chemical_formula_structural   Er2Ga5Pd
_chemical_formula_sum   'Er2 Ga5 Pd1'
_cell_volume   145.23907696
_cell_formula_units_Z   1
loop_
 _symmetry_equiv_pos_site_id
 _symmetry_equiv_pos_as_xyz
  1  'x, y, z'
loop_
 _atom_site_type_symbol
 _atom_site_label
 _atom_site_symmetry_multiplicity
 _atom_site_fract_x
 _atom_site_fract_y
 _atom_site_fract_z
 _atom_site_occupancy
  Er  Er0  1  0.41282899  0.82565802  0.74999999  1
  Er  Er1  1  0.58717098  0.17434200  0.25000000  1
  Ga  Ga2  1  0.12781400  0.25562801  0.55248199  1
  Ga  Ga3  1  0.87218597  0.74437202  0.44751799  1
  Ga  Ga4  1  0.12781400  0.25562801  0.94751799  1
  Ga  Ga5  1  0.87218597  0.74437202  0.05248200  1
  Ga  Ga6  1  0.70018098  0.40036201  0.74999999  1
  Pd  Pd7  1  0.29981899  0.59963802  0.25000000  1
