# generated using pymatgen
data_DyHoCo4
_symmetry_space_group_name_H-M   'P 1'
_cell_length_a   5.13673496
_cell_length_b   5.13673496
_cell_length_c   5.13673496
_cell_angle_alpha   60.00000000
_cell_angle_beta   60.00000000
_cell_angle_gamma   60.00000000
_symmetry_Int_Tables_number   1
_chemical_formula_structural   DyHoCo4
_chemical_formula_sum   'Dy1 Ho1 Co4'
_cell_volume   95.83992757
_cell_formula_units_Z   1
loop_
 _symmetry_equiv_pos_site_id
 _symmetry_equiv_pos_as_xyz
  1  'x, y, z'
loop_
 _atom_site_type_symbol
 _atom_site_label
 _atom_site_symmetry_multiplicity
 _atom_site_fract_x
 _atom_site_fract_y
 _atom_site_fract_z
 _atom_site_occupancy
  Dy  Dy0  1  0.00000000  0.00000000  0.00000000  1
  Ho  Ho1  1  0.74999997  0.74999997  0.74999997  1
  Co  Co2  1  0.87499997  0.37499999  0.37499999  1
  Co  Co3  1  0.37499999  0.37499999  0.87499997  1
  Co  Co4  1  0.37499999  0.37499999  0.37499999  1
  Co  Co5  1  0.37499999  0.87499997  0.37499999  1
