# generated using pymatgen
data_La2NiWO6
_symmetry_space_group_name_H-M   'P 1'
_cell_length_a   5.55438995
_cell_length_b   5.85969687
_cell_length_c   7.92077494
_cell_angle_alpha   90.00000000
_cell_angle_beta   89.86891937
_cell_angle_gamma   90.00000000
_symmetry_Int_Tables_number   1
_chemical_formula_structural   La2NiWO6
_chemical_formula_sum   'La4 Ni2 W2 O12'
_cell_volume   257.79711512
_cell_formula_units_Z   2
loop_
 _symmetry_equiv_pos_site_id
 _symmetry_equiv_pos_as_xyz
  1  'x, y, z'
loop_
 _atom_site_type_symbol
 _atom_site_label
 _atom_site_symmetry_multiplicity
 _atom_site_fract_x
 _atom_site_fract_y
 _atom_site_fract_z
 _atom_site_occupancy
  La  La0  1  0.98168901  0.43418501  0.25061599  1
  La  La1  1  0.01831100  0.56581501  0.74938398  1
  La  La2  1  0.51831100  0.93418502  0.24938399  1
  La  La3  1  0.48168900  0.06581500  0.75061598  1
  Ni  Ni4  1  0.00000000  1.00000002  0.49999999  1
  Ni  Ni5  1  0.50000000  0.50000001  -0.00000000  1
  W  W6  1  0.00000000  0.00000000  0.00000000  1
  W  W7  1  0.50000000  0.50000001  0.49999999  1
  O  O8  1  0.10218300  0.03354900  0.24778399  1
  O  O9  1  0.89781701  0.96645102  0.75221598  1
  O  O10  1  0.39781700  0.53354901  0.25221599  1
  O  O11  1  0.60218301  0.46645101  0.74778398  1
  O  O12  1  0.80886901  0.70651702  0.05487300  1
  O  O13  1  0.19113100  0.29348301  0.94512697  1
  O  O14  1  0.69113101  0.20651700  0.44512699  1
  O  O15  1  0.30886900  0.79348302  0.55487298  1
  O  O16  1  0.70030901  0.19670000  0.05093000  1
  O  O17  1  0.29969100  0.80330002  0.94906997  1
  O  O18  1  0.79969101  0.69670002  0.44906999  1
  O  O19  1  0.20030900  0.30330001  0.55092998  1
