# generated using pymatgen
data_LiMnO4
_symmetry_space_group_name_H-M   'P 1'
_cell_length_a   5.64396620
_cell_length_b   5.64394426
_cell_length_c   5.64385223
_cell_angle_alpha   67.81520844
_cell_angle_beta   69.24222565
_cell_angle_gamma   105.54586792
_symmetry_Int_Tables_number   1
_chemical_formula_structural   LiMnO4
_chemical_formula_sum   'Li2 Mn2 O8'
_cell_volume   137.88679407
_cell_formula_units_Z   2
loop_
 _symmetry_equiv_pos_site_id
 _symmetry_equiv_pos_as_xyz
  1  'x, y, z'
loop_
 _atom_site_type_symbol
 _atom_site_label
 _atom_site_symmetry_multiplicity
 _atom_site_fract_x
 _atom_site_fract_y
 _atom_site_fract_z
 _atom_site_occupancy
  Li  Li0  1  0.96420796  0.50000901  0.53578502  1
  Li  Li1  1  0.50030198  0.25218800  0.24752701  1
  Mn  Mn2  1  0.50032896  0.74781701  0.75187799  1
  Mn  Mn3  1  0.03385600  0.00001300  0.96611201  1
  O  O4  1  0.69179797  0.49996501  0.80821601  1
  O  O5  1  0.30981395  0.99997901  0.69022398  1
  O  O6  1  0.71988399  0.00000000  0.28011103  1
  O  O7  1  0.27986597  0.49999701  0.22013799  1
  O  O8  1  0.80644499  0.05678300  0.74965103  1
  O  O9  1  0.80640096  0.55610701  0.25036501  1
  O  O10  1  0.19354095  0.94323301  0.25033597  1
  O  O11  1  0.19355698  0.44390901  0.74965700  1
