# generated using pymatgen
data_SiPO5
_symmetry_space_group_name_H-M   'P 1'
_cell_length_a   4.49588299
_cell_length_b   6.09186697
_cell_length_c   6.09186697
_cell_angle_alpha   90.00000000
_cell_angle_beta   90.00000000
_cell_angle_gamma   90.00000000
_symmetry_Int_Tables_number   1
_chemical_formula_structural   SiPO5
_chemical_formula_sum   'Si2 P2 O10'
_cell_volume   166.84600853
_cell_formula_units_Z   2
loop_
 _symmetry_equiv_pos_site_id
 _symmetry_equiv_pos_as_xyz
  1  'x, y, z'
loop_
 _atom_site_type_symbol
 _atom_site_label
 _atom_site_symmetry_multiplicity
 _atom_site_fract_x
 _atom_site_fract_y
 _atom_site_fract_z
 _atom_site_occupancy
  Si  Si0  1  0.21448200  0.00000000  0.50000000  1
  Si  Si1  1  0.78551800  0.50000000  0.00000000  1
  P  P2  1  0.50000000  0.50000000  0.50000000  1
  P  P3  1  0.50000000  0.00000000  0.00000000  1
  O  O4  1  0.69974500  0.44738900  0.30103900  1
  O  O5  1  0.30025500  0.69896100  0.44738900  1
  O  O6  1  0.85629200  0.00000000  0.50000000  1
  O  O7  1  0.30025500  0.30103900  0.55261100  1
  O  O8  1  0.69974500  0.55261100  0.69896100  1
  O  O9  1  0.30025500  0.94738900  0.80103900  1
  O  O10  1  0.69974500  0.19896100  0.94738900  1
  O  O11  1  0.14370800  0.50000000  -0.00000000  1
  O  O12  1  0.69974500  0.80103900  0.05261100  1
  O  O13  1  0.30025500  0.05261100  0.19896100  1
