# generated using pymatgen
data_Mn3O5F
_symmetry_space_group_name_H-M   'P 1'
_cell_length_a   5.39306736
_cell_length_b   5.52355385
_cell_length_c   7.80440617
_cell_angle_alpha   74.43112946
_cell_angle_beta   73.01958466
_cell_angle_gamma   71.10849762
_symmetry_Int_Tables_number   1
_chemical_formula_structural   Mn3O5F
_chemical_formula_sum   'Mn6 O10 F2'
_cell_volume   206.45361690
_cell_formula_units_Z   2
loop_
 _symmetry_equiv_pos_site_id
 _symmetry_equiv_pos_as_xyz
  1  'x, y, z'
loop_
 _atom_site_type_symbol
 _atom_site_label
 _atom_site_symmetry_multiplicity
 _atom_site_fract_x
 _atom_site_fract_y
 _atom_site_fract_z
 _atom_site_occupancy
  Mn  Mn0  1  0.69782497  0.62282097  0.33705804  1
  Mn  Mn1  1  0.31649598  0.32354099  0.17880502  1
  Mn  Mn2  1  0.68350396  0.67645897  0.82119505  1
  Mn  Mn3  1  0.30217498  0.37717898  0.66294203  1
  Mn  Mn4  1  0.00000000  0.00000000  0.50000001  1
  Mn  Mn5  1  0.00000000  0.00000000  0.00000000  1
  O  O6  1  0.98551198  0.32786199  0.34147202  1
  O  O7  1  0.01448797  0.67213797  0.65852805  1
  O  O8  1  0.79776196  0.76618297  0.00587804  1
  O  O9  1  0.90942696  0.85535596  0.30709105  1
  O  O10  1  0.39444195  0.91932996  0.34477205  1
  O  O11  1  0.67603899  0.28169399  0.02056301  1
  O  O12  1  0.45201398  0.43242098  0.34565803  1
  O  O13  1  0.54798597  0.56757898  0.65434204  1
  O  O14  1  0.32396096  0.71830597  0.97943706  1
  O  O15  1  0.60555800  0.08067000  0.65522802  1
  F  F16  1  0.09057299  0.14464399  0.69290902  1
  F  F17  1  0.20223799  0.23381699  0.99412204  1
