# generated using pymatgen
data_Na2CN3F
_symmetry_space_group_name_H-M   'P 1'
_cell_length_a   3.91735196
_cell_length_b   3.91735172
_cell_length_c   8.36116600
_cell_angle_alpha   90.00000000
_cell_angle_beta   90.00000000
_cell_angle_gamma   120.00000000
_symmetry_Int_Tables_number   1
_chemical_formula_structural   Na2CN3F
_chemical_formula_sum   'Na2 C1 N3 F1'
_cell_volume   111.11754499
_cell_formula_units_Z   1
loop_
 _symmetry_equiv_pos_site_id
 _symmetry_equiv_pos_as_xyz
  1  'x, y, z'
loop_
 _atom_site_type_symbol
 _atom_site_label
 _atom_site_symmetry_multiplicity
 _atom_site_fract_x
 _atom_site_fract_y
 _atom_site_fract_z
 _atom_site_occupancy
  Na  Na0  1  0.66666666  0.33333332  0.67800900  1
  Na  Na1  1  0.33333330  0.66666665  0.32199100  1
  C  C2  1  0.00000000  0.00000000  0.00000000  1
  N  N3  1  0.00000000  0.00000000  0.85203400  1
  N  N4  1  0.00000000  0.00000000  0.14796600  1
  F  F5  1  0.66666666  0.33333332  0.39515600  1
  N  N6  1  0.33333330  0.66666665  0.60484400  1
