# generated using pymatgen
data_ZrAg7
_symmetry_space_group_name_H-M   'P 1'
_cell_length_a   5.19889498
_cell_length_b   5.20215321
_cell_length_c   10.39360809
_cell_angle_alpha   90.00000000
_cell_angle_beta   90.00000000
_cell_angle_gamma   90.00000000
_symmetry_Int_Tables_number   1
_chemical_formula_structural   ZrAg7
_chemical_formula_sum   'Zr2 Ag14'
_cell_volume   281.09978903
_cell_formula_units_Z   2
loop_
 _symmetry_equiv_pos_site_id
 _symmetry_equiv_pos_as_xyz
  1  'x, y, z'
loop_
 _atom_site_type_symbol
 _atom_site_label
 _atom_site_symmetry_multiplicity
 _atom_site_fract_x
 _atom_site_fract_y
 _atom_site_fract_z
 _atom_site_occupancy
  Zr  Zr0  1  0.50000000  0.00000000  0.37510100  1
  Zr  Zr1  1  0.50000000  0.00000000  0.87495899  1
  Ag  Ag2  1  0.75068400  0.49999998  0.00000000  1
  Ag  Ag3  1  0.75006400  0.49999998  0.50000000  1
  Ag  Ag4  1  0.00000000  0.74969597  0.25022800  1
  Ag  Ag5  1  0.00000000  0.74969597  0.74977199  1
  Ag  Ag6  1  0.50000000  0.00000000  0.12504100  1
  Ag  Ag7  1  0.50000000  0.00000000  0.62489899  1
  Ag  Ag8  1  0.24931600  0.49999998  0.00000000  1
  Ag  Ag9  1  0.24993600  0.49999998  0.50000000  1
  Ag  Ag10  1  0.00000000  0.25030399  0.25022800  1
  Ag  Ag11  1  0.00000000  0.25030399  0.74977199  1
  Ag  Ag12  1  0.50000000  0.49999998  0.25013700  1
  Ag  Ag13  1  0.50000000  0.49999998  0.74986299  1
  Ag  Ag14  1  0.00000000  0.00000000  0.00000000  1
  Ag  Ag15  1  0.00000000  0.00000000  0.50000000  1
