# generated using pymatgen
data_Dy3In5
_symmetry_space_group_name_H-M   'P 1'
_cell_length_a   6.44220448
_cell_length_b   6.44220448
_cell_length_c   10.38540077
_cell_angle_alpha   90.00000000
_cell_angle_beta   90.00000000
_cell_angle_gamma   102.15277863
_symmetry_Int_Tables_number   1
_chemical_formula_structural   Dy3In5
_chemical_formula_sum   'Dy6 In10'
_cell_volume   421.35572710
_cell_formula_units_Z   2
loop_
 _symmetry_equiv_pos_site_id
 _symmetry_equiv_pos_as_xyz
  1  'x, y, z'
loop_
 _atom_site_type_symbol
 _atom_site_label
 _atom_site_symmetry_multiplicity
 _atom_site_fract_x
 _atom_site_fract_y
 _atom_site_fract_z
 _atom_site_occupancy
  Dy  Dy0  1  0.62991998  0.62991999  0.75000002  1
  Dy  Dy1  1  0.37007999  0.37007999  0.25000001  1
  Dy  Dy2  1  0.79710099  0.20289900  0.50000001  1
  Dy  Dy3  1  0.79710099  0.20289900  -0.00000000  1
  Dy  Dy4  1  0.20289898  0.79710099  0.50000001  1
  Dy  Dy5  1  0.20289898  0.79710099  -0.00000000  1
  In  In6  1  0.01352000  0.01352000  0.75000002  1
  In  In7  1  0.98647996  0.98647998  0.25000001  1
  In  In8  1  0.31073499  0.31073500  0.95269502  1
  In  In9  1  0.68926497  0.68926499  0.04730500  1
  In  In10  1  0.31073499  0.31073500  0.54730501  1
  In  In11  1  0.68926497  0.68926499  0.45269501  1
  In  In12  1  0.07020799  0.50600299  0.75000002  1
  In  In13  1  0.49399697  0.92979199  0.25000001  1
  In  In14  1  0.92979198  0.49399699  0.25000001  1
  In  In15  1  0.50600299  0.07020800  0.75000002  1
