# generated using pymatgen
data_La4CuSb4
_symmetry_space_group_name_H-M   'P 1'
_cell_length_a   6.41715384
_cell_length_b   9.34038639
_cell_length_c   9.34038639
_cell_angle_alpha   120.00000000
_cell_angle_beta   90.00000000
_cell_angle_gamma   90.00000000
_symmetry_Int_Tables_number   1
_chemical_formula_structural   La4CuSb4
_chemical_formula_sum   'La8 Cu2 Sb8'
_cell_volume   484.84482778
_cell_formula_units_Z   2
loop_
 _symmetry_equiv_pos_site_id
 _symmetry_equiv_pos_as_xyz
  1  'x, y, z'
loop_
 _atom_site_type_symbol
 _atom_site_label
 _atom_site_symmetry_multiplicity
 _atom_site_fract_x
 _atom_site_fract_y
 _atom_site_fract_z
 _atom_site_occupancy
  La  La0  1  0.50000001  0.33333332  0.66666668  1
  La  La1  1  0.50000001  0.66666665  0.33333335  1
  La  La2  1  -0.00000000  0.66666665  0.33333335  1
  La  La3  1  -0.00000000  0.33333332  0.66666668  1
  La  La4  1  0.75000002  0.25576499  0.00000001  1
  La  La5  1  0.75000002  0.74423498  0.74423502  1
  Cu  Cu6  1  0.75000002  0.00000000  0.25576500  1
  La  La7  1  0.25000001  0.74423498  0.00000002  1
  La  La8  1  0.25000001  0.25576499  0.25576501  1
  Cu  Cu9  1  0.25000001  0.00000000  0.74423500  1
  Sb  Sb10  1  0.50000001  0.00000000  -0.00000000  1
  Sb  Sb11  1  0.00000000  0.00000000  0.00000000  1
  Sb  Sb12  1  0.75000002  0.61486498  0.00000002  1
  Sb  Sb13  1  0.75000002  0.38513499  0.38513501  1
  Sb  Sb14  1  0.75000002  0.00000000  0.61486500  1
  Sb  Sb15  1  0.25000001  0.38513499  0.00000001  1
  Sb  Sb16  1  0.25000001  0.61486498  0.61486502  1
  Sb  Sb17  1  0.25000001  0.99999997  0.38513503  1
