# generated using pymatgen
data_Rb2ZrO4
_symmetry_space_group_name_H-M   'P 1'
_cell_length_a   4.36737585
_cell_length_b   4.36737585
_cell_length_c   7.71388006
_cell_angle_alpha   106.44445038
_cell_angle_beta   106.44445038
_cell_angle_gamma   90.00000000
_symmetry_Int_Tables_number   1
_chemical_formula_structural   Rb2ZrO4
_chemical_formula_sum   'Rb2 Zr1 O4'
_cell_volume   134.82877191
_cell_formula_units_Z   1
loop_
 _symmetry_equiv_pos_site_id
 _symmetry_equiv_pos_as_xyz
  1  'x, y, z'
loop_
 _atom_site_type_symbol
 _atom_site_label
 _atom_site_symmetry_multiplicity
 _atom_site_fract_x
 _atom_site_fract_y
 _atom_site_fract_z
 _atom_site_occupancy
  Rb  Rb0  1  0.34990303  0.34990302  0.69980602  1
  Rb  Rb1  1  0.65009706  0.65009704  0.30019405  1
  Zr  Zr2  1  0.00000000  0.00000000  0.00000000  1
  O  O3  1  0.13613101  0.13613101  0.27226201  1
  O  O4  1  0.86386908  0.86386905  0.72773806  1
  O  O5  1  0.50000003  0.00000000  0.00000002  1
  O  O6  1  0.00000002  0.50000003  0.00000002  1
