# generated using pymatgen
data_Nb3TeMoCS2I
_symmetry_space_group_name_H-M   'P 1'
_cell_length_a   3.29870605
_cell_length_b   3.29870677
_cell_length_c   30.52455521
_cell_angle_alpha   90.00000000
_cell_angle_beta   90.00000000
_cell_angle_gamma   119.99999237
_symmetry_Int_Tables_number   1
_chemical_formula_structural   Nb3TeMoCS2I
_chemical_formula_sum   'Nb3 Te1 Mo1 C1 S2 I1'
_cell_volume   287.65196077
_cell_formula_units_Z   1
loop_
 _symmetry_equiv_pos_site_id
 _symmetry_equiv_pos_as_xyz
  1  'x, y, z'
loop_
 _atom_site_type_symbol
 _atom_site_label
 _atom_site_symmetry_multiplicity
 _atom_site_fract_x
 _atom_site_fract_y
 _atom_site_fract_z
 _atom_site_occupancy
  Mo  Mo0  1  0.00000000  0.00000000  0.59019900  1
  Nb  Nb1  1  0.00000000  0.00000000  0.71586800  1
  Nb  Nb2  1  0.00000000  0.00000000  0.88439799  1
  C  C3  1  0.66666665  0.33333332  0.65302500  1
  Nb  Nb4  1  0.00000000  0.00000000  0.42163100  1
  I  I5  1  0.66666665  0.33333332  0.93450299  1
  Te  Te6  1  0.66666665  0.33333332  0.47202900  1
  S  S7  1  0.66666665  0.33333332  0.83425099  1
  S  S8  1  0.66666665  0.33333332  0.37125600  1
