# generated using pymatgen
data_Li2VO4
_symmetry_space_group_name_H-M   'P 1'
_cell_length_a   5.85295439
_cell_length_b   5.89739180
_cell_length_c   5.96814060
_cell_angle_alpha   62.08131409
_cell_angle_beta   62.08533859
_cell_angle_gamma   91.88680267
_symmetry_Int_Tables_number   1
_chemical_formula_structural   Li2VO4
_chemical_formula_sum   'Li4 V2 O8'
_cell_volume   152.23122312
_cell_formula_units_Z   2
loop_
 _symmetry_equiv_pos_site_id
 _symmetry_equiv_pos_as_xyz
  1  'x, y, z'
loop_
 _atom_site_type_symbol
 _atom_site_label
 _atom_site_symmetry_multiplicity
 _atom_site_fract_x
 _atom_site_fract_y
 _atom_site_fract_z
 _atom_site_occupancy
  Li  Li0  1  0.11487102  0.37049901  0.77065601  1
  Li  Li1  1  0.88513403  0.62941602  0.22932297  1
  Li  Li2  1  0.50012602  0.49976802  0.99993101  1
  Li  Li3  1  0.50002904  0.99981704  0.99997298  1
  V  V4  1  0.99992405  0.99995304  0.50007696  1
  V  V5  1  0.49982400  0.00027100  0.50013602  1
  O  O6  1  0.26638903  0.78698303  0.47898697  1
  O  O7  1  0.25432201  0.23043701  0.04031699  1
  O  O8  1  0.70524201  0.23832401  0.04701999  1
  O  O9  1  0.23752101  0.21239001  0.51041301  1
  O  O10  1  0.76245804  0.78774103  0.48963497  1
  O  O11  1  0.29461703  0.76152503  0.95304399  1
  O  O12  1  0.74580704  0.76964003  0.95960799  1
  O  O13  1  0.73373801  0.21324001  0.52087801  1
