# generated using pymatgen
data_NaCuF3
_symmetry_space_group_name_H-M   'P 1'
_cell_length_a   4.78897190
_cell_length_b   5.19501591
_cell_length_c   5.19501638
_cell_angle_alpha   60.00000000
_cell_angle_beta   90.00000000
_cell_angle_gamma   90.00000000
_symmetry_Int_Tables_number   1
_chemical_formula_structural   NaCuF3
_chemical_formula_sum   'Na2 Cu2 F6'
_cell_volume   111.93005672
_cell_formula_units_Z   2
loop_
 _symmetry_equiv_pos_site_id
 _symmetry_equiv_pos_as_xyz
  1  'x, y, z'
loop_
 _atom_site_type_symbol
 _atom_site_label
 _atom_site_symmetry_multiplicity
 _atom_site_fract_x
 _atom_site_fract_y
 _atom_site_fract_z
 _atom_site_occupancy
  Na  Na0  1  0.73447502  0.33333334  0.33333331  1
  Na  Na1  1  0.23447500  0.66666669  0.66666662  1
  Cu  Cu2  1  0.01452300  0.00000000  0.00000000  1
  Cu  Cu3  1  0.51452301  0.00000000  0.00000000  1
  F  F4  1  0.26615601  0.15921700  0.68156597  1
  F  F5  1  0.26615601  0.68156502  0.15921798  1
  F  F6  1  0.76615602  0.84078302  0.84078195  1
  F  F7  1  0.26615601  0.15921700  0.15921799  1
  F  F8  1  0.76615602  0.31843501  0.84078196  1
  F  F9  1  0.76615602  0.84078302  0.31843397  1
