# generated using pymatgen
data_LiN
_symmetry_space_group_name_H-M   'P 1'
_cell_length_a   3.65939331
_cell_length_b   3.65939331
_cell_length_c   6.97121572
_cell_angle_alpha   74.78365326
_cell_angle_beta   74.78365326
_cell_angle_gamma   60.00001144
_symmetry_Int_Tables_number   1
_chemical_formula_structural   LiN
_chemical_formula_sum   'Li3 N3'
_cell_volume   77.04352411
_cell_formula_units_Z   3
loop_
 _symmetry_equiv_pos_site_id
 _symmetry_equiv_pos_as_xyz
  1  'x, y, z'
loop_
 _atom_site_type_symbol
 _atom_site_label
 _atom_site_symmetry_multiplicity
 _atom_site_fract_x
 _atom_site_fract_y
 _atom_site_fract_z
 _atom_site_occupancy
  Li  Li0  1  0.90282701  0.90282701  0.29151904  1
  Li  Li1  1  0.09717300  0.09717300  0.70848098  1
  Li  Li2  1  0.65490401  0.65490401  0.03528803  1
  N  N3  1  0.34509600  0.34509600  0.96471199  1
  N  N4  1  0.00000000  0.00000000  0.00000000  1
  N  N5  1  0.50000000  0.50000001  0.50000001  1
