# generated using pymatgen
data_TiSi3
_symmetry_space_group_name_H-M   'P 1'
_cell_length_a   4.25966692
_cell_length_b   4.58367395
_cell_length_c   5.11192179
_cell_angle_alpha   90.00000000
_cell_angle_beta   90.00000000
_cell_angle_gamma   90.00000000
_symmetry_Int_Tables_number   1
_chemical_formula_structural   TiSi3
_chemical_formula_sum   'Ti2 Si6'
_cell_volume   99.80988599
_cell_formula_units_Z   2
loop_
 _symmetry_equiv_pos_site_id
 _symmetry_equiv_pos_as_xyz
  1  'x, y, z'
loop_
 _atom_site_type_symbol
 _atom_site_label
 _atom_site_symmetry_multiplicity
 _atom_site_fract_x
 _atom_site_fract_y
 _atom_site_fract_z
 _atom_site_occupancy
  Ti  Ti0  1  0.50000001  0.65032801  0.50000002  1
  Ti  Ti1  1  -0.00000000  0.34967200  -0.00000000  1
  Si  Si2  1  0.50000001  0.15908900  0.74910803  1
  Si  Si3  1  0.50000001  0.15908900  0.25089201  1
  Si  Si4  1  -0.00000000  0.84091101  0.75089203  1
  Si  Si5  1  -0.00000000  0.84091101  0.24910801  1
  Si  Si6  1  -0.00000000  0.31847400  0.50000002  1
  Si  Si7  1  0.50000001  0.68152601  0.00000000  1
