# generated using pymatgen
data_CsAgI3
_symmetry_space_group_name_H-M   'P 1'
_cell_length_a   8.42736626
_cell_length_b   8.42736626
_cell_length_c   8.42736626
_cell_angle_alpha   60.00000000
_cell_angle_beta   60.00000000
_cell_angle_gamma   60.00000000
_symmetry_Int_Tables_number   1
_chemical_formula_structural   CsAgI3
_chemical_formula_sum   'Cs2 Ag2 I6'
_cell_volume   423.21456831
_cell_formula_units_Z   2
loop_
 _symmetry_equiv_pos_site_id
 _symmetry_equiv_pos_as_xyz
  1  'x, y, z'
loop_
 _atom_site_type_symbol
 _atom_site_label
 _atom_site_symmetry_multiplicity
 _atom_site_fract_x
 _atom_site_fract_y
 _atom_site_fract_z
 _atom_site_occupancy
  Cs  Cs0  1  0.25000001  0.25000001  0.25000001  1
  Cs  Cs1  1  0.75000002  0.75000002  0.75000002  1
  Ag  Ag2  1  0.00000000  0.00000000  0.00000000  1
  Ag  Ag3  1  0.50000001  0.50000001  0.50000001  1
  I  I4  1  0.24504701  0.75495302  0.24504701  1
  I  I5  1  0.24504701  0.24504701  0.75495302  1
  I  I6  1  0.75495302  0.24504701  0.75495302  1
  I  I7  1  0.24504701  0.75495302  0.75495302  1
  I  I8  1  0.75495302  0.24504701  0.24504701  1
  I  I9  1  0.75495302  0.75495302  0.24504701  1
