# generated using pymatgen
data_DyAl5
_symmetry_space_group_name_H-M   'P 1'
_cell_length_a   5.23151016
_cell_length_b   5.23257113
_cell_length_c   5.23257113
_cell_angle_alpha   75.52848816
_cell_angle_beta   60.00671005
_cell_angle_gamma   60.00671005
_symmetry_Int_Tables_number   1
_chemical_formula_structural   DyAl5
_chemical_formula_sum   'Dy1 Al5'
_cell_volume   107.44280526
_cell_formula_units_Z   1
loop_
 _symmetry_equiv_pos_site_id
 _symmetry_equiv_pos_as_xyz
  1  'x, y, z'
loop_
 _atom_site_type_symbol
 _atom_site_label
 _atom_site_symmetry_multiplicity
 _atom_site_fract_x
 _atom_site_fract_y
 _atom_site_fract_z
 _atom_site_occupancy
  Dy  Dy0  1  0.83576998  0.50000001  0.82846004  1
  Al  Al1  1  0.66423098  0.17153900  0.50000003  1
  Al  Al2  1  0.16423001  0.50000001  0.17154000  1
  Al  Al3  1  0.33576901  0.82846101  0.50000001  1
  Al  Al4  1  0.25000002  1.00000001  -0.00000000  1
  Al  Al5  1  0.74999999  1.00000001  0.00000001  1
