# generated using pymatgen
data_ScAu3
_symmetry_space_group_name_H-M   'P 1'
_cell_length_a   4.77954483
_cell_length_b   6.25228214
_cell_length_c   6.25228119
_cell_angle_alpha   120.00000763
_cell_angle_beta   90.00000000
_cell_angle_gamma   90.00000000
_symmetry_Int_Tables_number   1
_chemical_formula_structural   ScAu3
_chemical_formula_sum   'Sc2 Au6'
_cell_volume   161.80584558
_cell_formula_units_Z   2
loop_
 _symmetry_equiv_pos_site_id
 _symmetry_equiv_pos_as_xyz
  1  'x, y, z'
loop_
 _atom_site_type_symbol
 _atom_site_label
 _atom_site_symmetry_multiplicity
 _atom_site_fract_x
 _atom_site_fract_y
 _atom_site_fract_z
 _atom_site_occupancy
  Sc  Sc0  1  0.75000003  0.82822101  0.17177905  1
  Sc  Sc1  1  0.75000003  0.34355800  0.17177902  1
  Au  Au2  1  0.75000003  0.82822101  0.65644204  1
  Au  Au3  1  0.25000001  0.17177900  0.82822100  1
  Au  Au4  1  0.25000001  0.65644200  0.82822103  1
  Au  Au5  1  0.25000001  0.17177900  0.34355800  1
  Au  Au6  1  0.25000001  0.66666667  0.33333337  1
  Au  Au7  1  0.75000003  0.33333334  0.66666668  1
