# generated using pymatgen
data_Al8Fe5
_symmetry_space_group_name_H-M   'P 1'
_cell_length_a   5.03507423
_cell_length_b   6.56599426
_cell_length_c   6.56599426
_cell_angle_alpha   80.63382721
_cell_angle_beta   67.45427704
_cell_angle_gamma   67.45427704
_symmetry_Int_Tables_number   1
_chemical_formula_structural   Al8Fe5
_chemical_formula_sum   'Al8 Fe5'
_cell_volume   185.12976674
_cell_formula_units_Z   1
loop_
 _symmetry_equiv_pos_site_id
 _symmetry_equiv_pos_as_xyz
  1  'x, y, z'
loop_
 _atom_site_type_symbol
 _atom_site_label
 _atom_site_symmetry_multiplicity
 _atom_site_fract_x
 _atom_site_fract_y
 _atom_site_fract_z
 _atom_site_occupancy
  Al  Al0  1  0.00000000  0.00000000  0.00000000  1
  Al  Al1  1  -0.00000007  0.66739602  0.33260404  1
  Al  Al2  1  -0.00000004  0.33260401  0.66739602  1
  Al  Al3  1  0.34256692  0.65743302  0.65743302  1
  Al  Al4  1  0.65743295  0.34256701  0.34256699  1
  Al  Al5  1  0.32211097  0.17788900  0.17788900  1
  Al  Al6  1  0.67788890  0.82211102  0.82211102  1
  Al  Al7  1  0.49999996  0.24321301  0.75678699  1
  Fe  Fe8  1  0.49999991  0.75678702  0.24321302  1
  Fe  Fe9  1  -0.00000005  0.50000001  0.00000003  1
  Fe  Fe10  1  0.49999994  0.50000001  0.00000000  1
  Fe  Fe11  1  0.00000000  0.00000000  0.50000000  1
  Fe  Fe12  1  0.49999999  0.00000000  0.49999998  1
