# generated using pymatgen
data_Dy4Si5Rh3
_symmetry_space_group_name_H-M   'P 1'
_cell_length_a   4.19021082
_cell_length_b   6.77676916
_cell_length_c   7.19831085
_cell_angle_alpha   90.00000000
_cell_angle_beta   90.00000000
_cell_angle_gamma   90.00000000
_symmetry_Int_Tables_number   1
_chemical_formula_structural   Dy4Si5Rh3
_chemical_formula_sum   'Dy4 Si5 Rh3'
_cell_volume   204.40389330
_cell_formula_units_Z   1
loop_
 _symmetry_equiv_pos_site_id
 _symmetry_equiv_pos_as_xyz
  1  'x, y, z'
loop_
 _atom_site_type_symbol
 _atom_site_label
 _atom_site_symmetry_multiplicity
 _atom_site_fract_x
 _atom_site_fract_y
 _atom_site_fract_z
 _atom_site_occupancy
  Dy  Dy0  1  0.25000001  0.00646800  0.80219302  1
  Dy  Dy1  1  0.25000001  0.50646799  0.69780701  1
  Dy  Dy2  1  0.75000003  0.99353198  0.19780700  1
  Dy  Dy3  1  0.75000003  0.49353199  0.30219301  1
  Si  Si4  1  0.25000001  0.84106298  0.43130201  1
  Si  Si5  1  0.25000001  0.34106299  0.06869800  1
  Si  Si6  1  0.75000003  0.15893700  0.56869801  1
  Si  Si7  1  0.75000003  0.65893698  0.93130202  1
  Rh  Rh8  1  0.25000001  0.20344600  0.39933901  1
  Si  Si9  1  0.25000001  0.70344598  0.10066100  1
  Rh  Rh10  1  0.75000003  0.79655398  0.60066101  1
  Rh  Rh11  1  0.75000003  0.29655399  0.89933902  1
