# generated using pymatgen
data_SrLaAuO4
_symmetry_space_group_name_H-M   'P 1'
_cell_length_a   5.82967710
_cell_length_b   5.82967710
_cell_length_c   5.96564913
_cell_angle_alpha   60.75114822
_cell_angle_beta   60.75114822
_cell_angle_gamma   60.00000763
_symmetry_Int_Tables_number   1
_chemical_formula_structural   SrLaAuO4
_chemical_formula_sum   'Sr1 La1 Au1 O4'
_cell_volume   144.96739889
_cell_formula_units_Z   1
loop_
 _symmetry_equiv_pos_site_id
 _symmetry_equiv_pos_as_xyz
  1  'x, y, z'
loop_
 _atom_site_type_symbol
 _atom_site_label
 _atom_site_symmetry_multiplicity
 _atom_site_fract_x
 _atom_site_fract_y
 _atom_site_fract_z
 _atom_site_occupancy
  Sr  Sr0  1  0.49999997  0.50000001  0.00000004  1
  La  La1  1  0.49999995  1.00000002  1.00000003  1
  Au  Au2  1  -0.00000003  0.50000001  0.99999999  1
  O  O3  1  0.00000000  0.00000000  0.00000000  1
  O  O4  1  0.49999997  0.50000001  0.50000002  1
  O  O5  1  0.78720496  0.78720502  0.63838504  1
  O  O6  1  0.21279499  0.21279500  0.36161501  1
