# generated using pymatgen
data_V2CoSi5
_symmetry_space_group_name_H-M   'P 1'
_cell_length_a   4.55003071
_cell_length_b   4.55003071
_cell_length_c   4.55003023
_cell_angle_alpha   89.79462433
_cell_angle_beta   89.79462433
_cell_angle_gamma   89.79461670
_symmetry_Int_Tables_number   1
_chemical_formula_structural   V2CoSi5
_chemical_formula_sum   'V2 Co1 Si5'
_cell_volume   94.19646118
_cell_formula_units_Z   1
loop_
 _symmetry_equiv_pos_site_id
 _symmetry_equiv_pos_as_xyz
  1  'x, y, z'
loop_
 _atom_site_type_symbol
 _atom_site_label
 _atom_site_symmetry_multiplicity
 _atom_site_fract_x
 _atom_site_fract_y
 _atom_site_fract_z
 _atom_site_occupancy
  V  V0  1  0.63418902  0.86110503  0.36578104  1
  V  V1  1  0.86110503  0.36578101  0.63418903  1
  Si  Si2  1  0.36578101  0.63418902  0.86110503  1
  Si  Si3  1  0.82905403  0.82905403  0.82905405  1
  Co  Co4  1  0.35517901  0.16608401  0.65576002  1
  Si  Si5  1  0.16608401  0.65576002  0.35517902  1
  Si  Si6  1  0.65576002  0.35517901  0.16608403  1
  Si  Si7  1  0.13284800  0.13284800  0.13284801  1
