# generated using pymatgen
data_LaScO3
_symmetry_space_group_name_H-M   'P 1'
_cell_length_a   5.85709000
_cell_length_b   6.05144215
_cell_length_c   8.46815109
_cell_angle_alpha   90.00000000
_cell_angle_beta   90.00000000
_cell_angle_gamma   90.00000000
_symmetry_Int_Tables_number   1
_chemical_formula_structural   LaScO3
_chemical_formula_sum   'La4 Sc4 O12'
_cell_volume   300.14380308
_cell_formula_units_Z   4
loop_
 _symmetry_equiv_pos_site_id
 _symmetry_equiv_pos_as_xyz
  1  'x, y, z'
loop_
 _atom_site_type_symbol
 _atom_site_label
 _atom_site_symmetry_multiplicity
 _atom_site_fract_x
 _atom_site_fract_y
 _atom_site_fract_z
 _atom_site_occupancy
  La  La0  1  0.98508000  0.04789100  0.25000000  1
  La  La1  1  0.48508000  0.45210899  0.74999999  1
  La  La2  1  0.51492000  0.54789099  0.25000000  1
  La  La3  1  0.01492000  0.95210898  0.74999999  1
  Sc  Sc4  1  0.00000000  0.49999999  -0.00000000  1
  Sc  Sc5  1  0.50000000  0.00000000  0.00000000  1
  Sc  Sc6  1  0.50000000  0.00000000  0.49999999  1
  Sc  Sc7  1  0.00000000  0.49999999  0.49999999  1
  O  O8  1  0.30646400  0.69520998  0.56628199  1
  O  O9  1  0.80646400  0.80478998  0.43371800  1
  O  O10  1  0.19353600  0.19521000  0.93371799  1
  O  O11  1  0.69353600  0.30478999  0.06628200  1
  O  O12  1  0.69353600  0.30478999  0.43371800  1
  O  O13  1  0.19353600  0.19521000  0.56628199  1
  O  O14  1  0.80646400  0.80478998  0.06628200  1
  O  O15  1  0.30646400  0.69520998  0.93371799  1
  O  O16  1  0.12435600  0.44545699  0.25000000  1
  O  O17  1  0.62435600  0.05454300  0.74999999  1
  O  O18  1  0.37564400  0.94545698  0.25000000  1
  O  O19  1  0.87564400  0.55454299  0.74999999  1
