# generated using pymatgen
data_Sr3Ti2O7
_symmetry_space_group_name_H-M   'P 1'
_cell_length_a   4.00777006
_cell_length_b   4.00777006
_cell_length_c   10.86810398
_cell_angle_alpha   100.62511444
_cell_angle_beta   100.62511444
_cell_angle_gamma   90.00000000
_symmetry_Int_Tables_number   1
_chemical_formula_structural   Sr3Ti2O7
_chemical_formula_sum   'Sr3 Ti2 O7'
_cell_volume   168.52674420
_cell_formula_units_Z   1
loop_
 _symmetry_equiv_pos_site_id
 _symmetry_equiv_pos_as_xyz
  1  'x, y, z'
loop_
 _atom_site_type_symbol
 _atom_site_label
 _atom_site_symmetry_multiplicity
 _atom_site_fract_x
 _atom_site_fract_y
 _atom_site_fract_z
 _atom_site_occupancy
  Sr  Sr0  1  0.68137198  0.68137199  0.36274400  1
  Sr  Sr1  1  0.31862799  0.31862799  0.63725602  1
  Sr  Sr2  1  0.49999999  0.49999999  -0.00000001  1
  Ti  Ti3  1  0.90675998  0.90675998  0.81352002  1
  Ti  Ti4  1  0.09324000  0.09324000  0.18648001  1
  O  O5  1  0.81373698  0.81373698  0.62747401  1
  O  O6  1  0.18626300  0.18626300  0.37252601  1
  O  O7  1  0.91361798  0.41361799  0.82723602  1
  O  O8  1  0.41361799  0.91361798  0.82723602  1
  O  O9  1  0.08638199  0.58638199  0.17276400  1
  O  O10  1  0.58638199  0.08638200  0.17276400  1
  O  O11  1  0.00000000  0.00000000  0.00000000  1
