# generated using pymatgen
data_Sc9Al2Ag5
_symmetry_space_group_name_H-M   'P 1'
_cell_length_a   6.21456814
_cell_length_b   6.21456814
_cell_length_c   9.92621899
_cell_angle_alpha   90.00000000
_cell_angle_beta   90.00000000
_cell_angle_gamma   119.55619049
_symmetry_Int_Tables_number   1
_chemical_formula_structural   Sc9Al2Ag5
_chemical_formula_sum   'Sc9 Al2 Ag5'
_cell_volume   333.47346979
_cell_formula_units_Z   1
loop_
 _symmetry_equiv_pos_site_id
 _symmetry_equiv_pos_as_xyz
  1  'x, y, z'
loop_
 _atom_site_type_symbol
 _atom_site_label
 _atom_site_symmetry_multiplicity
 _atom_site_fract_x
 _atom_site_fract_y
 _atom_site_fract_z
 _atom_site_occupancy
  Sc  Sc0  1  0.16574704  0.83425301  -0.00000000  1
  Sc  Sc1  1  0.66500401  0.33499600  -0.00000000  1
  Sc  Sc2  1  0.16080901  0.33690800  0.50000000  1
  Sc  Sc3  1  0.16827101  0.33380300  -0.00000000  1
  Sc  Sc4  1  0.66309203  0.83919101  0.50000000  1
  Sc  Sc5  1  0.66619703  0.83172901  -0.00000000  1
  Sc  Sc6  1  0.33337300  0.15754200  0.73070800  1
  Sc  Sc7  1  0.33337300  0.15754200  0.26929200  1
  Sc  Sc8  1  0.84245802  0.66666667  0.73070800  1
  Al  Al9  1  0.84245802  0.66666667  0.26929200  1
  Al  Al10  1  0.32833503  0.67166501  0.73981500  1
  Ag  Ag11  1  0.32833503  0.67166501  0.26018500  1
  Ag  Ag12  1  0.83145000  0.16855000  0.74846100  1
  Ag  Ag13  1  0.83145000  0.16855000  0.25153900  1
  Ag  Ag14  1  0.67103301  0.32896700  0.50000000  1
  Ag  Ag15  1  0.16860804  0.83139201  0.50000000  1
