# generated using pymatgen
data_Er(Al3Cr)3
_symmetry_space_group_name_H-M   'P 1'
_cell_length_a   5.06283522
_cell_length_b   6.78804874
_cell_length_c   6.78804922
_cell_angle_alpha   82.00588989
_cell_angle_beta   68.10401154
_cell_angle_gamma   68.10402679
_symmetry_Int_Tables_number   1
_chemical_formula_structural   Er(Al3Cr)3
_chemical_formula_sum   'Er1 Al9 Cr3'
_cell_volume   200.84031522
_cell_formula_units_Z   1
loop_
 _symmetry_equiv_pos_site_id
 _symmetry_equiv_pos_as_xyz
  1  'x, y, z'
loop_
 _atom_site_type_symbol
 _atom_site_label
 _atom_site_symmetry_multiplicity
 _atom_site_fract_x
 _atom_site_fract_y
 _atom_site_fract_z
 _atom_site_occupancy
  Er  Er0  1  0.00000000  0.00000000  0.00000000  1
  Al  Al1  1  0.33539505  0.66460498  0.66460498  1
  Al  Al2  1  0.66460502  0.33539499  0.33539496  1
  Al  Al3  1  0.00000006  0.66460498  0.33539500  1
  Al  Al4  1  1.00000001  0.33539499  0.66460494  1
  Al  Al5  1  0.27766701  0.22233299  0.22233298  1
  Al  Al6  1  0.72233306  0.77766698  0.77766696  1
  Al  Al7  1  0.50000001  0.22233299  0.77766696  1
  Al  Al8  1  0.50000006  0.77766698  0.22233298  1
  Al  Al9  1  0.49999999  0.00000000  0.49999996  1
  Cr  Cr10  1  0.00000000  0.00000000  0.49999999  1
  Cr  Cr11  1  0.50000004  0.49999999  0.99999996  1
  Cr  Cr12  1  1.00000003  0.49999999  0.99999994  1
