# generated using pymatgen
data_Nb2FeMoS4
_symmetry_space_group_name_H-M   'P 1'
_cell_length_a   5.61475182
_cell_length_b   5.61866570
_cell_length_c   5.61866570
_cell_angle_alpha   91.54106140
_cell_angle_beta   90.00000000
_cell_angle_gamma   90.00000000
_symmetry_Int_Tables_number   1
_chemical_formula_structural   Nb2FeMoS4
_chemical_formula_sum   'Nb2 Fe1 Mo1 S4'
_cell_volume   177.19025810
_cell_formula_units_Z   1
loop_
 _symmetry_equiv_pos_site_id
 _symmetry_equiv_pos_as_xyz
  1  'x, y, z'
loop_
 _atom_site_type_symbol
 _atom_site_label
 _atom_site_symmetry_multiplicity
 _atom_site_fract_x
 _atom_site_fract_y
 _atom_site_fract_z
 _atom_site_occupancy
  Nb  Nb0  1  0.00241000  0.00000000  -0.00000000  1
  Nb  Nb1  1  0.98505203  0.00000000  0.50000002  1
  Mo  Mo2  1  0.98505203  0.50000002  -0.00000002  1
  Fe  Fe3  1  0.50772502  0.00000000  -0.00000000  1
  S  S4  1  0.25161601  0.74210303  0.74210300  1
  S  S5  1  0.25161601  0.25789701  0.25789700  1
  S  S6  1  0.75826502  0.76493503  0.23506498  1
  S  S7  1  0.75826502  0.23506501  0.76493502  1
