# generated using pymatgen
data_DyAg
_symmetry_space_group_name_H-M   'P 1'
_cell_length_a   5.11495590
_cell_length_b   6.60678005
_cell_length_c   9.49106216
_cell_angle_alpha   90.00000000
_cell_angle_beta   90.00000000
_cell_angle_gamma   90.00000000
_symmetry_Int_Tables_number   1
_chemical_formula_structural   DyAg
_chemical_formula_sum   'Dy6 Ag6'
_cell_volume   320.73515215
_cell_formula_units_Z   6
loop_
 _symmetry_equiv_pos_site_id
 _symmetry_equiv_pos_as_xyz
  1  'x, y, z'
loop_
 _atom_site_type_symbol
 _atom_site_label
 _atom_site_symmetry_multiplicity
 _atom_site_fract_x
 _atom_site_fract_y
 _atom_site_fract_z
 _atom_site_occupancy
  Dy  Dy0  1  0.75000001  0.68647099  0.42731199  1
  Dy  Dy1  1  0.25000000  0.31352900  0.57268799  1
  Dy  Dy2  1  0.75000001  0.18647100  0.07268800  1
  Dy  Dy3  1  0.25000000  0.81352899  0.92731198  1
  Dy  Dy4  1  0.75000001  0.52715500  0.79182999  1
  Dy  Dy5  1  0.25000000  0.47284500  0.20817000  1
  Ag  Ag6  1  0.75000001  0.02715500  0.70816999  1
  Ag  Ag7  1  0.25000000  0.97284499  0.29182999  1
  Ag  Ag8  1  0.75000001  0.20919800  0.39626599  1
  Ag  Ag9  1  0.25000000  0.79080199  0.60373399  1
  Ag  Ag10  1  0.75000001  0.70919799  0.10373400  1
  Ag  Ag11  1  0.25000000  0.29080200  0.89626598  1
