# generated using pymatgen
data_Na2Ni2BiS9
_symmetry_space_group_name_H-M   'P 1'
_cell_length_a   6.00639153
_cell_length_b   6.00639153
_cell_length_c   7.96310091
_cell_angle_alpha   67.84342194
_cell_angle_beta   67.84342194
_cell_angle_gamma   60.00000381
_symmetry_Int_Tables_number   1
_chemical_formula_structural   Na2Ni2BiS9
_chemical_formula_sum   'Na2 Ni2 Bi1 S9'
_cell_volume   223.96377166
_cell_formula_units_Z   1
loop_
 _symmetry_equiv_pos_site_id
 _symmetry_equiv_pos_as_xyz
  1  'x, y, z'
loop_
 _atom_site_type_symbol
 _atom_site_label
 _atom_site_symmetry_multiplicity
 _atom_site_fract_x
 _atom_site_fract_y
 _atom_site_fract_z
 _atom_site_occupancy
  Na  Na0  1  0.21449000  0.21449000  0.35653000  1
  Na  Na1  1  0.99915301  0.99915302  0.00254099  1
  Bi  Bi2  1  0.79302601  0.79302602  0.62092200  1
  Ni  Ni3  1  0.38944300  0.38944301  0.83167101  1
  Ni  Ni4  1  0.60542201  0.60542201  0.18373399  1
  S  S5  1  0.77171801  0.26562601  0.69703000  1
  S  S6  1  0.26562600  0.77171801  0.69703000  1
  S  S7  1  0.26562600  0.26562601  0.69703001  1
  S  S8  1  0.21790100  0.73448601  0.31312700  1
  S  S9  1  0.73448601  0.21790100  0.31312700  1
  S  S10  1  0.73448601  0.73448601  0.31312700  1
  S  S11  1  0.51050500  0.98761502  0.99137500  1
  S  S12  1  0.51050501  0.51050501  0.99137501  1
  S  S13  1  0.98761501  0.51050501  0.99137500  1
