# generated using pymatgen
data_TiFe5
_symmetry_space_group_name_H-M   'P 1'
_cell_length_a   4.75431204
_cell_length_b   4.75431204
_cell_length_c   7.81025124
_cell_angle_alpha   90.00000000
_cell_angle_beta   90.00000000
_cell_angle_gamma   120.00000000
_symmetry_Int_Tables_number   1
_chemical_formula_structural   TiFe5
_chemical_formula_sum   'Ti2 Fe10'
_cell_volume   152.88715545
_cell_formula_units_Z   2
loop_
 _symmetry_equiv_pos_site_id
 _symmetry_equiv_pos_as_xyz
  1  'x, y, z'
loop_
 _atom_site_type_symbol
 _atom_site_label
 _atom_site_symmetry_multiplicity
 _atom_site_fract_x
 _atom_site_fract_y
 _atom_site_fract_z
 _atom_site_occupancy
  Ti  Ti0  1  0.66666666  0.33333333  0.55815098  1
  Ti  Ti1  1  0.66666666  0.33333333  0.93440797  1
  Fe  Fe2  1  0.33333333  0.66666667  0.07951600  1
  Fe  Fe3  1  0.00000000  0.00000000  0.49653198  1
  Fe  Fe4  1  0.00000000  0.00000000  0.99176697  1
  Fe  Fe5  1  0.82842799  0.17157300  0.25282599  1
  Fe  Fe6  1  0.82842800  0.65685600  0.25282599  1
  Fe  Fe7  1  0.34314500  0.17157300  0.25282599  1
  Fe  Fe8  1  0.17388500  0.82611500  0.74795698  1
  Fe  Fe9  1  0.17388500  0.34777000  0.74795698  1
  Fe  Fe10  1  0.65223000  0.82611500  0.74795698  1
  Fe  Fe11  1  0.33333333  0.66666667  0.43734299  1
