# generated using pymatgen
data_La3ZnSb5
_symmetry_space_group_name_H-M   'P 1'
_cell_length_a   6.40083313
_cell_length_b   9.64774418
_cell_length_c   9.64774418
_cell_angle_alpha   120.00000000
_cell_angle_beta   90.00000000
_cell_angle_gamma   90.00000000
_symmetry_Int_Tables_number   1
_chemical_formula_structural   La3ZnSb5
_chemical_formula_sum   'La6 Zn2 Sb10'
_cell_volume   515.96316153
_cell_formula_units_Z   2
loop_
 _symmetry_equiv_pos_site_id
 _symmetry_equiv_pos_as_xyz
  1  'x, y, z'
loop_
 _atom_site_type_symbol
 _atom_site_label
 _atom_site_symmetry_multiplicity
 _atom_site_fract_x
 _atom_site_fract_y
 _atom_site_fract_z
 _atom_site_occupancy
  La  La0  1  0.74999998  0.38202900  0.38202903  1
  La  La1  1  0.24999999  0.38202900  1.00000005  1
  La  La2  1  0.24999999  0.61797100  0.61797104  1
  La  La3  1  0.74999998  0.61797100  1.00000006  1
  La  La4  1  0.74999998  0.00000000  0.61797102  1
  La  La5  1  0.24999999  0.00000000  0.38202901  1
  Zn  Zn6  1  0.00000000  0.00000000  0.00000000  1
  Zn  Zn7  1  0.49999999  0.00000000  -0.00000000  1
  Sb  Sb8  1  0.49999999  0.66666667  0.33333337  1
  Sb  Sb9  1  0.99999998  0.33333333  0.66666670  1
  Sb  Sb10  1  0.49999999  0.33333333  0.66666670  1
  Sb  Sb11  1  0.99999998  0.66666667  0.33333337  1
  Sb  Sb12  1  0.24999999  0.25771200  0.25771202  1
  Sb  Sb13  1  0.74999998  0.25771200  1.00000005  1
  Sb  Sb14  1  0.74999998  0.00000000  0.25771201  1
  Sb  Sb15  1  0.24999999  0.00000000  0.74228803  1
  Sb  Sb16  1  0.74999998  0.74228800  0.74228805  1
  Sb  Sb17  1  0.24999999  0.74228800  0.00000003  1
