# generated using pymatgen
data_LaFeO3
_symmetry_space_group_name_H-M   'P 1'
_cell_length_a   5.44102669
_cell_length_b   5.46835566
_cell_length_c   5.47524929
_cell_angle_alpha   61.05012131
_cell_angle_beta   61.09933472
_cell_angle_gamma   61.18310165
_symmetry_Int_Tables_number   1
_chemical_formula_structural   LaFeO3
_chemical_formula_sum   'La2 Fe2 O6'
_cell_volume   118.07296716
_cell_formula_units_Z   2
loop_
 _symmetry_equiv_pos_site_id
 _symmetry_equiv_pos_as_xyz
  1  'x, y, z'
loop_
 _atom_site_type_symbol
 _atom_site_label
 _atom_site_symmetry_multiplicity
 _atom_site_fract_x
 _atom_site_fract_y
 _atom_site_fract_z
 _atom_site_occupancy
  La  La0  1  0.74822803  0.24961600  0.25187999  1
  La  La1  1  0.25177203  0.75038301  0.74812001  1
  Fe  Fe2  1  0.00000002  0.50000001  0.50000001  1
  Fe  Fe3  1  0.50000002  0.00000000  -0.00000001  1
  O  O4  1  0.68333203  0.30776400  0.75366101  1
  O  O5  1  0.31666903  0.69223501  0.24633899  1
  O  O6  1  0.80774605  0.75822801  0.17897898  1
  O  O7  1  0.19225401  0.24177100  0.82102102  1
  O  O8  1  0.26298101  0.18087600  0.30601000  1
  O  O9  1  0.73701905  0.81912401  0.69399000  1
