# generated using pymatgen
data_V4PSe9
_symmetry_space_group_name_H-M   'P 1'
_cell_length_a   3.49472594
_cell_length_b   9.36330605
_cell_length_c   10.10535526
_cell_angle_alpha   112.96588135
_cell_angle_beta   90.00000000
_cell_angle_gamma   90.00000000
_symmetry_Int_Tables_number   1
_chemical_formula_structural   V4PSe9
_chemical_formula_sum   'V4 P1 Se9'
_cell_volume   304.45961665
_cell_formula_units_Z   1
loop_
 _symmetry_equiv_pos_site_id
 _symmetry_equiv_pos_as_xyz
  1  'x, y, z'
loop_
 _atom_site_type_symbol
 _atom_site_label
 _atom_site_symmetry_multiplicity
 _atom_site_fract_x
 _atom_site_fract_y
 _atom_site_fract_z
 _atom_site_occupancy
  V  V0  1  -0.00000000  0.72453399  0.63452898  1
  V  V1  1  0.50000001  0.27661000  0.36187399  1
  V  V2  1  0.50000001  0.54769100  0.91388198  1
  V  V3  1  -0.00000000  0.44985900  0.09760299  1
  Se  Se4  1  0.50000001  0.95737799  0.75712998  1
  P  P5  1  -0.00000000  0.04294000  0.24018000  1
  Se  Se6  1  1.00000002  0.34506500  0.84479598  1
  Se  Se7  1  0.50000001  0.64237899  0.16356999  1
  Se  Se8  1  0.50000001  0.83815999  0.50164199  1
  Se  Se9  1  -0.00000000  0.16346400  0.49518499  1
  Se  Se10  1  0.50000001  0.51159300  0.63615399  1
  Se  Se11  1  -0.00000000  0.48556600  0.35327299  1
  Se  Se12  1  -0.00000000  0.75073999  0.91263298  1
  Se  Se13  1  0.50000001  0.26402000  0.08754900  1
