# generated using pymatgen
data_SrLaCu2O5
_symmetry_space_group_name_H-M   'P 1'
_cell_length_a   5.32285261
_cell_length_b   5.61895561
_cell_length_c   9.10864544
_cell_angle_alpha   107.96392059
_cell_angle_beta   106.98748779
_cell_angle_gamma   90.00446320
_symmetry_Int_Tables_number   1
_chemical_formula_structural   SrLaCu2O5
_chemical_formula_sum   'Sr2 La2 Cu4 O10'
_cell_volume   246.62078537
_cell_formula_units_Z   2
loop_
 _symmetry_equiv_pos_site_id
 _symmetry_equiv_pos_as_xyz
  1  'x, y, z'
loop_
 _atom_site_type_symbol
 _atom_site_label
 _atom_site_symmetry_multiplicity
 _atom_site_fract_x
 _atom_site_fract_y
 _atom_site_fract_z
 _atom_site_occupancy
  Sr  Sr0  1  0.11209099  0.62419900  0.72318800  1
  Sr  Sr1  1  0.38890298  0.90101100  0.27681202  1
  La  La2  1  0.90149899  0.36938200  0.29873403  1
  La  La3  1  0.60276500  0.07064800  0.70126601  1
  Cu  Cu4  1  0.79141899  0.68605100  0.00000004  1
  Cu  Cu5  1  0.28620799  0.31578200  0.99999999  1
  Cu  Cu6  1  0.49958199  0.49468500  0.49945402  1
  Cu  Cu7  1  0.00012798  0.99523100  0.50054600  1
  O  O8  1  0.65073499  0.36879300  0.00000003  1
  O  O9  1  0.14412299  0.62750100  0.00000001  1
  O  O10  1  0.62410398  0.73358200  0.80528902  1
  O  O11  1  0.31646599  0.30254900  0.20359801  1
  O  O12  1  0.81881498  0.92829300  0.19471104  1
  O  O13  1  0.11286800  0.09895100  0.79640199  1
  O  O14  1  0.24619798  0.74217300  0.48862201  1
  O  O15  1  0.25831599  0.25086500  0.51411200  1
  O  O16  1  0.75757600  0.25355100  0.51137802  1
  O  O17  1  0.74420398  0.73675300  0.48588803  1
