# generated using pymatgen
data_Lu5GeIr8
_symmetry_space_group_name_H-M   'P 1'
_cell_length_a   5.30088615
_cell_length_b   7.63661575
_cell_length_c   7.63661575
_cell_angle_alpha   83.08147430
_cell_angle_beta   69.69177246
_cell_angle_gamma   69.69177246
_symmetry_Int_Tables_number   1
_chemical_formula_structural   Lu5GeIr8
_chemical_formula_sum   'Lu5 Ge1 Ir8'
_cell_volume   271.89863726
_cell_formula_units_Z   1
loop_
 _symmetry_equiv_pos_site_id
 _symmetry_equiv_pos_as_xyz
  1  'x, y, z'
loop_
 _atom_site_type_symbol
 _atom_site_label
 _atom_site_symmetry_multiplicity
 _atom_site_fract_x
 _atom_site_fract_y
 _atom_site_fract_z
 _atom_site_occupancy
  Lu  Lu0  1  0.09312401  0.31375300  0.50000001  1
  Lu  Lu1  1  0.90687600  0.68624700  0.50000003  1
  Lu  Lu2  1  0.40687701  0.50000000  0.68624602  1
  Lu  Lu3  1  0.59312300  0.50000000  0.31375402  1
  Ge  Ge4  1  0.90214698  0.31658100  0.87912503  1
  Lu  Lu5  1  0.09785303  0.68341900  0.12087500  1
  Ir  Ir6  1  0.59785398  0.12087400  0.68341902  1
  Ir  Ir7  1  0.40214603  0.87912600  0.31658101  1
  Ir  Ir8  1  0.78127297  0.12087400  0.31658102  1
  Ir  Ir9  1  0.21872704  0.87912600  0.68341901  1
  Ir  Ir10  1  0.28127201  0.31658100  0.12087501  1
  Ir  Ir11  1  0.71872801  0.68341900  0.87912503  1
  Ir  Ir12  1  0.74999997  0.00000000  1.00000003  1
  Ir  Ir13  1  0.24999999  0.00000000  0.00000001  1
