# generated using pymatgen
data_MnCu3Se4
_symmetry_space_group_name_H-M   'P 1'
_cell_length_a   4.25528812
_cell_length_b   7.36191559
_cell_length_c   7.36191559
_cell_angle_alpha   109.39032745
_cell_angle_beta   90.00000000
_cell_angle_gamma   90.00000000
_symmetry_Int_Tables_number   1
_chemical_formula_structural   MnCu3Se4
_chemical_formula_sum   'Mn1 Cu3 Se4'
_cell_volume   217.54578596
_cell_formula_units_Z   1
loop_
 _symmetry_equiv_pos_site_id
 _symmetry_equiv_pos_as_xyz
  1  'x, y, z'
loop_
 _atom_site_type_symbol
 _atom_site_label
 _atom_site_symmetry_multiplicity
 _atom_site_fract_x
 _atom_site_fract_y
 _atom_site_fract_z
 _atom_site_occupancy
  Cu  Cu0  1  0.99999997  0.00010900  0.99989099  1
  Mn  Mn1  1  0.49999999  0.00676500  0.50244199  1
  Cu  Cu2  1  0.49999999  0.49755798  0.99323495  1
  Cu  Cu3  1  0.99999997  0.49537498  0.50462496  1
  Se  Se4  1  0.49999999  0.62518998  0.37480995  1
  Se  Se5  1  0.99999997  0.62517798  0.87513395  1
  Se  Se6  1  0.99999997  0.12486600  0.37482199  1
  Se  Se7  1  0.49999999  0.12496000  0.87503998  1
