# generated using pymatgen
data_Sr2CuO4
_symmetry_space_group_name_H-M   'P 1'
_cell_length_a   6.05478048
_cell_length_b   6.05478048
_cell_length_c   6.05478001
_cell_angle_alpha   60.22268295
_cell_angle_beta   60.22268295
_cell_angle_gamma   60.22267532
_symmetry_Int_Tables_number   1
_chemical_formula_structural   Sr2CuO4
_chemical_formula_sum   'Sr2 Cu1 O4'
_cell_volume   157.74812548
_cell_formula_units_Z   1
loop_
 _symmetry_equiv_pos_site_id
 _symmetry_equiv_pos_as_xyz
  1  'x, y, z'
loop_
 _atom_site_type_symbol
 _atom_site_label
 _atom_site_symmetry_multiplicity
 _atom_site_fract_x
 _atom_site_fract_y
 _atom_site_fract_z
 _atom_site_occupancy
  Sr  Sr0  1  0.49999998  0.50000001  0.00000003  1
  Sr  Sr1  1  0.50000000  0.00000000  0.50000003  1
  Cu  Cu2  1  -0.00000002  0.50000001  0.50000004  1
  O  O3  1  0.00000000  0.00000000  0.00000000  1
  O  O4  1  0.49999998  0.50000001  0.50000005  1
  O  O5  1  0.21497599  0.21497600  0.21497602  1
  O  O6  1  0.78502397  0.78502401  0.78502408  1
