# generated using pymatgen
data_PrNiPt
_symmetry_space_group_name_H-M   'P 1'
_cell_length_a   5.35903072
_cell_length_b   5.35903072
_cell_length_c   5.35903072
_cell_angle_alpha   60.00000000
_cell_angle_beta   60.00000000
_cell_angle_gamma   60.00000000
_symmetry_Int_Tables_number   1
_chemical_formula_structural   PrNiPt
_chemical_formula_sum   'Pr2 Ni2 Pt2'
_cell_volume   108.82877553
_cell_formula_units_Z   2
loop_
 _symmetry_equiv_pos_site_id
 _symmetry_equiv_pos_as_xyz
  1  'x, y, z'
loop_
 _atom_site_type_symbol
 _atom_site_label
 _atom_site_symmetry_multiplicity
 _atom_site_fract_x
 _atom_site_fract_y
 _atom_site_fract_z
 _atom_site_occupancy
  Pr  Pr0  1  0.25000000  0.25000000  0.25000000  1
  Pr  Pr1  1  0.50000000  0.50000000  0.50000000  1
  Ni  Ni2  1  0.87500001  0.37500000  0.87500001  1
  Pt  Pt3  1  0.87500001  0.87500001  0.87500001  1
  Ni  Ni4  1  0.37500000  0.87500001  0.87500001  1
  Pt  Pt5  1  0.87500001  0.87500001  0.37500000  1
