# generated using pymatgen
data_Ce3GeRu4
_symmetry_space_group_name_H-M   'P 1'
_cell_length_a   5.76664495
_cell_length_b   6.79824114
_cell_length_c   8.40918446
_cell_angle_alpha   90.00000000
_cell_angle_beta   90.00000000
_cell_angle_gamma   90.00000000
_symmetry_Int_Tables_number   1
_chemical_formula_structural   Ce3GeRu4
_chemical_formula_sum   'Ce6 Ge2 Ru8'
_cell_volume   329.66561950
_cell_formula_units_Z   2
loop_
 _symmetry_equiv_pos_site_id
 _symmetry_equiv_pos_as_xyz
  1  'x, y, z'
loop_
 _atom_site_type_symbol
 _atom_site_label
 _atom_site_symmetry_multiplicity
 _atom_site_fract_x
 _atom_site_fract_y
 _atom_site_fract_z
 _atom_site_occupancy
  Ce  Ce0  1  0.35504600  0.67909899  0.05057100  1
  Ce  Ce1  1  0.14495400  0.17909900  0.44942898  1
  Ce  Ce2  1  0.64495401  0.32090099  0.55057097  1
  Ce  Ce3  1  0.85504601  0.82090098  0.94942895  1
  Ce  Ce4  1  0.64495401  0.32090099  0.94942895  1
  Ce  Ce5  1  0.85504601  0.82090098  0.55057097  1
  Ge  Ge6  1  0.35504600  0.67909899  0.44942898  1
  Ge  Ge7  1  0.14495400  0.17909900  0.05057100  1
  Ru  Ru8  1  0.85997301  0.52693899  0.24999999  1
  Ru  Ru9  1  0.64002701  0.02693900  0.24999999  1
  Ru  Ru10  1  0.14002700  0.47306099  0.74999996  1
  Ru  Ru11  1  0.35997300  0.97306098  0.74999996  1
  Ru  Ru12  1  0.07263700  0.87564998  0.24999999  1
  Ru  Ru13  1  0.42736300  0.37564999  0.24999999  1
  Ru  Ru14  1  0.92736301  0.12435000  0.74999996  1
  Ru  Ru15  1  0.57263700  0.62434999  0.74999996  1
