# generated using pymatgen
data_CeSi2
_symmetry_space_group_name_H-M   'P 1'
_cell_length_a   3.99443603
_cell_length_b   4.23397398
_cell_length_c   7.76448345
_cell_angle_alpha   105.82202148
_cell_angle_beta   104.90545654
_cell_angle_gamma   90.00000000
_symmetry_Int_Tables_number   1
_chemical_formula_structural   CeSi2
_chemical_formula_sum   'Ce2 Si4'
_cell_volume   121.74145597
_cell_formula_units_Z   2
loop_
 _symmetry_equiv_pos_site_id
 _symmetry_equiv_pos_as_xyz
  1  'x, y, z'
loop_
 _atom_site_type_symbol
 _atom_site_label
 _atom_site_symmetry_multiplicity
 _atom_site_fract_x
 _atom_site_fract_y
 _atom_site_fract_z
 _atom_site_occupancy
  Ce  Ce0  1  0.86849398  0.86849400  0.73698798  1
  Ce  Ce1  1  0.13089399  0.63089400  0.26178799  1
  Si  Si2  1  0.29607599  0.29607600  0.59215199  1
  Si  Si3  1  0.45973599  0.45973600  0.91947199  1
  Si  Si4  1  0.70501799  0.20501800  0.41003599  1
  Si  Si5  1  0.53978199  0.03978200  0.07956399  1
