# generated using pymatgen
data_Tl2InHgI8
_symmetry_space_group_name_H-M   'P 1'
_cell_length_a   8.80477619
_cell_length_b   8.98545742
_cell_length_c   8.92827225
_cell_angle_alpha   119.78969574
_cell_angle_beta   90.00000000
_cell_angle_gamma   119.33702850
_symmetry_Int_Tables_number   1
_chemical_formula_structural   Tl2InHgI8
_chemical_formula_sum   'Tl2 In1 Hg1 I8'
_cell_volume   505.98484075
_cell_formula_units_Z   1
loop_
 _symmetry_equiv_pos_site_id
 _symmetry_equiv_pos_as_xyz
  1  'x, y, z'
loop_
 _atom_site_type_symbol
 _atom_site_label
 _atom_site_symmetry_multiplicity
 _atom_site_fract_x
 _atom_site_fract_y
 _atom_site_fract_z
 _atom_site_occupancy
  In  In0  1  0.50000003  0.50000004  0.50000001  1
  Tl  Tl1  1  0.00000004  0.50000004  0.50000001  1
  Tl  Tl2  1  0.99999998  0.00000000  0.49999999  1
  Hg  Hg3  1  0.00000000  0.00000000  0.00000000  1
  I  I4  1  0.75917603  0.51835205  0.74255400  1
  I  I5  1  0.75917703  0.51835305  0.27579802  1
  I  I6  1  0.25503200  0.00952000  0.75475998  1
  I  I7  1  0.75448798  0.00952000  0.75475998  1
  I  I8  1  0.24551208  0.99048009  0.24524004  1
  I  I9  1  0.24082304  0.48164704  0.72420200  1
  I  I10  1  0.74496807  0.99048009  0.24524004  1
  I  I11  1  0.24082404  0.48164804  0.25744601  1
