# generated using pymatgen
data_TbSi2
_symmetry_space_group_name_H-M   'P 1'
_cell_length_a   3.98074794
_cell_length_b   4.15633202
_cell_length_c   7.75298834
_cell_angle_alpha   105.54808807
_cell_angle_beta   104.87573242
_cell_angle_gamma   90.00000000
_symmetry_Int_Tables_number   1
_chemical_formula_structural   TbSi2
_chemical_formula_sum   'Tb2 Si4'
_cell_volume   119.11298073
_cell_formula_units_Z   2
loop_
 _symmetry_equiv_pos_site_id
 _symmetry_equiv_pos_as_xyz
  1  'x, y, z'
loop_
 _atom_site_type_symbol
 _atom_site_label
 _atom_site_symmetry_multiplicity
 _atom_site_fract_x
 _atom_site_fract_y
 _atom_site_fract_z
 _atom_site_occupancy
  Tb  Tb0  1  0.74755701  0.24755700  0.49511400  1
  Tb  Tb1  1  0.00223800  0.00223800  0.00447600  1
  Si  Si2  1  0.32528400  0.82528399  0.65056798  1
  Si  Si3  1  0.58677200  0.58677199  0.17354399  1
  Si  Si4  1  0.16497899  0.66497899  0.32995799  1
  Si  Si5  1  0.41517100  0.41517099  0.83034199  1
