# generated using pymatgen
data_Li3Mn4O11
_symmetry_space_group_name_H-M   'P 1'
_cell_length_a   4.72457123
_cell_length_b   4.72466612
_cell_length_c   9.33670902
_cell_angle_alpha   89.98263550
_cell_angle_beta   89.24511719
_cell_angle_gamma   89.98571777
_symmetry_Int_Tables_number   1
_chemical_formula_structural   Li3Mn4O11
_chemical_formula_sum   'Li3 Mn4 O11'
_cell_volume   208.39611609
_cell_formula_units_Z   1
loop_
 _symmetry_equiv_pos_site_id
 _symmetry_equiv_pos_as_xyz
  1  'x, y, z'
loop_
 _atom_site_type_symbol
 _atom_site_label
 _atom_site_symmetry_multiplicity
 _atom_site_fract_x
 _atom_site_fract_y
 _atom_site_fract_z
 _atom_site_occupancy
  Li  Li0  1  0.99243403  0.00065500  0.99464594  1
  Li  Li1  1  0.49254402  0.49924200  0.49471597  1
  Mn  Mn2  1  0.01729900  0.02165100  0.33473799  1
  Li  Li3  1  0.48976302  0.48983800  0.17729198  1
  Mn  Mn4  1  0.51714902  0.47823500  0.83476496  1
  Mn  Mn5  1  0.98985203  0.01052300  0.67734495  1
  O  O6  1  0.79537903  0.20039800  0.82085295  1
  Mn  Mn7  1  0.29540501  0.29950800  0.32089698  1
  O  O8  1  0.30372501  0.30327900  0.99968195  1
  O  O9  1  0.80380903  0.19684100  0.49981397  1
  O  O10  1  0.21005701  0.78995200  0.82956896  1
  O  O11  1  0.70992302  0.71015200  0.32956397  1
  O  O12  1  0.30184101  0.29868900  0.66793797  1
  O  O13  1  0.80195303  0.20115600  0.16803998  1
  O  O14  1  0.70039802  0.69757900  0.67012496  1
  O  O15  1  0.20070601  0.80239600  0.16985299  1
  O  O16  1  0.18875301  0.81498300  0.50496998  1
  O  O17  1  0.68901102  0.68492200  0.00519599  1
