# generated using pymatgen
data_GdFeC
_symmetry_space_group_name_H-M   'P 1'
_cell_length_a   3.55359912
_cell_length_b   3.57804203
_cell_length_c   3.60544205
_cell_angle_alpha   90.00000000
_cell_angle_beta   90.00000000
_cell_angle_gamma   90.00000000
_symmetry_Int_Tables_number   1
_chemical_formula_structural   GdFeC
_chemical_formula_sum   'Gd1 Fe1 C1'
_cell_volume   45.84293246
_cell_formula_units_Z   1
loop_
 _symmetry_equiv_pos_site_id
 _symmetry_equiv_pos_as_xyz
  1  'x, y, z'
loop_
 _atom_site_type_symbol
 _atom_site_label
 _atom_site_symmetry_multiplicity
 _atom_site_fract_x
 _atom_site_fract_y
 _atom_site_fract_z
 _atom_site_occupancy
  Gd  Gd0  1  0.00000000  0.00000000  0.00000000  1
  Fe  Fe1  1  0.49999998  0.50000000  0.49999999  1
  C  C2  1  0.49999998  0.50000000  0.00000000  1
