# generated using pymatgen
data_NaLaCo6CuO7
_symmetry_space_group_name_H-M   'P 1'
_cell_length_a   6.94247913
_cell_length_b   6.94247913
_cell_length_c   6.94247913
_cell_angle_alpha   60.00000000
_cell_angle_beta   60.00000000
_cell_angle_gamma   60.00000000
_symmetry_Int_Tables_number   1
_chemical_formula_structural   NaLaCo6CuO7
_chemical_formula_sum   'Na1 La1 Co6 Cu1 O7'
_cell_volume   236.60763330
_cell_formula_units_Z   1
loop_
 _symmetry_equiv_pos_site_id
 _symmetry_equiv_pos_as_xyz
  1  'x, y, z'
loop_
 _atom_site_type_symbol
 _atom_site_label
 _atom_site_symmetry_multiplicity
 _atom_site_fract_x
 _atom_site_fract_y
 _atom_site_fract_z
 _atom_site_occupancy
  Na  Na0  1  0.49999999  0.49999999  0.49999999  1
  La  La1  1  0.00000000  0.00000000  0.00000000  1
  Cu  Cu2  1  0.49999999  0.00000000  0.49999999  1
  Co  Co3  1  -0.00000000  0.49999999  0.00000000  1
  Co  Co4  1  0.49999999  0.00000000  -0.00000000  1
  Co  Co5  1  -0.00000000  0.49999999  0.49999999  1
  O  O6  1  0.49999999  0.49999999  -0.00000000  1
  Co  Co7  1  -0.00000000  0.00000000  0.49999999  1
  Co  Co8  1  0.42734099  0.85755299  0.85755299  1
  Co  Co9  1  0.57265899  0.14244700  0.14244700  1
  O  O10  1  0.85755299  0.42734099  0.85755299  1
  O  O11  1  0.85755299  0.85755299  0.85755299  1
  O  O12  1  0.14244700  0.57265899  0.14244700  1
  O  O13  1  0.14244700  0.14244700  0.14244700  1
  O  O14  1  0.85755299  0.85755299  0.42734099  1
  O  O15  1  0.14244700  0.14244700  0.57265899  1
