# generated using pymatgen
data_Nd2Si5Rh
_symmetry_space_group_name_H-M   'P 1'
_cell_length_a   4.15908813
_cell_length_b   4.20161581
_cell_length_c   8.68361664
_cell_angle_alpha   75.99964905
_cell_angle_beta   90.00000000
_cell_angle_gamma   90.00000000
_symmetry_Int_Tables_number   1
_chemical_formula_structural   Nd2Si5Rh
_chemical_formula_sum   'Nd2 Si5 Rh1'
_cell_volume   147.23754229
_cell_formula_units_Z   1
loop_
 _symmetry_equiv_pos_site_id
 _symmetry_equiv_pos_as_xyz
  1  'x, y, z'
loop_
 _atom_site_type_symbol
 _atom_site_label
 _atom_site_symmetry_multiplicity
 _atom_site_fract_x
 _atom_site_fract_y
 _atom_site_fract_z
 _atom_site_occupancy
  Nd  Nd0  1  0.74999998  0.60578104  0.78843795  1
  Nd  Nd1  1  0.24999999  0.39421902  0.21156198  1
  Si  Si2  1  0.74999998  0.96297306  0.07405397  1
  Si  Si3  1  0.24999999  0.03702700  0.92594596  1
  Si  Si4  1  0.74999998  0.25064702  0.49870597  1
  Si  Si5  1  0.24999999  0.74935304  0.50129395  1
  Rh  Rh6  1  0.74999998  0.82223505  0.35552996  1
  Si  Si7  1  0.24999999  0.17776501  0.64446997  1
