# generated using pymatgen
data_Li2CuO4
_symmetry_space_group_name_H-M   'P 1'
_cell_length_a   3.47073793
_cell_length_b   3.47073793
_cell_length_c   8.44185829
_cell_angle_alpha   78.13729858
_cell_angle_beta   78.13729858
_cell_angle_gamma   60.00000000
_symmetry_Int_Tables_number   1
_chemical_formula_structural   Li2CuO4
_chemical_formula_sum   'Li2 Cu1 O4'
_cell_volume   85.54984606
_cell_formula_units_Z   1
loop_
 _symmetry_equiv_pos_site_id
 _symmetry_equiv_pos_as_xyz
  1  'x, y, z'
loop_
 _atom_site_type_symbol
 _atom_site_label
 _atom_site_symmetry_multiplicity
 _atom_site_fract_x
 _atom_site_fract_y
 _atom_site_fract_z
 _atom_site_occupancy
  Li  Li0  1  0.99876704  0.99876702  0.00369901  1
  Li  Li1  1  0.78530804  0.78530802  0.64407604  1
  Cu  Cu2  1  0.21370001  0.21370000  0.35890002  1
  O  O3  1  0.71232803  0.71232802  0.86301605  1
  O  O4  1  0.28483701  0.28483701  0.14548901  1
  O  O5  1  0.86717104  0.86717102  0.39848703  1
  O  O6  1  0.13308801  0.13308800  0.60073603  1
