# generated using pymatgen
data_Li2LaCu2Bi2SbO11
_symmetry_space_group_name_H-M   'P 1'
_cell_length_a   3.87411904
_cell_length_b   3.90292931
_cell_length_c   18.95841980
_cell_angle_alpha   85.04000854
_cell_angle_beta   84.38406372
_cell_angle_gamma   89.97966766
_symmetry_Int_Tables_number   1
_chemical_formula_structural   Li2LaCu2Bi2SbO11
_chemical_formula_sum   'Li2 La1 Cu2 Bi2 Sb1 O11'
_cell_volume   284.20543643
_cell_formula_units_Z   1
loop_
 _symmetry_equiv_pos_site_id
 _symmetry_equiv_pos_as_xyz
  1  'x, y, z'
loop_
 _atom_site_type_symbol
 _atom_site_label
 _atom_site_symmetry_multiplicity
 _atom_site_fract_x
 _atom_site_fract_y
 _atom_site_fract_z
 _atom_site_occupancy
  La  La0  1  0.87820599  0.86984899  0.23638799  1
  Li  Li1  1  0.12135600  0.13048600  0.76461900  1
  Li  Li2  1  0.21535800  0.21740700  0.57068600  1
  Cu  Cu3  1  0.78488599  0.78319799  0.42947099  1
  Bi  Bi4  1  0.33391000  0.33161300  0.33062200  1
  Cu  Cu5  1  0.66707499  0.66875499  0.66695199  1
  Sb  Sb6  1  0.00044500  0.00089500  0.99918000  1
  Bi  Bi7  1  0.44591800  0.45341499  0.09374599  1
  O  O8  1  0.55396900  0.54659899  0.90573899  1
  O  O9  1  0.82859099  0.32505100  0.34189099  1
  O  O10  1  0.67238699  0.17286000  0.65584399  1
  O  O11  1  0.17250000  0.67304599  0.65537899  1
  O  O12  1  0.32871400  0.82777699  0.34083899  1
  O  O13  1  0.74729599  0.25013600  0.50589499  1
  O  O14  1  0.24772000  0.74795899  0.50639699  1
  O  O15  1  0.39149200  0.38087500  0.20907200  1
  O  O16  1  0.60934899  0.61984499  0.78905899  1
  O  O17  1  0.93699199  0.85305599  0.09565099  1
  O  O18  1  0.06383500  0.14717700  0.90257000  1
