# generated using pymatgen
data_KTlBr4
_symmetry_space_group_name_H-M   'P 1'
_cell_length_a   7.51540565
_cell_length_b   9.02884388
_cell_length_c   9.26117420
_cell_angle_alpha   113.80723572
_cell_angle_beta   107.76282501
_cell_angle_gamma   101.91860962
_symmetry_Int_Tables_number   1
_chemical_formula_structural   KTlBr4
_chemical_formula_sum   'K2 Tl2 Br8'
_cell_volume   506.83182575
_cell_formula_units_Z   2
loop_
 _symmetry_equiv_pos_site_id
 _symmetry_equiv_pos_as_xyz
  1  'x, y, z'
loop_
 _atom_site_type_symbol
 _atom_site_label
 _atom_site_symmetry_multiplicity
 _atom_site_fract_x
 _atom_site_fract_y
 _atom_site_fract_z
 _atom_site_occupancy
  K  K0  1  0.61520800  0.36520800  0.73041603  1
  K  K1  1  0.38479198  0.63479200  0.26958400  1
  Tl  Tl2  1  0.25000401  0.00000400  0.00000801  1
  Tl  Tl3  1  0.74999597  0.99999600  0.99999202  1
  Br  Br4  1  0.98671199  0.76892600  0.12575402  1
  Br  Br5  1  0.01328799  0.23107400  0.87424600  1
  Br  Br6  1  0.36095798  0.64317200  0.87424601  1
  Br  Br7  1  0.79611199  0.71175100  0.65414902  1
  Br  Br8  1  0.64196302  0.05760200  0.34585103  1
  Br  Br9  1  0.35803696  0.94239800  0.65414899  1
  Br  Br10  1  0.20388799  0.28824900  0.34585100  1
  Br  Br11  1  0.63904200  0.35682800  0.12575402  1
