# generated using pymatgen
data_NaCO4
_symmetry_space_group_name_H-M   'P 1'
_cell_length_a   3.90979218
_cell_length_b   3.90979218
_cell_length_c   10.03181076
_cell_angle_alpha   90.00000000
_cell_angle_beta   90.00000000
_cell_angle_gamma   91.49442291
_symmetry_Int_Tables_number   1
_chemical_formula_structural   NaCO4
_chemical_formula_sum   'Na2 C2 O8'
_cell_volume   153.29886413
_cell_formula_units_Z   2
loop_
 _symmetry_equiv_pos_site_id
 _symmetry_equiv_pos_as_xyz
  1  'x, y, z'
loop_
 _atom_site_type_symbol
 _atom_site_label
 _atom_site_symmetry_multiplicity
 _atom_site_fract_x
 _atom_site_fract_y
 _atom_site_fract_z
 _atom_site_occupancy
  Na  Na0  1  0.20876700  0.29123300  0.88705602  1
  Na  Na1  1  0.70876700  0.79123301  0.11294400  1
  C  C2  1  0.33260700  0.16739300  0.33301701  1
  C  C3  1  0.83260700  0.66739301  0.66698302  1
  O  O4  1  0.21925900  0.28074100  0.43554601  1
  O  O5  1  0.71925900  0.78074101  0.56445401  1
  O  O6  1  0.72034501  0.27965500  -0.00000000  1
  O  O7  1  0.22034499  0.77965501  -0.00000000  1
  O  O8  1  0.70232300  0.39930100  0.72761602  1
  O  O9  1  0.10069899  0.79767701  0.72761602  1
  O  O10  1  0.20232299  0.89930101  0.27238401  1
  O  O11  1  0.60069900  0.29767700  0.27238401  1
