# generated using pymatgen
data_HfNi
_symmetry_space_group_name_H-M   'P 1'
_cell_length_a   2.91782188
_cell_length_b   4.01415777
_cell_length_c   4.91926765
_cell_angle_alpha   90.00000000
_cell_angle_beta   107.25175476
_cell_angle_gamma   90.00000000
_symmetry_Int_Tables_number   1
_chemical_formula_structural   HfNi
_chemical_formula_sum   'Hf2 Ni2'
_cell_volume   55.02524428
_cell_formula_units_Z   2
loop_
 _symmetry_equiv_pos_site_id
 _symmetry_equiv_pos_as_xyz
  1  'x, y, z'
loop_
 _atom_site_type_symbol
 _atom_site_label
 _atom_site_symmetry_multiplicity
 _atom_site_fract_x
 _atom_site_fract_y
 _atom_site_fract_z
 _atom_site_occupancy
  Hf  Hf0  1  0.35725302  0.25000001  0.71450599  1
  Hf  Hf1  1  0.64274704  0.75000004  0.28549401  1
  Ni  Ni2  1  0.08505100  0.25000001  0.17010200  1
  Ni  Ni3  1  0.91494905  0.75000004  0.82989801  1
