# generated using pymatgen
data_La(CoGe)2
_symmetry_space_group_name_H-M   'P 1'
_cell_length_a   4.14400578
_cell_length_b   4.14400578
_cell_length_c   5.74226141
_cell_angle_alpha   111.15142059
_cell_angle_beta   111.15142059
_cell_angle_gamma   90.00000000
_symmetry_Int_Tables_number   1
_chemical_formula_structural   La(CoGe)2
_chemical_formula_sum   'La1 Co2 Ge2'
_cell_volume   84.80499745
_cell_formula_units_Z   1
loop_
 _symmetry_equiv_pos_site_id
 _symmetry_equiv_pos_as_xyz
  1  'x, y, z'
loop_
 _atom_site_type_symbol
 _atom_site_label
 _atom_site_symmetry_multiplicity
 _atom_site_fract_x
 _atom_site_fract_y
 _atom_site_fract_z
 _atom_site_occupancy
  La  La0  1  0.00000000  0.00000000  0.00000000  1
  Co  Co1  1  0.24999999  0.75000003  0.49999996  1
  Co  Co2  1  0.75000002  0.25000001  0.49999997  1
  Ge  Ge3  1  0.63173601  0.63173602  0.26347196  1
  Ge  Ge4  1  0.36826401  0.36826401  0.73652797  1
