# generated using pymatgen
data_Na2BiO3
_symmetry_space_group_name_H-M   'P 1'
_cell_length_a   5.95769644
_cell_length_b   5.98299837
_cell_length_c   5.98299837
_cell_angle_alpha   60.26609421
_cell_angle_beta   80.07803345
_cell_angle_gamma   99.92196655
_symmetry_Int_Tables_number   1
_chemical_formula_structural   Na2BiO3
_chemical_formula_sum   'Na4 Bi2 O6'
_cell_volume   173.93468860
_cell_formula_units_Z   2
loop_
 _symmetry_equiv_pos_site_id
 _symmetry_equiv_pos_as_xyz
  1  'x, y, z'
loop_
 _atom_site_type_symbol
 _atom_site_label
 _atom_site_symmetry_multiplicity
 _atom_site_fract_x
 _atom_site_fract_y
 _atom_site_fract_z
 _atom_site_occupancy
  Na  Na0  1  1.00000000  0.50000000  0.50000001  1
  Na  Na1  1  -0.00000002  0.84045900  0.84045899  1
  Na  Na2  1  -0.00000000  0.15954100  0.15954100  1
  Na  Na3  1  0.50000000  0.00000000  0.00000001  1
  Bi  Bi4  1  0.49999999  0.66486600  0.66486600  1
  Bi  Bi5  1  0.50000000  0.33513400  0.33513400  1
  O  O6  1  0.72225500  0.07467300  0.56215201  1
  O  O7  1  0.27774499  0.56215200  0.07467300  1
  O  O8  1  0.27774498  0.92532700  0.43784799  1
  O  O9  1  0.72225500  0.43784800  0.92532701  1
  O  O10  1  0.72745299  0.71308200  0.28691800  1
  O  O11  1  0.27254700  0.28691800  0.71308200  1
