# generated using pymatgen
data_Dy(Al2Ni)4
_symmetry_space_group_name_H-M   'P 1'
_cell_length_a   5.02416182
_cell_length_b   6.65010214
_cell_length_c   6.65010214
_cell_angle_alpha   81.79614258
_cell_angle_beta   67.80557251
_cell_angle_gamma   67.80557251
_symmetry_Int_Tables_number   1
_chemical_formula_structural   Dy(Al2Ni)4
_chemical_formula_sum   'Dy1 Al8 Ni4'
_cell_volume   190.48259241
_cell_formula_units_Z   1
loop_
 _symmetry_equiv_pos_site_id
 _symmetry_equiv_pos_as_xyz
  1  'x, y, z'
loop_
 _atom_site_type_symbol
 _atom_site_label
 _atom_site_symmetry_multiplicity
 _atom_site_fract_x
 _atom_site_fract_y
 _atom_site_fract_z
 _atom_site_occupancy
  Dy  Dy0  1  0.00000000  0.00000000  0.00000000  1
  Al  Al1  1  0.34058399  0.65941601  0.65941604  1
  Al  Al2  1  -0.00000002  0.65941601  0.34058404  1
  Al  Al3  1  -0.00000001  0.34058400  0.65941603  1
  Al  Al4  1  0.65941601  0.34058400  0.34058402  1
  Al  Al5  1  0.27882200  0.22117800  0.22117801  1
  Al  Al6  1  0.50000001  0.22117800  0.77882202  1
  Al  Al7  1  0.50000000  0.77882201  0.22117805  1
  Al  Al8  1  0.72117800  0.77882201  0.77882205  1
  Ni  Ni9  1  0.50000000  0.50000001  0.00000003  1
  Ni  Ni10  1  0.00000000  0.00000000  0.50000001  1
  Ni  Ni11  1  0.49999999  1.00000001  0.50000006  1
  Ni  Ni12  1  -0.00000001  0.50000001  0.00000003  1
