# generated using pymatgen
data_Cu3AgTe4
_symmetry_space_group_name_H-M   'P 1'
_cell_length_a   6.44440222
_cell_length_b   6.44440222
_cell_length_c   7.51167345
_cell_angle_alpha   115.40151978
_cell_angle_beta   115.40151978
_cell_angle_gamma   90.00000000
_symmetry_Int_Tables_number   1
_chemical_formula_structural   Cu3AgTe4
_chemical_formula_sum   'Cu3 Ag1 Te4'
_cell_volume   248.00272821
_cell_formula_units_Z   1
loop_
 _symmetry_equiv_pos_site_id
 _symmetry_equiv_pos_as_xyz
  1  'x, y, z'
loop_
 _atom_site_type_symbol
 _atom_site_label
 _atom_site_symmetry_multiplicity
 _atom_site_fract_x
 _atom_site_fract_y
 _atom_site_fract_z
 _atom_site_occupancy
  Ag  Ag0  1  0.00000000  0.00000000  0.00000000  1
  Cu  Cu1  1  0.74999994  0.24999998  0.49999993  1
  Cu  Cu2  1  0.49999993  0.49999996  0.99999992  1
  Cu  Cu3  1  0.24999993  0.74999994  0.49999992  1
  Te  Te4  1  0.87499989  0.84507893  0.24999987  1
  Te  Te5  1  0.37499995  0.40492097  0.24999994  1
  Te  Te6  1  0.15492095  0.62499995  0.74999993  1
  Te  Te7  1  0.59507895  0.12499999  0.74999995  1
