# generated using pymatgen
data_Al5Pd3
_symmetry_space_group_name_H-M   'P 1'
_cell_length_a   6.56125212
_cell_length_b   7.55802250
_cell_length_c   6.56125212
_cell_angle_alpha   115.72541809
_cell_angle_beta   90.00000000
_cell_angle_gamma   115.72541809
_symmetry_Int_Tables_number   1
_chemical_formula_structural   Al5Pd3
_chemical_formula_sum   'Al10 Pd6'
_cell_volume   256.85643799
_cell_formula_units_Z   2
loop_
 _symmetry_equiv_pos_site_id
 _symmetry_equiv_pos_as_xyz
  1  'x, y, z'
loop_
 _atom_site_type_symbol
 _atom_site_label
 _atom_site_symmetry_multiplicity
 _atom_site_fract_x
 _atom_site_fract_y
 _atom_site_fract_z
 _atom_site_occupancy
  Al  Al0  1  0.98519499  0.30019701  0.48519500  1
  Al  Al1  1  0.31500200  0.30019701  0.81500200  1
  Al  Al2  1  0.48519500  0.30019701  0.31500200  1
  Al  Al3  1  0.81500200  0.30019701  0.98519499  1
  Al  Al4  1  0.01480502  0.69980303  0.51480502  1
  Al  Al5  1  0.68499801  0.69980303  0.18499802  1
  Al  Al6  1  0.51480501  0.69980303  0.68499801  1
  Al  Al7  1  0.18499802  0.69980303  0.01480502  1
  Al  Al8  1  0.00000000  0.00000000  0.00000000  1
  Al  Al9  1  0.49999999  0.00000000  0.49999999  1
  Pd  Pd10  1  0.25000001  0.50000002  0.25000001  1
  Pd  Pd11  1  0.75000000  0.50000002  0.75000000  1
  Pd  Pd12  1  0.63004502  1.00000005  0.13004503  1
  Pd  Pd13  1  0.36995499  0.00000000  0.86995498  1
  Pd  Pd14  1  0.13004500  0.00000000  0.36995499  1
  Pd  Pd15  1  0.86995498  0.00000000  0.63004499  1
