# generated using pymatgen
data_Sr3Cu2O7
_symmetry_space_group_name_H-M   'P 1'
_cell_length_a   3.87422395
_cell_length_b   3.87422395
_cell_length_c   10.62244701
_cell_angle_alpha   100.50727081
_cell_angle_beta   100.50727081
_cell_angle_gamma   90.00000000
_symmetry_Int_Tables_number   1
_chemical_formula_structural   Sr3Cu2O7
_chemical_formula_sum   'Sr3 Cu2 O7'
_cell_volume   154.04539544
_cell_formula_units_Z   1
loop_
 _symmetry_equiv_pos_site_id
 _symmetry_equiv_pos_as_xyz
  1  'x, y, z'
loop_
 _atom_site_type_symbol
 _atom_site_label
 _atom_site_symmetry_multiplicity
 _atom_site_fract_x
 _atom_site_fract_y
 _atom_site_fract_z
 _atom_site_occupancy
  Sr  Sr0  1  0.31490501  0.31490501  0.62981000  1
  Sr  Sr1  1  0.68509503  0.68509502  0.37019002  1
  Sr  Sr2  1  0.50000002  0.50000001  0.00000002  1
  Cu  Cu3  1  0.09785600  0.09785600  0.19571200  1
  Cu  Cu4  1  0.90214404  0.90214402  0.80428802  1
  O  O5  1  0.59753702  0.09753700  0.19507401  1
  O  O6  1  0.40246303  0.90246302  0.80492601  1
  O  O7  1  0.09753702  0.59753701  0.19507401  1
  O  O8  1  0.90246303  0.40246301  0.80492601  1
  O  O9  1  0.19986001  0.19986000  0.39972000  1
  O  O10  1  0.80014004  0.80014002  0.60028002  1
  O  O11  1  0.00000000  0.00000000  0.00000000  1
