# generated using pymatgen
data_In(GaPd)3
_symmetry_space_group_name_H-M   'P 1'
_cell_length_a   4.13286209
_cell_length_b   4.17743778
_cell_length_c   7.35482311
_cell_angle_alpha   73.50132751
_cell_angle_beta   90.00000000
_cell_angle_gamma   90.00000000
_symmetry_Int_Tables_number   1
_chemical_formula_structural   In(GaPd)3
_chemical_formula_sum   'In1 Ga3 Pd3'
_cell_volume   121.75115249
_cell_formula_units_Z   1
loop_
 _symmetry_equiv_pos_site_id
 _symmetry_equiv_pos_as_xyz
  1  'x, y, z'
loop_
 _atom_site_type_symbol
 _atom_site_label
 _atom_site_symmetry_multiplicity
 _atom_site_fract_x
 _atom_site_fract_y
 _atom_site_fract_z
 _atom_site_occupancy
  In  In0  1  0.00000000  0.00000000  0.00000000  1
  Ga  Ga1  1  0.49999999  0.81033905  0.37932198  1
  Ga  Ga2  1  0.49999999  0.18966101  0.62067800  1
  Ga  Ga3  1  0.99999998  0.69610804  0.60778399  1
  Pd  Pd4  1  0.00000000  0.30389202  0.39221599  1
  Pd  Pd5  1  0.49999999  0.58927104  0.82145799  1
  Pd  Pd6  1  0.49999999  0.41072903  0.17854199  1
