# generated using pymatgen
data_Y(SiOs)3
_symmetry_space_group_name_H-M   'P 1'
_cell_length_a   4.22148705
_cell_length_b   4.22148705
_cell_length_c   6.82388687
_cell_angle_alpha   90.00000000
_cell_angle_beta   90.00000000
_cell_angle_gamma   90.00000000
_symmetry_Int_Tables_number   1
_chemical_formula_structural   Y(SiOs)3
_chemical_formula_sum   'Y1 Si3 Os3'
_cell_volume   121.60816635
_cell_formula_units_Z   1
loop_
 _symmetry_equiv_pos_site_id
 _symmetry_equiv_pos_as_xyz
  1  'x, y, z'
loop_
 _atom_site_type_symbol
 _atom_site_label
 _atom_site_symmetry_multiplicity
 _atom_site_fract_x
 _atom_site_fract_y
 _atom_site_fract_z
 _atom_site_occupancy
  Y  Y0  1  0.00000000  0.00000000  0.00000000  1
  Si  Si1  1  0.49999999  0.49999999  0.00000000  1
  Si  Si2  1  0.00000000  0.49999999  0.31063301  1
  Si  Si3  1  0.49999999  0.00000000  0.31063301  1
  Os  Os4  1  0.00000000  0.49999999  0.68936701  1
  Os  Os5  1  0.49999999  0.00000000  0.68936701  1
  Os  Os6  1  0.00000000  0.00000000  0.50000001  1
