# generated using pymatgen
data_LiNiO2
_symmetry_space_group_name_H-M   'P 1'
_cell_length_a   5.88407469
_cell_length_b   5.89494085
_cell_length_c   5.88817310
_cell_angle_alpha   119.96479034
_cell_angle_beta   89.99521637
_cell_angle_gamma   119.94181061
_symmetry_Int_Tables_number   1
_chemical_formula_structural   LiNiO2
_chemical_formula_sum   'Li4 Ni4 O8'
_cell_volume   144.62825933
_cell_formula_units_Z   4
loop_
 _symmetry_equiv_pos_site_id
 _symmetry_equiv_pos_as_xyz
  1  'x, y, z'
loop_
 _atom_site_type_symbol
 _atom_site_label
 _atom_site_symmetry_multiplicity
 _atom_site_fract_x
 _atom_site_fract_y
 _atom_site_fract_z
 _atom_site_occupancy
  Li  Li0  1  0.99999999  0.50000002  0.00000005  1
  Li  Li1  1  0.99999996  0.00000000  0.50000006  1
  Li  Li2  1  0.00000004  0.50000002  0.50000002  1
  Li  Li3  1  0.49999998  0.00000000  0.50000004  1
  Ni  Ni4  1  0.50000001  0.50000002  0.00000002  1
  Ni  Ni5  1  0.50000001  0.50000002  0.50000004  1
  Ni  Ni6  1  0.49999998  0.00000000  0.00000002  1
  Ni  Ni7  1  0.00000000  0.00000000  0.00000000  1
  O  O8  1  0.26014102  0.48914702  0.24458402  1
  O  O9  1  0.26037599  0.02075400  0.24796002  1
  O  O10  1  0.72900600  0.48914702  0.24456304  1
  O  O11  1  0.26037799  0.02075400  0.77279404  1
  O  O12  1  0.73962204  0.97924603  0.22720605  1
  O  O13  1  0.27099402  0.51085302  0.75543704  1
  O  O14  1  0.73962404  0.97924603  0.75204006  1
  O  O15  1  0.73985901  0.51085302  0.75541606  1
