# generated using pymatgen
data_SmIn5
_symmetry_space_group_name_H-M   'P 1'
_cell_length_a   5.13550901
_cell_length_b   5.98320818
_cell_length_c   5.98320770
_cell_angle_alpha   120.00000000
_cell_angle_beta   90.00000000
_cell_angle_gamma   90.00000000
_symmetry_Int_Tables_number   1
_chemical_formula_structural   SmIn5
_chemical_formula_sum   'Sm1 In5'
_cell_volume   159.21439129
_cell_formula_units_Z   1
loop_
 _symmetry_equiv_pos_site_id
 _symmetry_equiv_pos_as_xyz
  1  'x, y, z'
loop_
 _atom_site_type_symbol
 _atom_site_label
 _atom_site_symmetry_multiplicity
 _atom_site_fract_x
 _atom_site_fract_y
 _atom_site_fract_z
 _atom_site_occupancy
  Sm  Sm0  1  0.50000000  0.00000000  -0.00000000  1
  In  In1  1  0.00000000  0.00000000  0.55013602  1
  In  In2  1  0.50000000  0.66666664  0.33333334  1
  In  In3  1  -0.00000000  0.44986398  0.44986401  1
  In  In4  1  0.50000000  0.33333332  0.66666668  1
  In  In5  1  -0.00000000  0.55013598  -0.00000001  1
