# generated using pymatgen
data_Tl2AgBr6
_symmetry_space_group_name_H-M   'P 1'
_cell_length_a   7.49637413
_cell_length_b   7.60165453
_cell_length_c   13.35042763
_cell_angle_alpha   81.15100861
_cell_angle_beta   73.69478607
_cell_angle_gamma   60.45709610
_symmetry_Int_Tables_number   1
_chemical_formula_structural   Tl2AgBr6
_chemical_formula_sum   'Tl4 Ag2 Br12'
_cell_volume   635.13333401
_cell_formula_units_Z   2
loop_
 _symmetry_equiv_pos_site_id
 _symmetry_equiv_pos_as_xyz
  1  'x, y, z'
loop_
 _atom_site_type_symbol
 _atom_site_label
 _atom_site_symmetry_multiplicity
 _atom_site_fract_x
 _atom_site_fract_y
 _atom_site_fract_z
 _atom_site_occupancy
  Tl  Tl0  1  0.70012899  0.22679300  0.54653302  1
  Tl  Tl1  1  0.97345598  0.27320700  0.95346703  1
  Tl  Tl2  1  0.29987100  0.77320701  0.45346699  1
  Tl  Tl3  1  0.02654400  0.72679301  0.04653298  1
  Ag  Ag4  1  0.61184699  0.25000000  0.25000001  1
  Ag  Ag5  1  0.38815300  0.75000001  0.75000000  1
  Br  Br6  1  0.97065098  0.48053901  0.34839501  1
  Br  Br7  1  0.29958499  0.01946100  0.15160501  1
  Br  Br8  1  0.02934900  0.51946101  0.65160500  1
  Br  Br9  1  0.70041499  0.98053901  0.84839500  1
  Br  Br10  1  0.67755899  0.60207601  0.23358400  1
  Br  Br11  1  0.01321801  0.89792401  0.26641598  1
  Br  Br12  1  0.32244100  0.39792401  0.76641601  1
  Br  Br13  1  0.98678198  0.10207600  0.73358403  1
  Br  Br14  1  0.46609599  0.27296500  0.06547200  1
  Br  Br15  1  0.30453299  0.22703500  0.43452801  1
  Br  Br16  1  0.53390399  0.72703501  0.93452801  1
  Br  Br17  1  0.69546699  0.77296501  0.56547200  1
