# generated using pymatgen
data_La(AlPd)2
_symmetry_space_group_name_H-M   'P 1'
_cell_length_a   6.04893923
_cell_length_b   6.19769907
_cell_length_c   6.19769907
_cell_angle_alpha   116.99620056
_cell_angle_beta   90.00000000
_cell_angle_gamma   90.00000000
_symmetry_Int_Tables_number   1
_chemical_formula_structural   La(AlPd)2
_chemical_formula_sum   'La2 Al4 Pd4'
_cell_volume   207.03117573
_cell_formula_units_Z   2
loop_
 _symmetry_equiv_pos_site_id
 _symmetry_equiv_pos_as_xyz
  1  'x, y, z'
loop_
 _atom_site_type_symbol
 _atom_site_label
 _atom_site_symmetry_multiplicity
 _atom_site_fract_x
 _atom_site_fract_y
 _atom_site_fract_z
 _atom_site_occupancy
  La  La0  1  0.24999999  0.76508200  0.23491796  1
  La  La1  1  0.74999997  0.23491800  0.76508200  1
  Al  Al2  1  0.24999999  0.33743300  0.66256699  1
  Al  Al3  1  0.74999997  0.66256700  0.33743296  1
  Al  Al4  1  -0.00000000  0.71913600  0.71913597  1
  Al  Al5  1  0.49999998  0.71913600  0.71913597  1
  Pd  Pd6  1  -0.00000000  0.28086400  0.28086399  1
  Pd  Pd7  1  0.49999998  0.28086400  0.28086399  1
  Pd  Pd8  1  0.24999999  0.09757000  0.90243002  1
  Pd  Pd9  1  0.74999997  0.90242999  0.09756994  1
