# generated using pymatgen
data_ScAl7
_symmetry_space_group_name_H-M   'P 1'
_cell_length_a   5.01195288
_cell_length_b   5.16251516
_cell_length_c   6.03806210
_cell_angle_alpha   90.00000000
_cell_angle_beta   90.00000000
_cell_angle_gamma   90.00000000
_symmetry_Int_Tables_number   1
_chemical_formula_structural   ScAl7
_chemical_formula_sum   'Sc1 Al7'
_cell_volume   156.23052578
_cell_formula_units_Z   1
loop_
 _symmetry_equiv_pos_site_id
 _symmetry_equiv_pos_as_xyz
  1  'x, y, z'
loop_
 _atom_site_type_symbol
 _atom_site_label
 _atom_site_symmetry_multiplicity
 _atom_site_fract_x
 _atom_site_fract_y
 _atom_site_fract_z
 _atom_site_occupancy
  Sc  Sc0  1  0.00000000  0.34563999  0.00000000  1
  Al  Al1  1  0.50000001  0.65435998  0.49999999  1
  Al  Al2  1  0.50000001  0.65525298  0.00000000  1
  Al  Al3  1  0.00000000  0.34474699  0.49999999  1
  Al  Al4  1  -0.00000000  0.84188197  0.74762499  1
  Al  Al5  1  -0.00000000  0.84188197  0.25237500  1
  Al  Al6  1  0.50000001  0.15811799  0.75237499  1
  Al  Al7  1  0.50000001  0.15811799  0.24762500  1
