# generated using pymatgen
data_DySiRh
_symmetry_space_group_name_H-M   'P 1'
_cell_length_a   4.18428516
_cell_length_b   6.75541401
_cell_length_c   7.37834311
_cell_angle_alpha   90.00000000
_cell_angle_beta   90.00000000
_cell_angle_gamma   90.00000000
_symmetry_Int_Tables_number   1
_chemical_formula_structural   DySiRh
_chemical_formula_sum   'Dy4 Si4 Rh4'
_cell_volume   208.56051543
_cell_formula_units_Z   4
loop_
 _symmetry_equiv_pos_site_id
 _symmetry_equiv_pos_as_xyz
  1  'x, y, z'
loop_
 _atom_site_type_symbol
 _atom_site_label
 _atom_site_symmetry_multiplicity
 _atom_site_fract_x
 _atom_site_fract_y
 _atom_site_fract_z
 _atom_site_occupancy
  Dy  Dy0  1  0.24999999  0.00354500  0.80894199  1
  Dy  Dy1  1  0.74999997  0.99645500  0.19105800  1
  Dy  Dy2  1  0.24999999  0.50354500  0.69105799  1
  Dy  Dy3  1  0.74999997  0.49645500  0.30894200  1
  Si  Si4  1  0.24999999  0.29120000  0.10696400  1
  Si  Si5  1  0.74999997  0.70880000  0.89303599  1
  Si  Si6  1  0.24999999  0.79120000  0.39303599  1
  Si  Si7  1  0.74999997  0.20880000  0.60696399  1
  Rh  Rh8  1  0.74999997  0.84451600  0.56765899  1
  Rh  Rh9  1  0.24999999  0.15548400  0.43234099  1
  Rh  Rh10  1  0.74999997  0.34451600  0.93234099  1
  Rh  Rh11  1  0.24999999  0.65548400  0.06765900  1
