# generated using pymatgen
data_Sr2La3(GaGe2)3
_symmetry_space_group_name_H-M   'P 1'
_cell_length_a   4.78822708
_cell_length_b   7.81844711
_cell_length_c   9.49225521
_cell_angle_alpha   90.00000000
_cell_angle_beta   90.00000000
_cell_angle_gamma   90.00000000
_symmetry_Int_Tables_number   1
_chemical_formula_structural   Sr2La3(GaGe2)3
_chemical_formula_sum   'Sr2 La3 Ga3 Ge6'
_cell_volume   355.35681410
_cell_formula_units_Z   1
loop_
 _symmetry_equiv_pos_site_id
 _symmetry_equiv_pos_as_xyz
  1  'x, y, z'
loop_
 _atom_site_type_symbol
 _atom_site_label
 _atom_site_symmetry_multiplicity
 _atom_site_fract_x
 _atom_site_fract_y
 _atom_site_fract_z
 _atom_site_occupancy
  Sr  Sr0  1  0.00000000  0.49999999  0.26057299  1
  Sr  Sr1  1  0.49999999  0.00000000  0.73942698  1
  La  La2  1  0.49999999  0.20271700  0.12191800  1
  La  La3  1  0.49999999  0.79728299  0.12191800  1
  La  La4  1  0.00000000  0.70271699  0.87808198  1
  Ga  Ga5  1  0.00000000  0.29728300  0.87808198  1
  Ga  Ga6  1  0.00000000  0.00000000  0.38521199  1
  Ga  Ga7  1  0.49999999  0.49999999  0.61478799  1
  Ge  Ge8  1  0.49999999  0.78888799  0.41837299  1
  Ge  Ge9  1  0.00000000  0.00000000  0.07076600  1
  Ge  Ge10  1  0.49999999  0.49999999  0.92923398  1
  Ge  Ge11  1  0.00000000  0.71111199  0.58162699  1
  Ge  Ge12  1  0.00000000  0.28888800  0.58162699  1
  Ge  Ge13  1  0.49999999  0.21111200  0.41837299  1
