# generated using pymatgen
data_NaWO4
_symmetry_space_group_name_H-M   'P 1'
_cell_length_a   5.28101397
_cell_length_b   5.28101397
_cell_length_c   6.83166361
_cell_angle_alpha   112.73751831
_cell_angle_beta   112.73751831
_cell_angle_gamma   90.00000000
_symmetry_Int_Tables_number   1
_chemical_formula_structural   NaWO4
_chemical_formula_sum   'Na2 W2 O8'
_cell_volume   159.54685182
_cell_formula_units_Z   2
loop_
 _symmetry_equiv_pos_site_id
 _symmetry_equiv_pos_as_xyz
  1  'x, y, z'
loop_
 _atom_site_type_symbol
 _atom_site_label
 _atom_site_symmetry_multiplicity
 _atom_site_fract_x
 _atom_site_fract_y
 _atom_site_fract_z
 _atom_site_occupancy
  Na  Na0  1  0.37499999  0.12500000  0.74999996  1
  Na  Na1  1  0.62499994  0.87499998  0.24999991  1
  W  W2  1  0.87499995  0.62499998  0.74999991  1
  W  W3  1  0.12499998  0.37499999  0.24999997  1
  O  O4  1  0.71983595  0.57239398  0.92877992  1
  O  O5  1  0.20894395  0.85638598  0.92877992  1
  O  O6  1  0.36837998  0.21212099  0.41337496  1
  O  O7  1  0.04499496  0.70125398  0.41337495  1
  O  O8  1  0.28787897  0.45500499  0.08662495  1
  O  O9  1  0.79874598  0.13162000  0.08662495  1
  O  O10  1  0.64361394  0.78016398  0.57121991  1
  O  O11  1  0.92760597  0.29105599  0.57121993  1
