# generated using pymatgen
data_LaPrCoRu3
_symmetry_space_group_name_H-M   'P 1'
_cell_length_a   5.42741060
_cell_length_b   5.42741060
_cell_length_c   5.42741060
_cell_angle_alpha   60.00000000
_cell_angle_beta   60.00000000
_cell_angle_gamma   60.00000000
_symmetry_Int_Tables_number   1
_chemical_formula_structural   LaPrCoRu3
_chemical_formula_sum   'La1 Pr1 Co1 Ru3'
_cell_volume   113.04804033
_cell_formula_units_Z   1
loop_
 _symmetry_equiv_pos_site_id
 _symmetry_equiv_pos_as_xyz
  1  'x, y, z'
loop_
 _atom_site_type_symbol
 _atom_site_label
 _atom_site_symmetry_multiplicity
 _atom_site_fract_x
 _atom_site_fract_y
 _atom_site_fract_z
 _atom_site_occupancy
  La  La0  1  0.25000001  0.25000001  0.25000001  1
  Pr  Pr1  1  0.50000002  0.50000002  0.50000002  1
  Co  Co2  1  0.87500004  0.37500002  0.87500004  1
  Ru  Ru3  1  0.87500004  0.87500004  0.87500004  1
  Ru  Ru4  1  0.37500002  0.87500004  0.87500004  1
  Ru  Ru5  1  0.87500004  0.87500004  0.37500002  1
