# generated using pymatgen
data_K2TiO2
_symmetry_space_group_name_H-M   'P 1'
_cell_length_a   3.88439202
_cell_length_b   3.88439202
_cell_length_c   7.00619459
_cell_angle_alpha   106.09383392
_cell_angle_beta   106.09383392
_cell_angle_gamma   90.00000000
_symmetry_Int_Tables_number   1
_chemical_formula_structural   K2TiO2
_chemical_formula_sum   'K2 Ti1 O2'
_cell_volume   97.25064375
_cell_formula_units_Z   1
loop_
 _symmetry_equiv_pos_site_id
 _symmetry_equiv_pos_as_xyz
  1  'x, y, z'
loop_
 _atom_site_type_symbol
 _atom_site_label
 _atom_site_symmetry_multiplicity
 _atom_site_fract_x
 _atom_site_fract_y
 _atom_site_fract_z
 _atom_site_occupancy
  K  K0  1  0.65885799  0.65885800  0.31771599  1
  K  K1  1  0.34114200  0.34114200  0.68228399  1
  Ti  Ti2  1  0.00000000  0.00000000  0.00000000  1
  O  O3  1  0.85663599  0.85663599  0.71327199  1
  O  O4  1  0.14336400  0.14336400  0.28672800  1
