# generated using pymatgen
data_Rb2BrCl2F3
_symmetry_space_group_name_H-M   'P 1'
_cell_length_a   5.93140411
_cell_length_b   6.32931995
_cell_length_c   6.32931995
_cell_angle_alpha   106.05905914
_cell_angle_beta   90.00000000
_cell_angle_gamma   90.00000000
_symmetry_Int_Tables_number   1
_chemical_formula_structural   Rb2BrCl2F3
_chemical_formula_sum   'Rb2 Br1 Cl2 F3'
_cell_volume   228.34138835
_cell_formula_units_Z   1
loop_
 _symmetry_equiv_pos_site_id
 _symmetry_equiv_pos_as_xyz
  1  'x, y, z'
loop_
 _atom_site_type_symbol
 _atom_site_label
 _atom_site_symmetry_multiplicity
 _atom_site_fract_x
 _atom_site_fract_y
 _atom_site_fract_z
 _atom_site_occupancy
  Rb  Rb0  1  0.25000000  0.31743599  0.97826797  1
  Rb  Rb1  1  0.74999999  0.68256398  0.02173200  1
  Cl  Cl2  1  0.74999999  0.02173200  0.68256398  1
  Cl  Cl3  1  0.25000000  0.97826797  0.31743598  1
  Br  Br4  1  0.49999999  0.49999998  0.49999998  1
  F  F5  1  -0.00000000  0.49999998  0.49999998  1
  F  F6  1  0.25000000  0.74047798  0.74047797  1
  F  F7  1  0.74999999  0.25952199  0.25952199  1
