# generated using pymatgen
data_Mn2O3
_symmetry_space_group_name_H-M   'P 1'
_cell_length_a   5.39719725
_cell_length_b   6.06695938
_cell_length_c   7.56783199
_cell_angle_alpha   89.99698639
_cell_angle_beta   89.97892761
_cell_angle_gamma   89.95960999
_symmetry_Int_Tables_number   1
_chemical_formula_structural   Mn2O3
_chemical_formula_sum   'Mn8 O12'
_cell_volume   247.80537471
_cell_formula_units_Z   4
loop_
 _symmetry_equiv_pos_site_id
 _symmetry_equiv_pos_as_xyz
  1  'x, y, z'
loop_
 _atom_site_type_symbol
 _atom_site_label
 _atom_site_symmetry_multiplicity
 _atom_site_fract_x
 _atom_site_fract_y
 _atom_site_fract_z
 _atom_site_occupancy
  Mn  Mn0  1  -0.00000003  0.50000000  0.00000001  1
  Mn  Mn1  1  0.50000002  0.00000000  0.00000002  1
  Mn  Mn2  1  0.50000002  0.00000000  0.50000003  1
  Mn  Mn3  1  -0.00000003  0.50000000  0.50000002  1
  Mn  Mn4  1  0.51228398  0.48622900  0.24996803  1
  Mn  Mn5  1  0.01178600  0.01411500  0.75018402  1
  Mn  Mn6  1  0.98821496  0.98588499  0.24981606  1
  Mn  Mn7  1  0.48771498  0.51377100  0.75003205  1
  O  O8  1  0.83928700  0.44754700  0.75011306  1
  O  O9  1  0.86380002  0.18239400  0.43570304  1
  O  O10  1  0.86410802  0.18281200  0.06448303  1
  O  O11  1  0.16071297  0.55245300  0.24988702  1
  O  O12  1  0.63609697  0.68230200  0.43623005  1
  O  O13  1  0.13589195  0.81718799  0.93551705  1
  O  O14  1  0.33966401  0.05202800  0.24963002  1
  O  O15  1  0.63534097  0.68301900  0.06428103  1
  O  O16  1  0.36390299  0.31769800  0.56377003  1
  O  O17  1  0.13619995  0.81760599  0.56429804  1
  O  O18  1  0.66033496  0.94797199  0.75037006  1
  O  O19  1  0.36465999  0.31698100  0.93571905  1
