# generated using pymatgen
data_Na2In2PS13
_symmetry_space_group_name_H-M   'P 1'
_cell_length_a   6.66664791
_cell_length_b   6.72325468
_cell_length_c   7.08658743
_cell_angle_alpha   89.98276520
_cell_angle_beta   89.96523285
_cell_angle_gamma   60.27812958
_symmetry_Int_Tables_number   1
_chemical_formula_structural   Na2In2PS13
_chemical_formula_sum   'Na2 In2 P1 S13'
_cell_volume   275.84501190
_cell_formula_units_Z   1
loop_
 _symmetry_equiv_pos_site_id
 _symmetry_equiv_pos_as_xyz
  1  'x, y, z'
loop_
 _atom_site_type_symbol
 _atom_site_label
 _atom_site_symmetry_multiplicity
 _atom_site_fract_x
 _atom_site_fract_y
 _atom_site_fract_z
 _atom_site_occupancy
  Na  Na0  1  0.32284301  0.31674000  0.50309499  1
  Na  Na1  1  0.36041701  0.31674000  0.99690498  1
  In  In2  1  0.67715703  0.68326001  0.49690500  1
  In  In3  1  0.63958303  0.68326001  0.00309501  1
  P  P4  1  0.04621303  0.90757401  0.75000001  1
  S  S5  1  0.95378702  0.09242600  0.24999998  1
  S  S6  1  0.13529203  0.80350301  0.04439602  1
  S  S7  1  0.06120503  0.80350301  0.45560401  1
  S  S8  1  0.86470802  0.19649700  0.95560397  1
  S  S9  1  0.93879502  0.19649700  0.54439598  1
  S  S10  1  0.00041802  0.61835800  0.77646200  1
  S  S11  1  0.38122402  0.61835800  0.72353800  1
  S  S12  1  0.72529804  0.96963901  0.21357201  1
  S  S13  1  0.30506303  0.96963901  0.28642802  1
  S  S14  1  0.27470200  0.03036100  0.78642798  1
  S  S15  1  0.69493701  0.03036100  0.71357197  1
  S  S16  1  0.61877602  0.38164200  0.27646199  1
  S  S17  1  0.99958202  0.38164200  0.22353799  1
