# generated using pymatgen
data_NaNb5(NiO4)2
_symmetry_space_group_name_H-M   'P 1'
_cell_length_a   5.83178806
_cell_length_b   5.83178806
_cell_length_c   5.83178806
_cell_angle_alpha   90.00000000
_cell_angle_beta   90.00000000
_cell_angle_gamma   90.00000000
_symmetry_Int_Tables_number   1
_chemical_formula_structural   NaNb5(NiO4)2
_chemical_formula_sum   'Na1 Nb5 Ni2 O8'
_cell_volume   198.33766581
_cell_formula_units_Z   1
loop_
 _symmetry_equiv_pos_site_id
 _symmetry_equiv_pos_as_xyz
  1  'x, y, z'
loop_
 _atom_site_type_symbol
 _atom_site_label
 _atom_site_symmetry_multiplicity
 _atom_site_fract_x
 _atom_site_fract_y
 _atom_site_fract_z
 _atom_site_occupancy
  Na  Na0  1  0.49999999  0.49999999  0.49999999  1
  Nb  Nb1  1  0.00000000  0.00000000  0.00000000  1
  Nb  Nb2  1  0.25180200  0.00000000  0.49999999  1
  Nb  Nb3  1  0.74819799  0.00000000  0.49999999  1
  Nb  Nb4  1  0.49999999  0.25180200  -0.00000000  1
  Nb  Nb5  1  0.49999999  0.74819799  0.00000000  1
  Ni  Ni6  1  0.00000000  0.49999999  0.25180200  1
  Ni  Ni7  1  0.00000000  0.49999999  0.74819799  1
  O  O8  1  0.24187700  0.24187700  0.24187700  1
  O  O9  1  0.75812299  0.75812299  0.75812299  1
  O  O10  1  0.75812299  0.75812299  0.24187700  1
  O  O11  1  0.75812299  0.24187700  0.75812299  1
  O  O12  1  0.24187700  0.24187700  0.75812299  1
  O  O13  1  0.24187700  0.75812299  0.24187700  1
  O  O14  1  0.24187700  0.75812299  0.75812299  1
  O  O15  1  0.75812299  0.24187700  0.24187700  1
