# generated using pymatgen
data_Li3CoO4
_symmetry_space_group_name_H-M   'P 1'
_cell_length_a   5.24499321
_cell_length_b   5.71136522
_cell_length_c   6.27579594
_cell_angle_alpha   90.76660919
_cell_angle_beta   90.00000000
_cell_angle_gamma   90.00000000
_symmetry_Int_Tables_number   1
_chemical_formula_structural   Li3CoO4
_chemical_formula_sum   'Li6 Co2 O8'
_cell_volume   187.98136625
_cell_formula_units_Z   2
loop_
 _symmetry_equiv_pos_site_id
 _symmetry_equiv_pos_as_xyz
  1  'x, y, z'
loop_
 _atom_site_type_symbol
 _atom_site_label
 _atom_site_symmetry_multiplicity
 _atom_site_fract_x
 _atom_site_fract_y
 _atom_site_fract_z
 _atom_site_occupancy
  Li  Li0  1  0.17849999  0.35092499  0.59204397  1
  Li  Li1  1  0.32149999  0.85092497  0.59204395  1
  Li  Li2  1  0.67849997  0.14907499  0.40795598  1
  Li  Li3  1  0.82149997  0.64907497  0.40795596  1
  Li  Li4  1  0.75679197  0.39556598  0.91756696  1
  Li  Li5  1  0.74320797  0.89556596  0.91756694  1
  Co  Co6  1  0.25679199  0.10443400  0.08243299  1
  Co  Co7  1  0.24320799  0.60443398  0.08243297  1
  O  O8  1  0.22253699  0.09502500  0.78851297  1
  O  O9  1  0.27746299  0.59502498  0.78851295  1
  O  O10  1  0.80499597  0.37936598  0.62030097  1
  O  O11  1  0.69500397  0.87936597  0.62030095  1
  O  O12  1  0.30499599  0.12063400  0.37969898  1
  O  O13  1  0.19500399  0.62063398  0.37969896  1
  O  O14  1  0.72253697  0.40497498  0.21148698  1
  O  O15  1  0.77746297  0.90497496  0.21148696  1
