# generated using pymatgen
data_Cs2GdTl(WO4)2
_symmetry_space_group_name_H-M   'P 1'
_cell_length_a   6.20753002
_cell_length_b   6.20753050
_cell_length_c   8.06452656
_cell_angle_alpha   90.00000000
_cell_angle_beta   90.00000000
_cell_angle_gamma   120.00000000
_symmetry_Int_Tables_number   1
_chemical_formula_structural   Cs2GdTl(WO4)2
_chemical_formula_sum   'Cs2 Gd1 Tl1 W2 O8'
_cell_volume   269.12075888
_cell_formula_units_Z   1
loop_
 _symmetry_equiv_pos_site_id
 _symmetry_equiv_pos_as_xyz
  1  'x, y, z'
loop_
 _atom_site_type_symbol
 _atom_site_label
 _atom_site_symmetry_multiplicity
 _atom_site_fract_x
 _atom_site_fract_y
 _atom_site_fract_z
 _atom_site_occupancy
  Cs  Cs0  1  0.33333335  0.66666665  0.65908404  1
  Cs  Cs1  1  0.00000000  0.00000000  0.00000000  1
  Gd  Gd2  1  0.66666667  0.33333333  0.34091602  1
  Tl  Tl3  1  0.00000000  0.00000000  0.50000003  1
  W  W4  1  0.33333335  0.66666665  0.22117801  1
  W  W5  1  0.66666667  0.33333333  0.77882204  1
  O  O6  1  0.82201000  0.17799000  0.69247404  1
  O  O7  1  0.35598000  0.17799000  0.69247404  1
  O  O8  1  0.82201002  0.64401999  0.69247404  1
  O  O9  1  0.17799002  0.82200998  0.30752602  1
  O  O10  1  0.17799001  0.35597999  0.30752602  1
  O  O11  1  0.64402002  0.82200998  0.30752602  1
  O  O12  1  0.33333335  0.66666665  0.00153600  1
  O  O13  1  0.66666667  0.33333333  0.99846405  1
