# generated using pymatgen
data_Ta2Si
_symmetry_space_group_name_H-M   'P 1'
_cell_length_a   5.35538387
_cell_length_b   6.48255920
_cell_length_c   6.48255920
_cell_angle_alpha   90.00000000
_cell_angle_beta   90.00000000
_cell_angle_gamma   90.00000000
_symmetry_Int_Tables_number   1
_chemical_formula_structural   Ta2Si
_chemical_formula_sum   'Ta8 Si4'
_cell_volume   225.05236960
_cell_formula_units_Z   4
loop_
 _symmetry_equiv_pos_site_id
 _symmetry_equiv_pos_as_xyz
  1  'x, y, z'
loop_
 _atom_site_type_symbol
 _atom_site_label
 _atom_site_symmetry_multiplicity
 _atom_site_fract_x
 _atom_site_fract_y
 _atom_site_fract_z
 _atom_site_occupancy
  Ta  Ta0  1  0.50000001  0.16145999  0.66160698  1
  Ta  Ta1  1  0.50000001  0.83853997  0.33839299  1
  Ta  Ta2  1  0.50000001  0.66160698  0.83853997  1
  Ta  Ta3  1  0.50000001  0.33839299  0.16145999  1
  Ta  Ta4  1  1.00000002  0.16145999  0.33839299  1
  Ta  Ta5  1  -0.00000000  0.83853997  0.66160698  1
  Ta  Ta6  1  0.00000000  0.66160698  0.16145999  1
  Ta  Ta7  1  -0.00000000  0.33839299  0.83853997  1
  Si  Si8  1  0.25000001  0.00000000  0.00000000  1
  Si  Si9  1  0.75000002  0.00000000  0.00000000  1
  Si  Si10  1  0.25000001  0.49999998  0.49999998  1
  Si  Si11  1  0.75000002  0.49999998  0.49999998  1
