# generated using pymatgen
data_Tm2S3
_symmetry_space_group_name_H-M   'P 1'
_cell_length_a   4.32867193
_cell_length_b   4.32867289
_cell_length_c   12.98968124
_cell_angle_alpha   90.00000000
_cell_angle_beta   90.00000000
_cell_angle_gamma   119.99999237
_symmetry_Int_Tables_number   1
_chemical_formula_structural   Tm2S3
_chemical_formula_sum   'Tm4 S6'
_cell_volume   210.78446457
_cell_formula_units_Z   2
loop_
 _symmetry_equiv_pos_site_id
 _symmetry_equiv_pos_as_xyz
  1  'x, y, z'
loop_
 _atom_site_type_symbol
 _atom_site_label
 _atom_site_symmetry_multiplicity
 _atom_site_fract_x
 _atom_site_fract_y
 _atom_site_fract_z
 _atom_site_occupancy
  Tm  Tm0  1  0.33333333  0.66666667  0.37898599  1
  Tm  Tm1  1  0.66666667  0.33333334  0.87898598  1
  Tm  Tm2  1  0.33333333  0.66666667  0.65584599  1
  Tm  Tm3  1  0.66666667  0.33333334  0.15584600  1
  S  S4  1  0.00000000  0.00000000  0.99012598  1
  S  S5  1  0.00000000  0.00000000  0.49012599  1
  S  S6  1  0.33333333  0.66666667  0.01411100  1
  S  S7  1  0.66666667  0.33333334  0.51411099  1
  S  S8  1  0.00000000  0.00000000  0.27659999  1
  S  S9  1  0.00000000  0.00000000  0.77659999  1
