# generated using pymatgen
data_Sr8InNiGe7As2
_symmetry_space_group_name_H-M   'P 1'
_cell_length_a   6.99629593
_cell_length_b   9.40720654
_cell_length_c   9.44339085
_cell_angle_alpha   80.05264282
_cell_angle_beta   68.25764465
_cell_angle_gamma   68.16973114
_symmetry_Int_Tables_number   1
_chemical_formula_structural   Sr8InNiGe7As2
_chemical_formula_sum   'Sr8 In1 Ni1 Ge7 As2'
_cell_volume   535.46621468
_cell_formula_units_Z   1
loop_
 _symmetry_equiv_pos_site_id
 _symmetry_equiv_pos_as_xyz
  1  'x, y, z'
loop_
 _atom_site_type_symbol
 _atom_site_label
 _atom_site_symmetry_multiplicity
 _atom_site_fract_x
 _atom_site_fract_y
 _atom_site_fract_z
 _atom_site_occupancy
  Sr  Sr0  1  0.33417402  0.54110499  0.79054704  1
  Sr  Sr1  1  0.33153001  0.03766000  0.29928000  1
  Sr  Sr2  1  0.66847004  0.96233998  0.70072004  1
  Sr  Sr3  1  0.66582603  0.45889499  0.20945300  1
  Sr  Sr4  1  0.00000000  0.00000000  0.00000000  1
  Sr  Sr5  1  0.99939904  0.28142300  0.71977899  1
  Sr  Sr6  1  0.00060101  0.71857699  0.28022105  1
  Sr  Sr7  1  0.16562302  0.96160998  0.70714407  1
  In  In8  1  0.17527801  0.45309299  0.19635102  1
  Ge  Ge9  1  0.64738004  0.71124399  0.46349802  1
  Ni  Ni10  1  0.65836603  0.21061900  0.95526502  1
  Ge  Ge11  1  0.17787802  0.71124399  0.46349804  1
  Ge  Ge12  1  0.17575001  0.21061900  0.95526504  1
  Ge  Ge13  1  0.82472204  0.54690699  0.80364902  1
  As  As14  1  0.83437703  0.03839000  0.29285597  1
  Ge  Ge15  1  0.34163403  0.78938099  0.04473502  1
  Ge  Ge16  1  0.35262002  0.28875600  0.53650202  1
  As  As17  1  0.82425004  0.78938099  0.04473500  1
  Ge  Ge18  1  0.82212203  0.28875600  0.53650200  1
