# generated using pymatgen
data_Sr3Ca(CuO6)2
_symmetry_space_group_name_H-M   'P 1'
_cell_length_a   3.82846522
_cell_length_b   7.74024439
_cell_length_c   9.58132553
_cell_angle_alpha   66.25955200
_cell_angle_beta   89.79376984
_cell_angle_gamma   89.80225372
_symmetry_Int_Tables_number   1
_chemical_formula_structural   Sr3Ca(CuO6)2
_chemical_formula_sum   'Sr3 Ca1 Cu2 O12'
_cell_volume   259.89736901
_cell_formula_units_Z   1
loop_
 _symmetry_equiv_pos_site_id
 _symmetry_equiv_pos_as_xyz
  1  'x, y, z'
loop_
 _atom_site_type_symbol
 _atom_site_label
 _atom_site_symmetry_multiplicity
 _atom_site_fract_x
 _atom_site_fract_y
 _atom_site_fract_z
 _atom_site_occupancy
  Sr  Sr0  1  0.50332105  0.59808602  0.29769000  1
  Sr  Sr1  1  0.50183501  0.10504900  0.29362901  1
  Ca  Ca2  1  0.50258804  0.40332401  0.69827402  1
  Sr  Sr3  1  0.50014308  0.90003303  0.69836901  1
  Cu  Cu4  1  0.00209102  0.24652001  0.50795101  1
  Cu  Cu5  1  0.00242407  0.75185202  0.49356900  1
  O  O6  1  0.00467205  0.49887801  0.00369199  1
  O  O7  1  0.04233400  0.00361300  0.99984003  1
  O  O8  1  0.99643403  0.37045001  0.23560001  1
  O  O9  1  0.00318710  0.99058003  0.51614700  1
  O  O10  1  0.99903408  0.87886703  0.24569600  1
  O  O11  1  0.00360405  0.50276001  0.49404601  1
  O  O12  1  0.46617208  0.81765802  0.98888302  1
  O  O13  1  0.50197502  0.23827101  0.51014402  1
  O  O14  1  0.50242007  0.75515302  0.50153501  1
  O  O15  1  0.47565601  0.18643901  0.99488503  1
  O  O16  1  0.99688100  0.11794900  0.74908303  1
  O  O17  1  0.99523105  0.63451802  0.77096602  1
