# generated using pymatgen
data_MnO2
_symmetry_space_group_name_H-M   'P 1'
_cell_length_a   5.77716208
_cell_length_b   5.83141232
_cell_length_c   7.62469578
_cell_angle_alpha   72.48886871
_cell_angle_beta   71.33867645
_cell_angle_gamma   71.67102814
_symmetry_Int_Tables_number   1
_chemical_formula_structural   MnO2
_chemical_formula_sum   'Mn6 O12'
_cell_volume   225.21691939
_cell_formula_units_Z   6
loop_
 _symmetry_equiv_pos_site_id
 _symmetry_equiv_pos_as_xyz
  1  'x, y, z'
loop_
 _atom_site_type_symbol
 _atom_site_label
 _atom_site_symmetry_multiplicity
 _atom_site_fract_x
 _atom_site_fract_y
 _atom_site_fract_z
 _atom_site_occupancy
  Mn  Mn0  1  0.00000000  0.00000000  0.00000000  1
  Mn  Mn1  1  0.35933900  0.30813801  0.16628399  1
  Mn  Mn2  1  0.00000000  0.00000000  0.49999999  1
  Mn  Mn3  1  0.32943800  0.31010601  0.67935498  1
  Mn  Mn4  1  0.67056201  0.68989403  0.32064498  1
  Mn  Mn5  1  0.64066101  0.69186203  0.83371597  1
  O  O6  1  0.64360998  0.00915800  0.17809702  1
  O  O7  1  0.35639002  0.99084204  0.82190294  1
  O  O8  1  0.04001902  0.60870503  0.18017697  1
  O  O9  1  0.68594199  0.31311301  0.49971200  1
  O  O10  1  0.77417001  0.75563103  0.52579198  1
  O  O11  1  0.42196300  0.43808302  0.85871897  1
  O  O12  1  0.09484800  0.09855300  0.20703499  1
  O  O13  1  0.90515201  0.90144704  0.79296497  1
  O  O14  1  0.22583000  0.24436901  0.47420799  1
  O  O15  1  0.57803700  0.56191702  0.14128099  1
  O  O16  1  0.31405802  0.68688703  0.50028797  1
  O  O17  1  0.95998099  0.39129502  0.81982300  1
