# generated using pymatgen
data_Nd2ScSi2
_symmetry_space_group_name_H-M   'P 1'
_cell_length_a   4.38733101
_cell_length_b   7.37513781
_cell_length_c   7.37513781
_cell_angle_alpha   90.00000000
_cell_angle_beta   90.00000000
_cell_angle_gamma   90.00000000
_symmetry_Int_Tables_number   1
_chemical_formula_structural   Nd2ScSi2
_chemical_formula_sum   'Nd4 Sc2 Si4'
_cell_volume   238.63859359
_cell_formula_units_Z   2
loop_
 _symmetry_equiv_pos_site_id
 _symmetry_equiv_pos_as_xyz
  1  'x, y, z'
loop_
 _atom_site_type_symbol
 _atom_site_label
 _atom_site_symmetry_multiplicity
 _atom_site_fract_x
 _atom_site_fract_y
 _atom_site_fract_z
 _atom_site_occupancy
  Nd  Nd0  1  0.50000000  0.67599802  0.17599800  1
  Nd  Nd1  1  0.50000000  0.32400201  0.82400202  1
  Nd  Nd2  1  0.50000000  0.17599800  0.32400201  1
  Nd  Nd3  1  0.50000000  0.82400202  0.67599802  1
  Sc  Sc4  1  0.00000000  0.50000001  0.50000001  1
  Sc  Sc5  1  0.00000000  0.00000000  0.00000000  1
  Si  Si6  1  0.00000000  0.11959800  0.61959802  1
  Si  Si7  1  0.00000000  0.88040202  0.38040201  1
  Si  Si8  1  -0.00000000  0.61959802  0.88040202  1
  Si  Si9  1  0.00000000  0.38040201  0.11959800  1
