# generated using pymatgen
data_V4B2MoWN2
_symmetry_space_group_name_H-M   'P 1'
_cell_length_a   3.03027606
_cell_length_b   5.75148487
_cell_length_c   11.50432110
_cell_angle_alpha   89.99192047
_cell_angle_beta   90.00000000
_cell_angle_gamma   90.00000000
_symmetry_Int_Tables_number   1
_chemical_formula_structural   V4B2MoWN2
_chemical_formula_sum   'V8 B4 Mo2 W2 N4'
_cell_volume   200.50405816
_cell_formula_units_Z   2
loop_
 _symmetry_equiv_pos_site_id
 _symmetry_equiv_pos_as_xyz
  1  'x, y, z'
loop_
 _atom_site_type_symbol
 _atom_site_label
 _atom_site_symmetry_multiplicity
 _atom_site_fract_x
 _atom_site_fract_y
 _atom_site_fract_z
 _atom_site_occupancy
  V  V0  1  0.49999999  0.82712902  0.09079103  1
  V  V1  1  0.49999999  0.82215402  0.58838403  1
  V  V2  1  0.49999999  0.17287100  0.90920901  1
  V  V3  1  0.49999999  0.17784600  0.41161601  1
  V  V4  1  0.49999999  0.68010702  0.83626102  1
  V  V5  1  0.49999999  0.67818602  0.33902002  1
  V  V6  1  0.49999999  0.31989301  0.16373901  1
  Mo  Mo7  1  0.49999999  0.32181401  0.66098001  1
  Mo  Mo8  1  -0.00000000  0.50000001  0.50000002  1
  W  W9  1  -0.00000000  0.00025800  0.74880400  1
  V  V10  1  -0.00000000  0.99974202  0.25119603  1
  B  B11  1  -0.00000000  0.50000001  0.00000002  1
  N  N12  1  -0.00000000  0.38834901  0.80452601  1
  W  W13  1  -0.00000000  0.38844101  0.30671901  1
  B  B14  1  -0.00000000  0.61165101  0.19547402  1
  N  N15  1  -0.00000000  0.61155901  0.69328102  1
  B  B16  1  -0.00000000  0.11106400  0.05610600  1
  N  N17  1  -0.00000000  0.11097700  0.55538900  1
  B  B18  1  -0.00000000  0.88893602  0.94389403  1
  N  N19  1  -0.00000000  0.88902302  0.44461103  1
