# generated using pymatgen
data_MnBi3O13
_symmetry_space_group_name_H-M   'P 1'
_cell_length_a   3.86975956
_cell_length_b   3.90685177
_cell_length_c   26.26943779
_cell_angle_alpha   85.85237122
_cell_angle_beta   89.78446198
_cell_angle_gamma   60.34221649
_symmetry_Int_Tables_number   1
_chemical_formula_structural   MnBi3O13
_chemical_formula_sum   'Mn1 Bi3 O13'
_cell_volume   343.98858764
_cell_formula_units_Z   1
loop_
 _symmetry_equiv_pos_site_id
 _symmetry_equiv_pos_as_xyz
  1  'x, y, z'
loop_
 _atom_site_type_symbol
 _atom_site_label
 _atom_site_symmetry_multiplicity
 _atom_site_fract_x
 _atom_site_fract_y
 _atom_site_fract_z
 _atom_site_occupancy
  Mn  Mn0  1  0.72770497  0.67263502  0.96800698  1
  Bi  Bi1  1  0.27471298  0.43483901  0.84680499  1
  Bi  Bi2  1  0.62987696  0.84884202  0.78145699  1
  O  O3  1  0.24877198  0.59588702  0.65666099  1
  O  O4  1  0.87486797  0.34384601  0.53454699  1
  Bi  Bi5  1  0.50008799  0.09400200  0.40988900  1
  O  O6  1  0.12576197  0.84368902  0.28524699  1
  O  O7  1  0.75171497  0.59049102  0.16171800  1
  O  O8  1  0.40320198  0.31980401  0.04211400  1
  O  O9  1  0.06160196  0.99781503  0.00430499  1
  O  O10  1  0.61713496  0.75512902  0.87804398  1
  O  O11  1  0.28748598  0.52897601  0.74954499  1
  O  O12  1  0.53352899  0.02693900  0.50180500  1
  O  O13  1  0.90838498  0.27691901  0.62637599  1
  O  O14  1  0.15877497  0.77712402  0.37728699  1
  O  O15  1  0.78465797  0.52604201  0.25353000  1
  O  O16  1  0.41209298  0.27027301  0.13179000  1
