# generated using pymatgen
data_CaIn2O4
_symmetry_space_group_name_H-M   'P 1'
_cell_length_a   5.94106007
_cell_length_b   6.63651085
_cell_length_c   5.94106007
_cell_angle_alpha   63.40992737
_cell_angle_beta   90.00000000
_cell_angle_gamma   116.59007263
_symmetry_Int_Tables_number   1
_chemical_formula_structural   CaIn2O4
_chemical_formula_sum   'Ca2 In4 O8'
_cell_volume   181.33858019
_cell_formula_units_Z   2
loop_
 _symmetry_equiv_pos_site_id
 _symmetry_equiv_pos_as_xyz
  1  'x, y, z'
loop_
 _atom_site_type_symbol
 _atom_site_label
 _atom_site_symmetry_multiplicity
 _atom_site_fract_x
 _atom_site_fract_y
 _atom_site_fract_z
 _atom_site_occupancy
  Ca  Ca0  1  0.49999999  0.00000000  0.49999999  1
  Ca  Ca1  1  0.24999998  0.49999999  0.25000002  1
  In  In2  1  0.87499998  0.25000000  0.87500000  1
  In  In3  1  0.87499996  0.74999999  0.87500002  1
  In  In4  1  0.87499996  0.74999999  0.37500002  1
  In  In5  1  0.37499999  0.25000000  0.87500000  1
  O  O6  1  0.50009497  0.60183399  0.85123101  1
  O  O7  1  0.20306499  0.10183400  0.24990500  1
  O  O8  1  0.89876999  0.10183500  0.64826000  1
  O  O9  1  0.10173898  0.60183499  0.54693502  1
  O  O10  1  0.24990496  0.89816598  0.89876902  1
  O  O11  1  0.54693498  0.39816599  0.50009501  1
  O  O12  1  0.64826096  0.89816498  0.20306503  1
  O  O13  1  0.85122998  0.39816499  0.10174001  1
