# generated using pymatgen
data_Sr3La(WO3)4
_symmetry_space_group_name_H-M   'P 1'
_cell_length_a   5.58134651
_cell_length_b   5.63020277
_cell_length_c   7.93027830
_cell_angle_alpha   90.02282715
_cell_angle_beta   89.25463104
_cell_angle_gamma   89.99410248
_symmetry_Int_Tables_number   1
_chemical_formula_structural   Sr3La(WO3)4
_chemical_formula_sum   'Sr3 La1 W4 O12'
_cell_volume   249.18085010
_cell_formula_units_Z   1
loop_
 _symmetry_equiv_pos_site_id
 _symmetry_equiv_pos_as_xyz
  1  'x, y, z'
loop_
 _atom_site_type_symbol
 _atom_site_label
 _atom_site_symmetry_multiplicity
 _atom_site_fract_x
 _atom_site_fract_y
 _atom_site_fract_z
 _atom_site_occupancy
  Sr  Sr0  1  0.50450499  0.00104700  0.25092997  1
  Sr  Sr1  1  0.99545699  0.49908300  0.74895293  1
  Sr  Sr2  1  0.49559799  0.99895601  0.74902295  1
  La  La3  1  0.00451100  0.50100400  0.25099499  1
  W  W4  1  0.00001200  0.99985401  0.50000398  1
  W  W5  1  0.50002399  0.49982100  0.00008297  1
  W  W6  1  0.49996699  0.49992300  0.50008996  1
  W  W7  1  0.00004800  0.99998201  0.00002200  1
  O  O8  1  0.23519100  0.73156300  0.47807397  1
  O  O9  1  0.72165799  0.21634800  0.97529694  1
  O  O10  1  0.26831400  0.23508600  0.52236497  1
  O  O11  1  0.78263499  0.72288600  0.02552996  1
  O  O12  1  0.99786499  0.05229700  0.24732795  1
  O  O13  1  0.50051099  0.54352400  0.74816595  1
  O  O14  1  0.76487199  0.26858400  0.52180595  1
  O  O15  1  0.27829199  0.78364400  0.02465998  1
  O  O16  1  0.73162599  0.76491700  0.47754495  1
  O  O17  1  0.21729300  0.27718600  0.97446196  1
  O  O18  1  0.00212200  0.94783101  0.75260097  1
  O  O19  1  0.49949999  0.45646600  0.25206497  1
