# generated using pymatgen
data_NaZrO3
_symmetry_space_group_name_H-M   'P 1'
_cell_length_a   5.82160282
_cell_length_b   5.82160282
_cell_length_c   8.53137398
_cell_angle_alpha   90.00000000
_cell_angle_beta   90.00000000
_cell_angle_gamma   90.00000000
_symmetry_Int_Tables_number   1
_chemical_formula_structural   NaZrO3
_chemical_formula_sum   'Na4 Zr4 O12'
_cell_volume   289.13730232
_cell_formula_units_Z   4
loop_
 _symmetry_equiv_pos_site_id
 _symmetry_equiv_pos_as_xyz
  1  'x, y, z'
loop_
 _atom_site_type_symbol
 _atom_site_label
 _atom_site_symmetry_multiplicity
 _atom_site_fract_x
 _atom_site_fract_y
 _atom_site_fract_z
 _atom_site_occupancy
  Na  Na0  1  0.49999999  0.00000000  0.25000000  1
  Na  Na1  1  -0.00000000  0.49999999  0.74999999  1
  Na  Na2  1  -0.00000000  0.49999999  0.25000000  1
  Na  Na3  1  0.49999999  0.00000000  0.74999999  1
  Zr  Zr4  1  0.00000000  0.00000000  0.00000000  1
  Zr  Zr5  1  0.49999999  0.49999999  0.50000000  1
  Zr  Zr6  1  0.00000000  0.00000000  0.50000000  1
  Zr  Zr7  1  0.49999999  0.49999999  0.00000000  1
  O  O8  1  0.00000000  0.00000000  0.26306386  1
  O  O9  1  0.49999999  0.49999999  0.23693614  1
  O  O10  1  0.00000000  0.00000000  0.73693613  1
  O  O11  1  0.49999999  0.49999999  0.76306385  1
  O  O12  1  0.34036988  0.19252556  0.98534122  1
  O  O13  1  0.65963010  0.80747443  0.98534122  1
  O  O14  1  0.80747443  0.34036988  0.01465877  1
  O  O15  1  0.19252556  0.65963010  0.01465877  1
  O  O16  1  0.84036988  0.30747443  0.48534123  1
  O  O17  1  0.15963011  0.69252555  0.48534123  1
  O  O18  1  0.30747443  0.15963011  0.51465877  1
  O  O19  1  0.69252555  0.84036988  0.51465877  1
