# generated using pymatgen
data_Fe2P
_symmetry_space_group_name_H-M   'P 1'
_cell_length_a   3.43058705
_cell_length_b   5.81119585
_cell_length_c   5.81119633
_cell_angle_alpha   120.00000000
_cell_angle_beta   90.00000000
_cell_angle_gamma   90.00000000
_symmetry_Int_Tables_number   1
_chemical_formula_structural   Fe2P
_chemical_formula_sum   'Fe6 P3'
_cell_volume   100.32984387
_cell_formula_units_Z   3
loop_
 _symmetry_equiv_pos_site_id
 _symmetry_equiv_pos_as_xyz
  1  'x, y, z'
loop_
 _atom_site_type_symbol
 _atom_site_label
 _atom_site_symmetry_multiplicity
 _atom_site_fract_x
 _atom_site_fract_y
 _atom_site_fract_z
 _atom_site_occupancy
  Fe  Fe0  1  0.49999999  0.40846802  0.40846804  1
  Fe  Fe1  1  0.49999999  0.59153203  0.00000004  1
  Fe  Fe2  1  0.49999999  0.00000000  0.59153202  1
  Fe  Fe3  1  0.00000000  0.00000000  0.25655601  1
  Fe  Fe4  1  -0.00000000  0.25655601  1.00000005  1
  Fe  Fe5  1  -0.00000000  0.74344404  0.74344408  1
  P  P6  1  -0.00000000  0.33333335  0.66666671  1
  P  P7  1  -0.00000000  0.66666670  0.33333339  1
  P  P8  1  0.49999999  0.00000000  -0.00000000  1
