# generated using pymatgen
data_Er2NiGe6
_symmetry_space_group_name_H-M   'P 1'
_cell_length_a   3.99567103
_cell_length_b   4.06980896
_cell_length_c   10.94731140
_cell_angle_alpha   90.00000000
_cell_angle_beta   100.51515198
_cell_angle_gamma   90.00000000
_symmetry_Int_Tables_number   1
_chemical_formula_structural   Er2NiGe6
_chemical_formula_sum   'Er2 Ni1 Ge6'
_cell_volume   175.03143027
_cell_formula_units_Z   1
loop_
 _symmetry_equiv_pos_site_id
 _symmetry_equiv_pos_as_xyz
  1  'x, y, z'
loop_
 _atom_site_type_symbol
 _atom_site_label
 _atom_site_symmetry_multiplicity
 _atom_site_fract_x
 _atom_site_fract_y
 _atom_site_fract_z
 _atom_site_occupancy
  Er  Er0  1  0.77764200  0.50000000  0.55528402  1
  Er  Er1  1  0.11318100  0.50000000  0.22636201  1
  Ni  Ni2  1  0.55479200  0.00000000  0.10958401  1
  Ge  Ge3  1  0.50013700  0.50000000  0.00027401  1
  Ge  Ge4  1  0.38394800  0.50000000  0.76789702  1
  Ge  Ge5  1  0.99915800  0.00000000  0.99831504  1
  Ge  Ge6  1  0.88213600  0.00000000  0.76427203  1
  Ge  Ge7  1  0.66114700  0.00000000  0.32229502  1
  Ge  Ge8  1  0.23485800  0.00000000  0.46971701  1
