# generated using pymatgen
data_Cs2MoWO8
_symmetry_space_group_name_H-M   'P 1'
_cell_length_a   5.78901196
_cell_length_b   5.78901196
_cell_length_c   7.72253752
_cell_angle_alpha   112.01274109
_cell_angle_beta   112.01274109
_cell_angle_gamma   90.00000000
_symmetry_Int_Tables_number   1
_chemical_formula_structural   Cs2MoWO8
_chemical_formula_sum   'Cs2 Mo1 W1 O8'
_cell_volume   219.45357552
_cell_formula_units_Z   1
loop_
 _symmetry_equiv_pos_site_id
 _symmetry_equiv_pos_as_xyz
  1  'x, y, z'
loop_
 _atom_site_type_symbol
 _atom_site_label
 _atom_site_symmetry_multiplicity
 _atom_site_fract_x
 _atom_site_fract_y
 _atom_site_fract_z
 _atom_site_occupancy
  Cs  Cs0  1  0.49999997  0.49999999  -0.00000005  1
  Cs  Cs1  1  0.24999996  0.74999998  0.49999994  1
  Mo  Mo2  1  0.00000000  0.00000000  0.00000000  1
  W  W3  1  0.74999998  0.24999999  0.49999995  1
  O  O4  1  0.70344195  0.81209898  0.84844291  1
  O  O5  1  0.78634394  0.95344198  0.34844190  1
  O  O6  1  0.56209897  0.39500099  0.34844295  1
  O  O7  1  0.14500000  0.03634300  0.84844198  1
  O  O8  1  0.60499998  0.21365700  0.65155795  1
  O  O9  1  0.18790095  0.85499898  0.15155694  1
  O  O10  1  0.96365597  0.29655799  0.15155794  1
  O  O11  1  0.04655798  0.43790099  0.65155696  1
