# generated using pymatgen
data_MoW2(SeS2)2
_symmetry_space_group_name_H-M   'P 1'
_cell_length_a   3.23290396
_cell_length_b   3.23290324
_cell_length_c   29.68301964
_cell_angle_alpha   90.00000000
_cell_angle_beta   90.00000000
_cell_angle_gamma   120.00000763
_symmetry_Int_Tables_number   1
_chemical_formula_structural   MoW2(SeS2)2
_chemical_formula_sum   'Mo1 W2 Se2 S4'
_cell_volume   268.67310062
_cell_formula_units_Z   1
loop_
 _symmetry_equiv_pos_site_id
 _symmetry_equiv_pos_as_xyz
  1  'x, y, z'
loop_
 _atom_site_type_symbol
 _atom_site_label
 _atom_site_symmetry_multiplicity
 _atom_site_fract_x
 _atom_site_fract_y
 _atom_site_fract_z
 _atom_site_occupancy
  W  W0  1  0.00000000  0.00000000  0.88436201  1
  Mo  Mo1  1  0.00000000  0.00000000  0.42165401  1
  W  W2  1  0.66666667  0.33333332  0.65301001  1
  Se  Se3  1  0.00000000  0.00000000  0.59521801  1
  Se  Se4  1  0.00000000  0.00000000  0.71085601  1
  S  S5  1  0.66666667  0.33333332  0.93666001  1
  S  S6  1  0.66666667  0.33333332  0.47412601  1
  S  S7  1  0.66666667  0.33333332  0.83206901  1
  S  S8  1  0.66666667  0.33333332  0.36920400  1
