# generated using pymatgen
data_NaNbO2
_symmetry_space_group_name_H-M   'P 1'
_cell_length_a   3.12377453
_cell_length_b   3.12377453
_cell_length_c   6.27091646
_cell_angle_alpha   75.57759857
_cell_angle_beta   75.57759857
_cell_angle_gamma   59.99998856
_symmetry_Int_Tables_number   1
_chemical_formula_structural   NaNbO2
_chemical_formula_sum   'Na1 Nb1 O2'
_cell_volume   50.75437114
_cell_formula_units_Z   1
loop_
 _symmetry_equiv_pos_site_id
 _symmetry_equiv_pos_as_xyz
  1  'x, y, z'
loop_
 _atom_site_type_symbol
 _atom_site_label
 _atom_site_symmetry_multiplicity
 _atom_site_fract_x
 _atom_site_fract_y
 _atom_site_fract_z
 _atom_site_occupancy
  Na  Na0  1  0.00000000  0.00000000  0.00000000  1
  Nb  Nb1  1  0.50000002  0.50000000  0.50000000  1
  O  O2  1  0.77629203  0.77629201  0.67112400  1
  O  O3  1  0.22370801  0.22370800  0.32887601  1
