# generated using pymatgen
data_LiCu2S3
_symmetry_space_group_name_H-M   'P 1'
_cell_length_a   3.85264063
_cell_length_b   3.85264063
_cell_length_c   9.70807934
_cell_angle_alpha   78.55515289
_cell_angle_beta   78.55515289
_cell_angle_gamma   59.99998856
_symmetry_Int_Tables_number   1
_chemical_formula_structural   LiCu2S3
_chemical_formula_sum   'Li1 Cu2 S3'
_cell_volume   121.47064347
_cell_formula_units_Z   1
loop_
 _symmetry_equiv_pos_site_id
 _symmetry_equiv_pos_as_xyz
  1  'x, y, z'
loop_
 _atom_site_type_symbol
 _atom_site_label
 _atom_site_symmetry_multiplicity
 _atom_site_fract_x
 _atom_site_fract_y
 _atom_site_fract_z
 _atom_site_occupancy
  Li  Li0  1  0.00001100  0.00001100  0.99996698  1
  Cu  Cu1  1  0.77777198  0.77777200  0.66668401  1
  Cu  Cu2  1  0.55555499  0.55555500  0.33333501  1
  S  S3  1  0.91666698  0.91666700  0.24999902  1
  S  S4  1  0.47219499  0.47219500  0.58341500  1
  S  S5  1  0.69447498  0.69447500  0.91657500  1
