# generated using pymatgen
data_CeCdPd
_symmetry_space_group_name_H-M   'P 1'
_cell_length_a   3.81594992
_cell_length_b   7.64487410
_cell_length_c   7.64487457
_cell_angle_alpha   120.00000000
_cell_angle_beta   90.00000000
_cell_angle_gamma   90.00000000
_symmetry_Int_Tables_number   1
_chemical_formula_structural   CeCdPd
_chemical_formula_sum   'Ce3 Cd3 Pd3'
_cell_volume   193.14078829
_cell_formula_units_Z   3
loop_
 _symmetry_equiv_pos_site_id
 _symmetry_equiv_pos_as_xyz
  1  'x, y, z'
loop_
 _atom_site_type_symbol
 _atom_site_label
 _atom_site_symmetry_multiplicity
 _atom_site_fract_x
 _atom_site_fract_y
 _atom_site_fract_z
 _atom_site_occupancy
  Ce  Ce0  1  0.50000001  1.00000002  0.40055908  1
  Ce  Ce1  1  0.50000001  0.40055901  1.00000006  1
  Ce  Ce2  1  0.50000001  0.59944101  0.59944106  1
  Cd  Cd3  1  -0.00000000  0.00000000  0.73607402  1
  Cd  Cd4  1  1.00000002  0.73607402  0.00000005  1
  Cd  Cd5  1  1.00000002  0.26392601  0.26392603  1
  Pd  Pd6  1  1.00000002  0.66666668  0.33333339  1
  Pd  Pd7  1  1.00000002  0.33333334  0.66666671  1
  Pd  Pd8  1  0.50000001  0.00000000  -0.00000000  1
