# generated using pymatgen
data_LaNiO3
_symmetry_space_group_name_H-M   'P 1'
_cell_length_a   5.50020504
_cell_length_b   5.69966793
_cell_length_c   7.86722326
_cell_angle_alpha   90.00000000
_cell_angle_beta   89.78478241
_cell_angle_gamma   90.00000000
_symmetry_Int_Tables_number   1
_chemical_formula_structural   LaNiO3
_chemical_formula_sum   'La4 Ni4 O12'
_cell_volume   246.63053492
_cell_formula_units_Z   4
loop_
 _symmetry_equiv_pos_site_id
 _symmetry_equiv_pos_as_xyz
  1  'x, y, z'
loop_
 _atom_site_type_symbol
 _atom_site_label
 _atom_site_symmetry_multiplicity
 _atom_site_fract_x
 _atom_site_fract_y
 _atom_site_fract_z
 _atom_site_occupancy
  La  La0  1  0.51395700  0.55564501  0.25044100  1
  La  La1  1  0.98604299  0.05564500  0.24955899  1
  La  La2  1  0.48604300  0.44435501  0.74955901  1
  La  La3  1  0.01395700  0.94435501  0.75044102  1
  Ni  Ni4  1  0.00000000  0.50000001  0.50000001  1
  Ni  Ni5  1  0.50000000  0.00000000  -0.00000001  1
  Ni  Ni6  1  0.00000000  0.50000001  1.00000003  1
  Ni  Ni7  1  0.50000000  0.00000000  0.50000000  1
  O  O8  1  0.29658500  0.70274501  0.94928102  1
  O  O9  1  0.20341500  0.20274500  0.55071901  1
  O  O10  1  0.70239899  0.29578300  0.45045000  1
  O  O11  1  0.79760099  0.79578301  0.04954999  1
  O  O12  1  0.70341499  0.29725500  0.05071899  1
  O  O13  1  0.79658499  0.79725501  0.44928100  1
  O  O14  1  0.29760100  0.70421701  0.54955001  1
  O  O15  1  0.20239900  0.20421700  0.95045002  1
  O  O16  1  0.09439300  0.47294201  0.24821501  1
  O  O17  1  0.40560700  0.97294201  0.25178500  1
  O  O18  1  0.90560699  0.52705801  0.75178500  1
  O  O19  1  0.59439300  0.02705800  0.74821501  1
