# generated using pymatgen
data_ZrCrCu2(SnS4)2
_symmetry_space_group_name_H-M   'P 1'
_cell_length_a   3.48426199
_cell_length_b   5.95835876
_cell_length_c   12.81882954
_cell_angle_alpha   90.97113800
_cell_angle_beta   90.00000000
_cell_angle_gamma   90.00000000
_symmetry_Int_Tables_number   1
_chemical_formula_structural   ZrCrCu2(SnS4)2
_chemical_formula_sum   'Zr1 Cr1 Cu2 Sn2 S8'
_cell_volume   266.08686593
_cell_formula_units_Z   1
loop_
 _symmetry_equiv_pos_site_id
 _symmetry_equiv_pos_as_xyz
  1  'x, y, z'
loop_
 _atom_site_type_symbol
 _atom_site_label
 _atom_site_symmetry_multiplicity
 _atom_site_fract_x
 _atom_site_fract_y
 _atom_site_fract_z
 _atom_site_occupancy
  Zr  Zr0  1  0.50000000  0.47053302  0.25074300  1
  Cr  Cr1  1  0.50000000  0.52946702  0.74925699  1
  Cu  Cu2  1  1.00000000  0.98260904  0.75233899  1
  Cu  Cu3  1  0.00000000  0.01739100  0.24766100  1
  Sn  Sn4  1  0.50000000  0.50000002  0.00000000  1
  Sn  Sn5  1  0.00000000  0.00000000  0.49999999  1
  S  S6  1  0.50000000  0.84205303  0.86396599  1
  S  S7  1  0.50000000  0.15794701  0.13603400  1
  S  S8  1  -0.00000000  0.34056601  0.36458499  1
  S  S9  1  0.00000000  0.65943403  0.63541499  1
  S  S10  1  0.00000000  0.32952601  0.85175798  1
  S  S11  1  1.00000000  0.67047403  0.14824200  1
  S  S12  1  0.50000000  0.84484803  0.34835500  1
  S  S13  1  0.50000000  0.15515201  0.65164499  1
