# generated using pymatgen
data_LaSb
_symmetry_space_group_name_H-M   'P 1'
_cell_length_a   8.14386177
_cell_length_b   8.14386177
_cell_length_c   8.14386177
_cell_angle_alpha   109.47122192
_cell_angle_beta   109.47122192
_cell_angle_gamma   109.47122192
_symmetry_Int_Tables_number   1
_chemical_formula_structural   LaSb
_chemical_formula_sum   'La7 Sb7'
_cell_volume   415.78543249
_cell_formula_units_Z   7
loop_
 _symmetry_equiv_pos_site_id
 _symmetry_equiv_pos_as_xyz
  1  'x, y, z'
loop_
 _atom_site_type_symbol
 _atom_site_label
 _atom_site_symmetry_multiplicity
 _atom_site_fract_x
 _atom_site_fract_y
 _atom_site_fract_z
 _atom_site_occupancy
  La  La0  1  0.00000003  0.50000004  0.14279903  1
  La  La1  1  0.00000003  0.50000004  0.64279906  1
  La  La2  1  0.35720104  0.35720103  0.85720107  1
  La  La3  1  0.64279903  0.00000000  1.00000006  1
  La  La4  1  0.85720110  0.85720107  0.35720108  1
  La  La5  1  0.50000004  0.14279901  0.50000004  1
  La  La6  1  0.14279907  1.00000009  1.00000010  1
  Sb  Sb7  1  0.50000007  0.64279905  0.50000007  1
  Sb  Sb8  1  0.25000007  0.87500007  0.62500008  1
  Sb  Sb9  1  0.87500005  0.12500001  0.75000006  1
  Sb  Sb10  1  0.62500006  0.37500003  0.25000005  1
  Sb  Sb11  1  0.75000008  0.62500005  0.87500009  1
  Sb  Sb12  1  0.12500002  0.25000002  0.37500003  1
  Sb  Sb13  1  0.37500007  0.75000006  0.12500006  1
