# generated using pymatgen
data_Zr5Ge4
_symmetry_space_group_name_H-M   'P 1'
_cell_length_a   7.24652910
_cell_length_b   7.54359007
_cell_length_c   7.54358959
_cell_angle_alpha   120.00000000
_cell_angle_beta   90.00000000
_cell_angle_gamma   90.00000000
_symmetry_Int_Tables_number   1
_chemical_formula_structural   Zr5Ge4
_chemical_formula_sum   'Zr10 Ge8'
_cell_volume   357.12216445
_cell_formula_units_Z   2
loop_
 _symmetry_equiv_pos_site_id
 _symmetry_equiv_pos_as_xyz
  1  'x, y, z'
loop_
 _atom_site_type_symbol
 _atom_site_label
 _atom_site_symmetry_multiplicity
 _atom_site_fract_x
 _atom_site_fract_y
 _atom_site_fract_z
 _atom_site_occupancy
  Zr  Zr0  1  0.74999999  0.59911798  0.61409797  1
  Zr  Zr1  1  0.74999999  0.38590199  0.98501997  1
  Zr  Zr2  1  0.74999999  0.01498000  0.40088199  1
  Zr  Zr3  1  0.25000000  0.61409798  0.59911797  1
  Zr  Zr4  1  0.25000000  0.40088199  0.01497998  1
  Zr  Zr5  1  0.25000000  0.98501997  0.38590195  1
  Zr  Zr6  1  -0.00000000  0.27487799  0.27487798  1
  Zr  Zr7  1  0.49999999  0.72512198  0.99999996  1
  Zr  Zr8  1  0.49999999  0.00000000  0.72512199  1
  Zr  Zr9  1  0.99999999  0.00000000  0.72512199  1
  Ge  Ge10  1  -0.00000000  0.72512198  0.99999996  1
  Ge  Ge11  1  0.49999999  0.27487799  0.27487798  1
  Ge  Ge12  1  0.96779399  0.66666665  0.33333330  1
  Ge  Ge13  1  0.53220599  0.66666665  0.33333330  1
  Ge  Ge14  1  0.03220600  0.33333332  0.66666664  1
  Ge  Ge15  1  0.46779399  0.33333332  0.66666664  1
  Ge  Ge16  1  0.74999999  0.00000000  -0.00000000  1
  Ge  Ge17  1  0.25000000  0.00000000  -0.00000000  1
