# generated using pymatgen
data_La(FeGe)2
_symmetry_space_group_name_H-M   'P 1'
_cell_length_a   4.26400995
_cell_length_b   4.26400995
_cell_length_c   5.74829960
_cell_angle_alpha   111.77071381
_cell_angle_beta   111.77071381
_cell_angle_gamma   90.00000000
_symmetry_Int_Tables_number   1
_chemical_formula_structural   La(FeGe)2
_chemical_formula_sum   'La1 Fe2 Ge2'
_cell_volume   88.98315811
_cell_formula_units_Z   1
loop_
 _symmetry_equiv_pos_site_id
 _symmetry_equiv_pos_as_xyz
  1  'x, y, z'
loop_
 _atom_site_type_symbol
 _atom_site_label
 _atom_site_symmetry_multiplicity
 _atom_site_fract_x
 _atom_site_fract_y
 _atom_site_fract_z
 _atom_site_occupancy
  La  La0  1  0.00000000  0.00000000  0.00000000  1
  Fe  Fe1  1  0.37044203  0.37044201  0.74088404  1
  Fe  Fe2  1  0.62955805  0.62955802  0.25911606  1
  Ge  Ge3  1  0.25000004  0.75000003  0.50000005  1
  Ge  Ge4  1  0.75000003  0.25000001  0.50000005  1
