# generated using pymatgen
data_Dy3Cu3Ge5
_symmetry_space_group_name_H-M   'P 1'
_cell_length_a   4.19254208
_cell_length_b   6.71701193
_cell_length_c   7.83821630
_cell_angle_alpha   115.37103271
_cell_angle_beta   105.51213074
_cell_angle_gamma   90.00000000
_symmetry_Int_Tables_number   1
_chemical_formula_structural   Dy3Cu3Ge5
_chemical_formula_sum   'Dy3 Cu3 Ge5'
_cell_volume   190.50843000
_cell_formula_units_Z   1
loop_
 _symmetry_equiv_pos_site_id
 _symmetry_equiv_pos_as_xyz
  1  'x, y, z'
loop_
 _atom_site_type_symbol
 _atom_site_label
 _atom_site_symmetry_multiplicity
 _atom_site_fract_x
 _atom_site_fract_y
 _atom_site_fract_z
 _atom_site_occupancy
  Dy  Dy0  1  0.12864604  0.62864602  0.25729204  1
  Dy  Dy1  1  0.87135402  0.37135401  0.74270806  1
  Dy  Dy2  1  0.00000000  0.00000000  0.00000000  1
  Cu  Cu3  1  0.67497602  0.35580301  0.34995204  1
  Cu  Cu4  1  0.32502404  0.64419702  0.65004805  1
  Cu  Cu5  1  0.67497705  0.99415003  0.34995307  1
  Ge  Ge6  1  0.32502300  0.00585000  0.65004703  1
  Ge  Ge7  1  0.77939104  0.77939103  0.55878207  1
  Ge  Ge8  1  0.22060901  0.22060901  0.44121803  1
  Ge  Ge9  1  0.50000002  0.30416401  0.00000003  1
  Ge  Ge10  1  0.50000004  0.69583602  0.00000005  1
