# generated using pymatgen
data_MgScFe4
_symmetry_space_group_name_H-M   'P 1'
_cell_length_a   4.81483555
_cell_length_b   4.81483555
_cell_length_c   4.81483555
_cell_angle_alpha   60.00000000
_cell_angle_beta   60.00000000
_cell_angle_gamma   60.00000000
_symmetry_Int_Tables_number   1
_chemical_formula_structural   MgScFe4
_chemical_formula_sum   'Mg1 Sc1 Fe4'
_cell_volume   78.92768722
_cell_formula_units_Z   1
loop_
 _symmetry_equiv_pos_site_id
 _symmetry_equiv_pos_as_xyz
  1  'x, y, z'
loop_
 _atom_site_type_symbol
 _atom_site_label
 _atom_site_symmetry_multiplicity
 _atom_site_fract_x
 _atom_site_fract_y
 _atom_site_fract_z
 _atom_site_occupancy
  Sc  Sc0  1  0.25000001  0.25000001  0.25000001  1
  Mg  Mg1  1  0.50000002  0.50000002  0.50000002  1
  Fe  Fe2  1  0.37500001  0.87500003  0.87500003  1
  Fe  Fe3  1  0.87500003  0.87500003  0.37500001  1
  Fe  Fe4  1  0.87500003  0.37500001  0.87500003  1
  Fe  Fe5  1  0.87500003  0.87500003  0.87500003  1
