# generated using pymatgen
data_Li3OF4
_symmetry_space_group_name_H-M   'P 1'
_cell_length_a   5.08650017
_cell_length_b   5.72538710
_cell_length_c   7.16924572
_cell_angle_alpha   109.12985992
_cell_angle_beta   90.00000000
_cell_angle_gamma   116.37253571
_symmetry_Int_Tables_number   1
_chemical_formula_structural   Li3OF4
_chemical_formula_sum   'Li6 O2 F8'
_cell_volume   174.09227214
_cell_formula_units_Z   2
loop_
 _symmetry_equiv_pos_site_id
 _symmetry_equiv_pos_as_xyz
  1  'x, y, z'
loop_
 _atom_site_type_symbol
 _atom_site_label
 _atom_site_symmetry_multiplicity
 _atom_site_fract_x
 _atom_site_fract_y
 _atom_site_fract_z
 _atom_site_occupancy
  Li  Li0  1  0.00000000  0.00000000  0.50000000  1
  Li  Li1  1  0.00000000  0.00000000  0.00000000  1
  Li  Li2  1  0.63659298  0.26564099  0.22586001  1
  Li  Li3  1  0.37095198  0.73435898  0.27414002  1
  Li  Li4  1  0.36340698  0.73435898  0.77414002  1
  Li  Li5  1  0.62904798  0.26564099  0.72586000  1
  O  O6  1  0.80932997  0.00000000  0.75000000  1
  O  O7  1  0.19066998  0.99999997  0.25000003  1
  F  F8  1  0.41167698  0.16108500  0.94834800  1
  F  F9  1  0.25059198  0.83891498  0.55165202  1
  F  F10  1  0.58832297  0.83891498  0.05165203  1
  F  F11  1  0.74940797  0.16108500  0.44834800  1
  F  F12  1  0.96455396  0.63246498  0.84994002  1
  F  F13  1  0.33208898  0.36753499  0.65006001  1
  F  F14  1  0.03544599  0.36753499  0.15006001  1
  F  F15  1  0.66791097  0.63246498  0.34994002  1
