# generated using pymatgen
data_Zr6Ga2Cu
_symmetry_space_group_name_H-M   'P 1'
_cell_length_a   3.29227304
_cell_length_b   7.80075979
_cell_length_c   7.80076075
_cell_angle_alpha   120.00000000
_cell_angle_beta   90.00000000
_cell_angle_gamma   90.00000000
_symmetry_Int_Tables_number   1
_chemical_formula_structural   Zr6Ga2Cu
_chemical_formula_sum   'Zr6 Ga2 Cu1'
_cell_volume   173.50034428
_cell_formula_units_Z   1
loop_
 _symmetry_equiv_pos_site_id
 _symmetry_equiv_pos_as_xyz
  1  'x, y, z'
loop_
 _atom_site_type_symbol
 _atom_site_label
 _atom_site_symmetry_multiplicity
 _atom_site_fract_x
 _atom_site_fract_y
 _atom_site_fract_z
 _atom_site_occupancy
  Zr  Zr0  1  0.49999999  0.74908504  0.00000004  1
  Zr  Zr1  1  0.49999999  0.25091501  0.25091501  1
  Zr  Zr2  1  0.49999999  0.00000000  0.74908498  1
  Zr  Zr3  1  -0.00000000  0.39727102  0.00000002  1
  Zr  Zr4  1  -0.00000000  0.60272903  0.60272902  1
  Zr  Zr5  1  0.99999999  0.00000000  0.39727099  1
  Ga  Ga6  1  0.49999999  0.33333335  0.66666667  1
  Ga  Ga7  1  0.49999999  0.66666670  0.33333336  1
  Cu  Cu8  1  0.00000000  0.00000000  0.00000000  1
