# generated using pymatgen
data_RuF7
_symmetry_space_group_name_H-M   'P 1'
_cell_length_a   4.90541458
_cell_length_b   4.90541458
_cell_length_c   4.90541458
_cell_angle_alpha   98.87134552
_cell_angle_beta   98.87134552
_cell_angle_gamma   98.87133789
_symmetry_Int_Tables_number   1
_chemical_formula_structural   RuF7
_chemical_formula_sum   'Ru1 F7'
_cell_volume   113.30044884
_cell_formula_units_Z   1
loop_
 _symmetry_equiv_pos_site_id
 _symmetry_equiv_pos_as_xyz
  1  'x, y, z'
loop_
 _atom_site_type_symbol
 _atom_site_label
 _atom_site_symmetry_multiplicity
 _atom_site_fract_x
 _atom_site_fract_y
 _atom_site_fract_z
 _atom_site_occupancy
  F  F0  1  0.49999999  0.49999998  0.49999996  1
  Ru  Ru1  1  0.00000000  0.00000000  0.00000000  1
  F  F2  1  0.26432599  0.26432599  0.92847199  1
  F  F3  1  0.26432600  0.92847197  0.26432595  1
  F  F4  1  0.73567397  0.07152800  0.73567397  1
  F  F5  1  0.73567398  0.73567397  0.07152793  1
  F  F6  1  0.07152801  0.73567397  0.73567397  1
  F  F7  1  0.92847197  0.26432599  0.26432595  1
