# generated using pymatgen
data_DyCdPd
_symmetry_space_group_name_H-M   'P 1'
_cell_length_a   3.84055495
_cell_length_b   7.85407782
_cell_length_c   7.85407782
_cell_angle_alpha   120.00000000
_cell_angle_beta   90.00000000
_cell_angle_gamma   90.00000000
_symmetry_Int_Tables_number   1
_chemical_formula_structural   DyCdPd
_chemical_formula_sum   'Dy3 Cd3 Pd3'
_cell_volume   205.17054635
_cell_formula_units_Z   3
loop_
 _symmetry_equiv_pos_site_id
 _symmetry_equiv_pos_as_xyz
  1  'x, y, z'
loop_
 _atom_site_type_symbol
 _atom_site_label
 _atom_site_symmetry_multiplicity
 _atom_site_fract_x
 _atom_site_fract_y
 _atom_site_fract_z
 _atom_site_occupancy
  Dy  Dy0  1  0.50000001  0.60568201  -0.00000000  1
  Dy  Dy1  1  0.50000001  0.39431801  0.39431800  1
  Dy  Dy2  1  0.50000001  0.00000000  0.60568201  1
  Cd  Cd3  1  -0.00000000  0.23749600  -0.00000000  1
  Cd  Cd4  1  -0.00000000  0.76250402  0.76250401  1
  Cd  Cd5  1  0.00000000  0.00000000  0.23749600  1
  Pd  Pd6  1  0.50000001  0.00000000  -0.00000000  1
  Pd  Pd7  1  -0.00000000  0.33333334  0.66666668  1
  Pd  Pd8  1  -0.00000000  0.66666668  0.33333334  1
