# generated using pymatgen
data_Al7Fe6
_symmetry_space_group_name_H-M   'P 1'
_cell_length_a   4.99004602
_cell_length_b   6.51511812
_cell_length_c   6.51511812
_cell_angle_alpha   80.56218719
_cell_angle_beta   67.48291016
_cell_angle_gamma   67.48291016
_symmetry_Int_Tables_number   1
_chemical_formula_structural   Al7Fe6
_chemical_formula_sum   'Al7 Fe6'
_cell_volume   180.71034089
_cell_formula_units_Z   1
loop_
 _symmetry_equiv_pos_site_id
 _symmetry_equiv_pos_as_xyz
  1  'x, y, z'
loop_
 _atom_site_type_symbol
 _atom_site_label
 _atom_site_symmetry_multiplicity
 _atom_site_fract_x
 _atom_site_fract_y
 _atom_site_fract_z
 _atom_site_occupancy
  Al  Al0  1  0.00000000  0.00000000  0.00000000  1
  Al  Al1  1  -0.00000002  0.33171401  0.66828604  1
  Al  Al2  1  -0.00000003  0.66828603  0.33171405  1
  Al  Al3  1  0.65923598  0.34076401  0.34076402  1
  Al  Al4  1  0.34076397  0.65923603  0.65923605  1
  Al  Al5  1  0.67368596  0.82631403  0.82631406  1
  Al  Al6  1  0.32631399  0.17368601  0.17368601  1
  Fe  Fe7  1  0.49999996  0.75492903  0.24507104  1
  Fe  Fe8  1  0.49999999  0.24507101  0.75492903  1
  Fe  Fe9  1  0.49999998  0.50000002  0.00000002  1
  Fe  Fe10  1  -0.00000003  0.50000002  0.00000003  1
  Fe  Fe11  1  0.50000000  0.00000000  0.50000001  1
  Fe  Fe12  1  0.00000000  0.00000000  0.50000002  1
