# generated using pymatgen
data_AlSi(HO)6
_symmetry_space_group_name_H-M   'P 1'
_cell_length_a   4.83598423
_cell_length_b   5.10124493
_cell_length_c   5.13303471
_cell_angle_alpha   119.02113342
_cell_angle_beta   98.37932587
_cell_angle_gamma   92.54933929
_symmetry_Int_Tables_number   1
_chemical_formula_structural   AlSi(HO)6
_chemical_formula_sum   'Al1 Si1 H6 O6'
_cell_volume   108.57284117
_cell_formula_units_Z   1
loop_
 _symmetry_equiv_pos_site_id
 _symmetry_equiv_pos_as_xyz
  1  'x, y, z'
loop_
 _atom_site_type_symbol
 _atom_site_label
 _atom_site_symmetry_multiplicity
 _atom_site_fract_x
 _atom_site_fract_y
 _atom_site_fract_z
 _atom_site_occupancy
  Al  Al0  1  0.00195698  0.32889098  0.66700498  1
  Si  Si1  1  0.00062596  0.66049297  0.32577498  1
  H  H2  1  0.40167696  0.36976698  0.10766898  1
  H  H3  1  0.39945698  0.06237000  0.39758999  1
  H  H4  1  0.19652293  0.84455996  0.85368096  1
  H  H5  1  0.59542793  0.60700397  0.88940696  1
  H  H6  1  0.62693491  0.90801296  0.64132095  1
  H  H7  1  0.81297595  0.14537499  0.14718498  1
  O  O8  1  0.20994596  0.40037698  0.04565398  1
  O  O9  1  0.20186699  0.03105800  0.40928999  1
  O  O10  1  0.22819395  0.66158197  0.67581897  1
  O  O11  1  0.79330592  0.58948397  0.94550296  1
  O  O12  1  0.78715290  0.95502495  0.56848895  1
  O  O13  1  0.77599394  0.33093098  0.31848097  1
