# generated using pymatgen
data_YFe12
_symmetry_space_group_name_H-M   'P 1'
_cell_length_a   4.69215679
_cell_length_b   6.46311665
_cell_length_c   6.46311617
_cell_angle_alpha   81.69959259
_cell_angle_beta   68.71576691
_cell_angle_gamma   68.71575928
_symmetry_Int_Tables_number   1
_chemical_formula_structural   YFe12
_chemical_formula_sum   'Y1 Fe12'
_cell_volume   170.15624511
_cell_formula_units_Z   1
loop_
 _symmetry_equiv_pos_site_id
 _symmetry_equiv_pos_as_xyz
  1  'x, y, z'
loop_
 _atom_site_type_symbol
 _atom_site_label
 _atom_site_symmetry_multiplicity
 _atom_site_fract_x
 _atom_site_fract_y
 _atom_site_fract_z
 _atom_site_occupancy
  Y  Y0  1  0.00000000  0.00000000  0.00000000  1
  Fe  Fe1  1  0.50000008  0.78142998  0.21856999  1
  Fe  Fe2  1  0.50000003  0.21856999  0.78143001  1
  Fe  Fe3  1  0.72762609  0.77237398  0.77237400  1
  Fe  Fe4  1  0.27237403  0.22762599  0.22762600  1
  Fe  Fe5  1  0.00000000  0.00000000  0.50000000  1
  Fe  Fe6  1  0.50000001  0.00000000  0.50000002  1
  Fe  Fe7  1  0.50000006  0.49999998  -0.00000000  1
  Fe  Fe8  1  0.00000004  0.49999998  -0.00000002  1
  Fe  Fe9  1  0.00000003  0.35799299  0.64200699  1
  Fe  Fe10  1  1.00000009  0.64200698  0.35799301  1
  Fe  Fe11  1  0.64266905  0.35733099  0.35733101  1
  Fe  Fe12  1  0.35733107  0.64266898  0.64266899  1
