# generated using pymatgen
data_DyInNi
_symmetry_space_group_name_H-M   'P 1'
_cell_length_a   4.02255106
_cell_length_b   7.04009581
_cell_length_c   7.04009533
_cell_angle_alpha   120.00000763
_cell_angle_beta   90.00000000
_cell_angle_gamma   90.00000000
_symmetry_Int_Tables_number   1
_chemical_formula_structural   DyInNi
_chemical_formula_sum   'Dy3 In3 Ni3'
_cell_volume   172.65902059
_cell_formula_units_Z   3
loop_
 _symmetry_equiv_pos_site_id
 _symmetry_equiv_pos_as_xyz
  1  'x, y, z'
loop_
 _atom_site_type_symbol
 _atom_site_label
 _atom_site_symmetry_multiplicity
 _atom_site_fract_x
 _atom_site_fract_y
 _atom_site_fract_z
 _atom_site_occupancy
  Dy  Dy0  1  0.99999999  0.41331103  0.41331102  1
  Dy  Dy1  1  0.00000000  0.00000000  0.58668899  1
  Dy  Dy2  1  -0.00000000  0.58668904  1.00000002  1
  In  In3  1  0.49999999  0.75925305  0.75925304  1
  In  In4  1  0.49999999  0.00000000  0.24074699  1
  In  In5  1  0.49999999  0.24074702  0.99999999  1
  Ni  Ni6  1  0.00000000  0.00000000  0.00000000  1
  Ni  Ni7  1  0.49999999  0.66666671  0.33333337  1
  Ni  Ni8  1  0.49999999  0.33333335  0.66666667  1
