# generated using pymatgen
data_MnO2
_symmetry_space_group_name_H-M   'P 1'
_cell_length_a   3.24586010
_cell_length_b   7.07651377
_cell_length_c   10.77429867
_cell_angle_alpha   109.17156219
_cell_angle_beta   90.00000000
_cell_angle_gamma   90.00000000
_symmetry_Int_Tables_number   1
_chemical_formula_structural   MnO2
_chemical_formula_sum   'Mn6 O12'
_cell_volume   233.75358456
_cell_formula_units_Z   6
loop_
 _symmetry_equiv_pos_site_id
 _symmetry_equiv_pos_as_xyz
  1  'x, y, z'
loop_
 _atom_site_type_symbol
 _atom_site_label
 _atom_site_symmetry_multiplicity
 _atom_site_fract_x
 _atom_site_fract_y
 _atom_site_fract_z
 _atom_site_occupancy
  Mn  Mn0  1  0.00000000  0.00000000  0.00000000  1
  Mn  Mn1  1  0.49999998  0.82752402  0.65504796  1
  Mn  Mn2  1  0.49999998  0.50000001  0.99999995  1
  Mn  Mn3  1  0.99999997  0.65214702  0.30429398  1
  Mn  Mn4  1  0.99999997  0.34785301  0.69570597  1
  Mn  Mn5  1  0.49999998  0.17247600  0.34495198  1
  O  O6  1  0.49999998  0.40609301  0.81218596  1
  O  O7  1  0.49999998  0.59390701  0.18781398  1
  O  O8  1  0.49999998  0.93341102  0.86682195  1
  O  O9  1  0.00000000  0.69201802  0.99999995  1
  O  O10  1  0.99999997  0.63568701  0.66285796  1
  O  O11  1  0.99999997  0.30798201  0.99999996  1
  O  O12  1  -0.00000000  0.97282902  0.33714197  1
  O  O13  1  0.49999998  0.72205102  0.44410197  1
  O  O14  1  0.49999998  0.27794901  0.55589797  1
  O  O15  1  0.00000000  0.36431301  0.33714198  1
  O  O16  1  0.99999997  0.02717100  0.66285797  1
  O  O17  1  0.49999998  0.06658900  0.13317799  1
