# generated using pymatgen
data_NaTaCu2F11
_symmetry_space_group_name_H-M   'P 1'
_cell_length_a   5.77834845
_cell_length_b   5.77834845
_cell_length_c   7.93189716
_cell_angle_alpha   69.30365753
_cell_angle_beta   69.30365753
_cell_angle_gamma   73.08863068
_symmetry_Int_Tables_number   1
_chemical_formula_structural   NaTaCu2F11
_chemical_formula_sum   'Na1 Ta1 Cu2 F11'
_cell_volume   227.55392540
_cell_formula_units_Z   1
loop_
 _symmetry_equiv_pos_site_id
 _symmetry_equiv_pos_as_xyz
  1  'x, y, z'
loop_
 _atom_site_type_symbol
 _atom_site_label
 _atom_site_symmetry_multiplicity
 _atom_site_fract_x
 _atom_site_fract_y
 _atom_site_fract_z
 _atom_site_occupancy
  Na  Na0  1  0.00000000  0.00000000  0.00000000  1
  Ta  Ta1  1  0.49567297  0.49567300  0.23456397  1
  Cu  Cu2  1  0.50432697  0.50432700  0.76543598  1
  Cu  Cu3  1  0.00000000  0.00000000  0.50000000  1
  F  F4  1  0.19082196  0.78044200  0.30992598  1
  F  F5  1  0.21955796  0.80917800  0.69007398  1
  F  F6  1  0.80917798  0.21955800  0.69007397  1
  F  F7  1  0.78044198  0.19082200  0.30992597  1
  F  F8  1  0.49999997  0.50000000  0.49999998  1
  F  F9  1  0.67069198  0.32930800  -0.00000003  1
  F  F10  1  0.32930796  0.67069200  -0.00000002  1
  F  F11  1  0.75579995  0.75580000  0.64127596  1
  F  F12  1  0.24419999  0.24420000  0.35872399  1
  F  F13  1  0.73427096  0.73427100  0.11081996  1
  F  F14  1  0.26572898  0.26572900  0.88917999  1
