# generated using pymatgen
data_LiSnPSO8
_symmetry_space_group_name_H-M   'P 1'
_cell_length_a   4.78615808
_cell_length_b   4.78615808
_cell_length_c   6.31316328
_cell_angle_alpha   112.27558136
_cell_angle_beta   112.27558136
_cell_angle_gamma   90.00000000
_symmetry_Int_Tables_number   1
_chemical_formula_structural   LiSnPSO8
_chemical_formula_sum   'Li1 Sn1 P1 S1 O8'
_cell_volume   122.08193616
_cell_formula_units_Z   1
loop_
 _symmetry_equiv_pos_site_id
 _symmetry_equiv_pos_as_xyz
  1  'x, y, z'
loop_
 _atom_site_type_symbol
 _atom_site_label
 _atom_site_symmetry_multiplicity
 _atom_site_fract_x
 _atom_site_fract_y
 _atom_site_fract_z
 _atom_site_occupancy
  Li  Li0  1  0.50000001  0.50000000  1.00000002  1
  Sn  Sn1  1  0.25000001  0.75000000  0.50000002  1
  P  P2  1  0.00000000  0.00000000  0.00000000  1
  S  S3  1  0.75000000  0.25000000  0.50000002  1
  O  O4  1  0.82998901  0.91427499  0.34543004  1
  O  O5  1  0.18115500  0.07998900  0.84543101  1
  O  O6  1  0.66427501  0.76544100  0.84543003  1
  O  O7  1  0.51544200  0.43115600  0.34543102  1
  O  O8  1  0.23455802  0.81884400  0.15456902  1
  O  O9  1  0.08572501  0.48455900  0.65457001  1
  O  O10  1  0.56884500  0.17001100  0.65456901  1
  O  O11  1  0.92001100  0.33572500  0.15457002  1
