# generated using pymatgen
data_NbC
_symmetry_space_group_name_H-M   'P 1'
_cell_length_a   3.20602393
_cell_length_b   3.20602465
_cell_length_c   23.00489807
_cell_angle_alpha   90.00000000
_cell_angle_beta   90.00000000
_cell_angle_gamma   119.99999237
_symmetry_Int_Tables_number   1
_chemical_formula_structural   NbC
_chemical_formula_sum   'Nb8 C8'
_cell_volume   204.77861201
_cell_formula_units_Z   8
loop_
 _symmetry_equiv_pos_site_id
 _symmetry_equiv_pos_as_xyz
  1  'x, y, z'
loop_
 _atom_site_type_symbol
 _atom_site_label
 _atom_site_symmetry_multiplicity
 _atom_site_fract_x
 _atom_site_fract_y
 _atom_site_fract_z
 _atom_site_occupancy
  Nb  Nb0  1  0.66666668  0.33333333  0.55766102  1
  Nb  Nb1  1  0.33333333  0.66666667  0.44233902  1
  Nb  Nb2  1  0.33333333  0.66666667  0.05766100  1
  Nb  Nb3  1  0.66666668  0.33333333  0.94233904  1
  Nb  Nb4  1  0.00000000  0.00000000  0.66519803  1
  Nb  Nb5  1  0.00000000  0.00000000  0.33480201  1
  Nb  Nb6  1  0.00000000  0.00000000  0.16519801  1
  Nb  Nb7  1  0.00000000  0.00000000  0.83480203  1
  C  C8  1  0.66666668  0.33333333  0.75000003  1
  C  C9  1  0.33333333  0.66666667  0.25000001  1
  C  C10  1  0.00000000  0.00000000  0.50000002  1
  C  C11  1  0.00000000  0.00000000  0.00000000  1
  C  C12  1  0.33333333  0.66666667  0.61347402  1
  C  C13  1  0.66666668  0.33333333  0.38652602  1
  C  C14  1  0.66666668  0.33333333  0.11347400  1
  C  C15  1  0.33333333  0.66666667  0.88652604  1
