# generated using pymatgen
data_V2PW
_symmetry_space_group_name_H-M   'P 1'
_cell_length_a   3.47290993
_cell_length_b   5.42667580
_cell_length_c   6.02084017
_cell_angle_alpha   89.81308746
_cell_angle_beta   90.00000000
_cell_angle_gamma   90.00000000
_symmetry_Int_Tables_number   1
_chemical_formula_structural   V2PW
_chemical_formula_sum   'V4 P2 W2'
_cell_volume   113.47029492
_cell_formula_units_Z   2
loop_
 _symmetry_equiv_pos_site_id
 _symmetry_equiv_pos_as_xyz
  1  'x, y, z'
loop_
 _atom_site_type_symbol
 _atom_site_label
 _atom_site_symmetry_multiplicity
 _atom_site_fract_x
 _atom_site_fract_y
 _atom_site_fract_z
 _atom_site_occupancy
  V  V0  1  0.00000000  0.00778400  0.80574798  1
  V  V1  1  0.50000001  0.49786802  0.30282596  1
  V  V2  1  0.50000001  0.99854504  0.19346394  1
  V  V3  1  0.00000000  0.50205802  0.69530696  1
  P  P4  1  0.00000000  0.69706303  0.07782196  1
  P  P5  1  0.00000000  0.19571201  0.42202998  1
  W  W6  1  0.50000001  0.30922601  0.91170296  1
  W  W7  1  0.50000001  0.79174403  0.59110194  1
