# generated using pymatgen
data_NdY3Mn2(FeO6)2
_symmetry_space_group_name_H-M   'P 1'
_cell_length_a   5.46114206
_cell_length_b   5.82848692
_cell_length_c   7.71238852
_cell_angle_alpha   90.00000000
_cell_angle_beta   89.61554718
_cell_angle_gamma   90.00000000
_symmetry_Int_Tables_number   1
_chemical_formula_structural   NdY3Mn2(FeO6)2
_chemical_formula_sum   'Nd1 Y3 Mn2 Fe2 O12'
_cell_volume   245.48130464
_cell_formula_units_Z   1
loop_
 _symmetry_equiv_pos_site_id
 _symmetry_equiv_pos_as_xyz
  1  'x, y, z'
loop_
 _atom_site_type_symbol
 _atom_site_label
 _atom_site_symmetry_multiplicity
 _atom_site_fract_x
 _atom_site_fract_y
 _atom_site_fract_z
 _atom_site_occupancy
  Nd  Nd0  1  0.48733299  0.80858701  0.74855603  1
  Y  Y1  1  0.98733299  0.19141300  0.24855605  1
  Y  Y2  1  0.02095700  0.32700500  0.75252601  1
  Y  Y3  1  0.52095699  0.67299501  0.25252603  1
  Mn  Mn4  1  0.00347900  0.75387301  0.49981601  1
  Mn  Mn5  1  0.50347899  0.24612700  0.99981604  1
  Fe  Fe6  1  0.50174199  0.23943300  0.49955403  1
  Fe  Fe7  1  0.00174200  0.76056701  0.99955401  1
  O  O8  1  0.12430700  0.79220501  0.25817301  1
  O  O9  1  0.19186800  0.07037000  0.94512002  1
  O  O10  1  0.18948700  0.07225000  0.56318202  1
  O  O11  1  0.29289300  0.55216201  0.55089502  1
  O  O12  1  0.29175500  0.55728201  0.94142403  1
  O  O13  1  0.39617700  0.29315500  0.24075502  1
  O  O14  1  0.62430699  0.20779500  0.75817304  1
  O  O15  1  0.68948699  0.92775001  0.06318203  1
  O  O16  1  0.69186799  0.92963001  0.44512004  1
  O  O17  1  0.79175499  0.44271801  0.44142404  1
  O  O18  1  0.79289299  0.44783801  0.05089504  1
  O  O19  1  0.89617699  0.70684501  0.74075505  1
