# generated using pymatgen
data_BaCa4Yb
_symmetry_space_group_name_H-M   'P 1'
_cell_length_a   3.81680202
_cell_length_b   3.81680250
_cell_length_c   18.73763657
_cell_angle_alpha   90.00000000
_cell_angle_beta   90.00000000
_cell_angle_gamma   120.00000000
_symmetry_Int_Tables_number   1
_chemical_formula_structural   BaCa4Yb
_chemical_formula_sum   'Ba1 Ca4 Yb1'
_cell_volume   236.39852639
_cell_formula_units_Z   1
loop_
 _symmetry_equiv_pos_site_id
 _symmetry_equiv_pos_as_xyz
  1  'x, y, z'
loop_
 _atom_site_type_symbol
 _atom_site_label
 _atom_site_symmetry_multiplicity
 _atom_site_fract_x
 _atom_site_fract_y
 _atom_site_fract_z
 _atom_site_occupancy
  Ba  Ba0  1  0.33333338  0.66666668  0.14715600  1
  Ca  Ca1  1  0.00000000  0.00000000  0.32464499  1
  Ca  Ca2  1  0.33333338  0.66666668  0.49999998  1
  Ca  Ca3  1  0.00000000  0.00000000  0.67535498  1
  Yb  Yb4  1  0.33333338  0.66666668  0.85284397  1
  Ca  Ca5  1  0.00000000  0.00000000  0.00000000  1
