# generated using pymatgen
data_In3HgS4
_symmetry_space_group_name_H-M   'P 1'
_cell_length_a   6.11842585
_cell_length_b   6.11842585
_cell_length_c   7.23776007
_cell_angle_alpha   115.00352478
_cell_angle_beta   115.00352478
_cell_angle_gamma   90.00000000
_symmetry_Int_Tables_number   1
_chemical_formula_structural   In3HgS4
_chemical_formula_sum   'In3 Hg1 S4'
_cell_volume   217.21283687
_cell_formula_units_Z   1
loop_
 _symmetry_equiv_pos_site_id
 _symmetry_equiv_pos_as_xyz
  1  'x, y, z'
loop_
 _atom_site_type_symbol
 _atom_site_label
 _atom_site_symmetry_multiplicity
 _atom_site_fract_x
 _atom_site_fract_y
 _atom_site_fract_z
 _atom_site_occupancy
  In  In0  1  0.25000002  0.75000003  0.50000002  1
  In  In1  1  0.00000000  0.00000000  0.00000000  1
  In  In2  1  0.75000003  0.25000001  0.50000002  1
  Hg  Hg3  1  0.50000003  0.50000002  0.00000002  1
  S  S4  1  0.60177102  0.09762400  0.73512801  1
  S  S5  1  0.13335702  0.63750402  0.73512701  1
  S  S6  1  0.90237705  0.86664303  0.26487203  1
  S  S7  1  0.36249602  0.39823001  0.26487301  1
