# generated using pymatgen
data_La3Sb5Pd2
_symmetry_space_group_name_H-M   'P 1'
_cell_length_a   8.95451069
_cell_length_b   8.95451069
_cell_length_c   8.95451069
_cell_angle_alpha   109.47122192
_cell_angle_beta   109.47122192
_cell_angle_gamma   109.47122192
_symmetry_Int_Tables_number   1
_chemical_formula_structural   La3Sb5Pd2
_chemical_formula_sum   'La6 Sb10 Pd4'
_cell_volume   552.71807372
_cell_formula_units_Z   2
loop_
 _symmetry_equiv_pos_site_id
 _symmetry_equiv_pos_as_xyz
  1  'x, y, z'
loop_
 _atom_site_type_symbol
 _atom_site_label
 _atom_site_symmetry_multiplicity
 _atom_site_fract_x
 _atom_site_fract_y
 _atom_site_fract_z
 _atom_site_occupancy
  La  La0  1  0.87499999  0.12500000  0.75000001  1
  La  La1  1  0.62500001  0.37500000  0.25000003  1
  La  La2  1  0.12500001  0.25000000  0.37500001  1
  La  La3  1  0.37500004  0.75000001  0.12500005  1
  La  La4  1  0.75000002  0.62500001  0.87500003  1
  La  La5  1  0.25000005  0.87500001  0.62500004  1
  Sb  Sb6  1  1.00000001  0.50000000  0.68051103  1
  Sb  Sb7  1  0.31948901  0.31948900  0.81948900  1
  Sb  Sb8  1  0.50000000  0.18051100  0.50000001  1
  Sb  Sb9  1  0.18051100  0.00000000  0.00000000  1
  Sb  Sb10  1  0.81948903  0.81948901  0.31948906  1
  Sb  Sb11  1  1.00000001  0.50000000  0.18051105  1
  Sb  Sb12  1  0.50000003  0.68051101  0.50000003  1
  Sb  Sb13  1  0.68051099  0.00000000  0.00000002  1
  Sb  Sb14  1  0.37500003  0.62500001  0.75000002  1
  Sb  Sb15  1  0.12500005  0.87500001  0.25000004  1
  Pd  Pd16  1  0.62500000  0.25000000  0.87500000  1
  Pd  Pd17  1  0.87500003  0.75000001  0.62500004  1
  Pd  Pd18  1  0.74999999  0.12500000  0.37500001  1
  Pd  Pd19  1  0.25000002  0.37500000  0.12500002  1
