# generated using pymatgen
data_V3AgO8
_symmetry_space_group_name_H-M   'P 1'
_cell_length_a   5.36893177
_cell_length_b   6.26364279
_cell_length_c   7.61526871
_cell_angle_alpha   67.00198364
_cell_angle_beta   69.35902405
_cell_angle_gamma   64.62258148
_symmetry_Int_Tables_number   1
_chemical_formula_structural   V3AgO8
_chemical_formula_sum   'V3 Ag1 O8'
_cell_volume   207.65180252
_cell_formula_units_Z   1
loop_
 _symmetry_equiv_pos_site_id
 _symmetry_equiv_pos_as_xyz
  1  'x, y, z'
loop_
 _atom_site_type_symbol
 _atom_site_label
 _atom_site_symmetry_multiplicity
 _atom_site_fract_x
 _atom_site_fract_y
 _atom_site_fract_z
 _atom_site_occupancy
  Ag  Ag0  1  0.49999999  0.49999999  0.50000002  1
  V  V1  1  0.00000000  0.00000000  0.00000000  1
  V  V2  1  0.30352800  0.23869499  0.15424901  1
  V  V3  1  0.69647198  0.76130498  0.84575102  1
  O  O4  1  0.85031299  0.63220199  0.66717202  1
  O  O5  1  0.67105799  0.58601899  0.07186503  1
  O  O6  1  0.14968698  0.36779799  0.33282801  1
  O  O7  1  0.32894199  0.41398099  0.92813500  1
  O  O8  1  0.13234600  0.03058000  0.20536300  1
  O  O9  1  0.86765397  0.96941998  0.79463704  1
  O  O10  1  0.63171102  0.03058000  0.20536300  1
  O  O11  1  0.36828895  0.96941998  0.79463703  1
