# generated using pymatgen
data_Li6CuNi2O3F8
_symmetry_space_group_name_H-M   'P 1'
_cell_length_a   2.99051809
_cell_length_b   5.17154264
_cell_length_c   15.37127686
_cell_angle_alpha   84.27317047
_cell_angle_beta   84.41765594
_cell_angle_gamma   73.19400024
_symmetry_Int_Tables_number   1
_chemical_formula_structural   Li6CuNi2O3F8
_chemical_formula_sum   'Li6 Cu1 Ni2 O3 F8'
_cell_volume   225.85159746
_cell_formula_units_Z   1
loop_
 _symmetry_equiv_pos_site_id
 _symmetry_equiv_pos_as_xyz
  1  'x, y, z'
loop_
 _atom_site_type_symbol
 _atom_site_label
 _atom_site_symmetry_multiplicity
 _atom_site_fract_x
 _atom_site_fract_y
 _atom_site_fract_z
 _atom_site_occupancy
  Li  Li0  1  0.76258105  0.56103099  0.91380701  1
  Li  Li1  1  0.00064904  0.33038700  0.66831501  1
  Li  Li2  1  0.23014301  0.11557100  0.42414301  1
  Li  Li3  1  0.99935105  0.66961299  0.33168500  1
  Li  Li4  1  0.23741905  0.43896900  0.08619300  1
  Li  Li5  1  0.23279509  0.77676899  0.75764101  1
  Ni  Ni6  1  0.76985709  0.88442999  0.57585600  1
  Ni  Ni7  1  0.76720501  0.22323100  0.24235900  1
  O  O8  1  0.85236304  0.51021899  0.78505501  1
  Cu  Cu9  1  0.14763705  0.48978099  0.21494500  1
  O  O10  1  0.14818501  0.15256700  0.55106301  1
  O  O11  1  0.37867710  0.94843599  0.29421000  1
  F  F12  1  0.61903303  0.39094100  0.37099300  1
  F  F13  1  0.38096706  0.60905899  0.62900701  1
  F  F14  1  0.85181508  0.84743299  0.44893700  1
  F  F15  1  0.62132299  0.05156400  0.70579001  1
  F  F16  1  0.64747506  0.66106999  0.04397999  1
  F  F17  1  0.35252503  0.33893000  0.95602002  1
  F  F18  1  0.14791310  0.82471099  0.87946302  1
  F  F19  1  0.85208700  0.17528900  0.12053699  1
