# generated using pymatgen
data_TbInCu
_symmetry_space_group_name_H-M   'P 1'
_cell_length_a   3.81246305
_cell_length_b   7.65156603
_cell_length_c   7.65156555
_cell_angle_alpha   120.00000000
_cell_angle_beta   90.00000000
_cell_angle_gamma   90.00000000
_symmetry_Int_Tables_number   1
_chemical_formula_structural   TbInCu
_chemical_formula_sum   'Tb3 In3 Cu3'
_cell_volume   193.30224946
_cell_formula_units_Z   3
loop_
 _symmetry_equiv_pos_site_id
 _symmetry_equiv_pos_as_xyz
  1  'x, y, z'
loop_
 _atom_site_type_symbol
 _atom_site_label
 _atom_site_symmetry_multiplicity
 _atom_site_fract_x
 _atom_site_fract_y
 _atom_site_fract_z
 _atom_site_occupancy
  Tb  Tb0  1  0.49999999  0.59542799  -0.00000002  1
  Tb  Tb1  1  0.49999999  0.40457199  0.40457198  1
  Tb  Tb2  1  0.49999999  0.99999998  0.59542796  1
  In  In3  1  -0.00000000  0.99999998  0.26287396  1
  In  In4  1  -0.00000000  0.26287399  -0.00000001  1
  In  In5  1  0.99999999  0.73712598  0.73712597  1
  Cu  Cu6  1  0.99999999  0.33333333  0.66666665  1
  Cu  Cu7  1  0.49999999  0.00000000  -0.00000000  1
  Cu  Cu8  1  -0.00000000  0.66666665  0.33333331  1
