# generated using pymatgen
data_Dy7In13
_symmetry_space_group_name_H-M   'P 1'
_cell_length_a   5.13015413
_cell_length_b   6.62286520
_cell_length_c   20.11289215
_cell_angle_alpha   90.00000000
_cell_angle_beta   90.00000000
_cell_angle_gamma   112.78698730
_symmetry_Int_Tables_number   1
_chemical_formula_structural   Dy7In13
_chemical_formula_sum   'Dy7 In13'
_cell_volume   630.02641546
_cell_formula_units_Z   1
loop_
 _symmetry_equiv_pos_site_id
 _symmetry_equiv_pos_as_xyz
  1  'x, y, z'
loop_
 _atom_site_type_symbol
 _atom_site_label
 _atom_site_symmetry_multiplicity
 _atom_site_fract_x
 _atom_site_fract_y
 _atom_site_fract_z
 _atom_site_occupancy
  Dy  Dy0  1  0.16131498  0.32262999  0.05158300  1
  Dy  Dy1  1  0.83868495  0.67736999  0.55158302  1
  Dy  Dy2  1  0.83868495  0.67736999  0.94841704  1
  Dy  Dy3  1  0.16131498  0.32262999  0.44841702  1
  Dy  Dy4  1  0.65836297  0.31672599  0.75000003  1
  Dy  Dy5  1  0.34163696  0.68327399  0.25000001  1
  Dy  Dy6  1  0.87785494  0.75570999  0.13020701  1
  In  In7  1  0.12214499  0.24429000  0.63020703  1
  In  In8  1  0.12214499  0.24429000  0.86979304  1
  In  In9  1  0.87785494  0.75570999  0.36979302  1
  In  In10  1  0.45685195  0.91370398  0.07098100  1
  In  In11  1  0.54314798  0.08629600  0.57098102  1
  In  In12  1  0.54314798  0.08629600  0.92901904  1
  In  In13  1  0.45685195  0.91370398  0.42901902  1
  In  In14  1  0.95519993  0.91039998  0.75000003  1
  In  In15  1  0.04479999  0.08960000  0.25000001  1
  In  In16  1  0.63916397  0.27832799  0.17441501  1
  In  In17  1  0.36083596  0.72167199  0.67441503  1
  In  In18  1  0.36083596  0.72167199  0.82558503  1
  In  In19  1  0.63916397  0.27832799  0.32558501  1
