# generated using pymatgen
data_AlCuNi
_symmetry_space_group_name_H-M   'P 1'
_cell_length_a   3.23355603
_cell_length_b   3.23355603
_cell_length_c   4.54997206
_cell_angle_alpha   110.81416321
_cell_angle_beta   110.81416321
_cell_angle_gamma   90.00000000
_symmetry_Int_Tables_number   1
_chemical_formula_structural   AlCuNi
_chemical_formula_sum   'Al1 Cu1 Ni1'
_cell_volume   41.13072128
_cell_formula_units_Z   1
loop_
 _symmetry_equiv_pos_site_id
 _symmetry_equiv_pos_as_xyz
  1  'x, y, z'
loop_
 _atom_site_type_symbol
 _atom_site_label
 _atom_site_symmetry_multiplicity
 _atom_site_fract_x
 _atom_site_fract_y
 _atom_site_fract_z
 _atom_site_occupancy
  Al  Al0  1  0.33492901  0.33492900  0.66985800  1
  Cu  Cu1  1  0.66507101  0.66507100  0.33014202  1
  Ni  Ni2  1  0.00000000  0.00000000  0.00000000  1
