# generated using pymatgen
data_LuAl
_symmetry_space_group_name_H-M   'P 1'
_cell_length_a   5.61252022
_cell_length_b   5.96228123
_cell_length_c   5.96228123
_cell_angle_alpha   77.20113373
_cell_angle_beta   61.92227936
_cell_angle_gamma   61.92227936
_symmetry_Int_Tables_number   1
_chemical_formula_structural   LuAl
_chemical_formula_sum   'Lu3 Al3'
_cell_volume   155.31921516
_cell_formula_units_Z   3
loop_
 _symmetry_equiv_pos_site_id
 _symmetry_equiv_pos_as_xyz
  1  'x, y, z'
loop_
 _atom_site_type_symbol
 _atom_site_label
 _atom_site_symmetry_multiplicity
 _atom_site_fract_x
 _atom_site_fract_y
 _atom_site_fract_z
 _atom_site_occupancy
  Lu  Lu0  1  0.17025900  0.15948101  0.50000001  1
  Lu  Lu1  1  0.32974000  0.50000002  0.84051999  1
  Al  Al2  1  0.82974099  0.84051904  0.49999995  1
  Lu  Lu3  1  0.67025999  0.50000002  0.15947996  1
  Al  Al4  1  0.75000000  1.00000004  -0.00000008  1
  Al  Al5  1  0.25000002  1.00000004  -0.00000008  1
