# generated using pymatgen
data_LiYFeC2
_symmetry_space_group_name_H-M   'P 1'
_cell_length_a   3.56158400
_cell_length_b   3.56158400
_cell_length_c   6.60606337
_cell_angle_alpha   105.63864136
_cell_angle_beta   105.63864136
_cell_angle_gamma   90.00000000
_symmetry_Int_Tables_number   1
_chemical_formula_structural   LiYFeC2
_chemical_formula_sum   'Li1 Y1 Fe1 C2'
_cell_volume   77.46883286
_cell_formula_units_Z   1
loop_
 _symmetry_equiv_pos_site_id
 _symmetry_equiv_pos_as_xyz
  1  'x, y, z'
loop_
 _atom_site_type_symbol
 _atom_site_label
 _atom_site_symmetry_multiplicity
 _atom_site_fract_x
 _atom_site_fract_y
 _atom_site_fract_z
 _atom_site_occupancy
  Li  Li0  1  0.34813501  0.34813500  0.69627003  1
  Y  Y1  1  0.65186501  0.65186501  0.30373003  1
  Fe  Fe2  1  0.00000000  0.00000000  0.00000000  1
  C  C3  1  0.14428800  0.14428800  0.28857601  1
  C  C4  1  0.85571202  0.85571201  0.71142405  1
