# generated using pymatgen
data_Dy2Ga11Pt
_symmetry_space_group_name_H-M   'P 1'
_cell_length_a   4.31702995
_cell_length_b   8.11491680
_cell_length_c   8.11491680
_cell_angle_alpha   72.66944122
_cell_angle_beta   74.57400513
_cell_angle_gamma   74.57400513
_symmetry_Int_Tables_number   1
_chemical_formula_structural   Dy2Ga11Pt
_chemical_formula_sum   'Dy2 Ga11 Pt1'
_cell_volume   256.15787772
_cell_formula_units_Z   1
loop_
 _symmetry_equiv_pos_site_id
 _symmetry_equiv_pos_as_xyz
  1  'x, y, z'
loop_
 _atom_site_type_symbol
 _atom_site_label
 _atom_site_symmetry_multiplicity
 _atom_site_fract_x
 _atom_site_fract_y
 _atom_site_fract_z
 _atom_site_occupancy
  Dy  Dy0  1  0.31781700  0.68218300  0.68218298  1
  Dy  Dy1  1  0.68218301  0.31781700  0.31781699  1
  Ga  Ga2  1  0.00000000  0.00000000  0.00000000  1
  Ga  Ga3  1  0.10737100  0.16550200  0.61975499  1
  Ga  Ga4  1  0.89262901  0.83449799  0.38024498  1
  Ga  Ga5  1  0.10737200  0.61975400  0.16550199  1
  Ga  Ga6  1  0.50000000  0.69546200  0.30453798  1
  Ga  Ga7  1  0.50000000  0.30453800  0.69546198  1
  Ga  Ga8  1  0.89262801  0.38024600  0.83449798  1
  Ga  Ga9  1  0.32313400  0.33582900  0.01790299  1
  Ga  Ga10  1  0.67686600  0.98209699  0.66417097  1
  Ga  Ga11  1  0.32313400  0.01790300  0.33582899  1
  Pt  Pt12  1  -0.00000000  0.50000000  0.49999998  1
  Ga  Ga13  1  0.67686600  0.66417100  0.98209697  1
