# generated using pymatgen
data_Ba2SiS4
_symmetry_space_group_name_H-M   'P 1'
_cell_length_a   6.82447004
_cell_length_b   6.83274603
_cell_length_c   8.90418530
_cell_angle_alpha   106.85353851
_cell_angle_beta   90.00000000
_cell_angle_gamma   90.00000000
_symmetry_Int_Tables_number   1
_chemical_formula_structural   Ba2SiS4
_chemical_formula_sum   'Ba4 Si2 S8'
_cell_volume   397.36771015
_cell_formula_units_Z   2
loop_
 _symmetry_equiv_pos_site_id
 _symmetry_equiv_pos_as_xyz
  1  'x, y, z'
loop_
 _atom_site_type_symbol
 _atom_site_label
 _atom_site_symmetry_multiplicity
 _atom_site_fract_x
 _atom_site_fract_y
 _atom_site_fract_z
 _atom_site_occupancy
  Ba  Ba0  1  0.75000000  0.73173999  0.93405103  1
  Ba  Ba1  1  0.25000000  0.26826000  0.06594900  1
  Ba  Ba2  1  0.25000000  0.23122900  0.55053602  1
  Ba  Ba3  1  0.75000000  0.76877099  0.44946401  1
  Si  Si4  1  0.25000000  0.78899899  0.68818802  1
  Si  Si5  1  0.75000000  0.21100100  0.31181201  1
  S  S6  1  0.75000000  0.39237400  0.55971802  1
  S  S7  1  0.50347300  0.99693099  0.72850302  1
  S  S8  1  0.99652699  0.99693099  0.72850302  1
  S  S9  1  0.25000000  0.58763999  0.83927703  1
  S  S10  1  0.75000000  0.41236000  0.16072300  1
  S  S11  1  0.00347300  0.00306900  0.27149701  1
  S  S12  1  0.49652700  0.00306900  0.27149701  1
  S  S13  1  0.25000000  0.60762599  0.44028201  1
