# generated using pymatgen
data_Sr3CoN3
_symmetry_space_group_name_H-M   'P 1'
_cell_length_a   5.44643307
_cell_length_b   7.62718010
_cell_length_c   7.62718010
_cell_angle_alpha   120.00000000
_cell_angle_beta   90.00000000
_cell_angle_gamma   90.00000000
_symmetry_Int_Tables_number   1
_chemical_formula_structural   Sr3CoN3
_chemical_formula_sum   'Sr6 Co2 N6'
_cell_volume   274.39159578
_cell_formula_units_Z   2
loop_
 _symmetry_equiv_pos_site_id
 _symmetry_equiv_pos_as_xyz
  1  'x, y, z'
loop_
 _atom_site_type_symbol
 _atom_site_label
 _atom_site_symmetry_multiplicity
 _atom_site_fract_x
 _atom_site_fract_y
 _atom_site_fract_z
 _atom_site_occupancy
  Sr  Sr0  1  0.25000000  0.35776400  0.07117101  1
  Sr  Sr1  1  0.74999999  0.07117200  0.71340802  1
  Sr  Sr2  1  0.74999999  0.28659300  0.35776502  1
  Sr  Sr3  1  0.25000000  0.71340700  0.64223504  1
  Sr  Sr4  1  0.25000000  0.92882800  0.28659203  1
  Sr  Sr5  1  0.74999999  0.64223600  0.92882904  1
  Co  Co6  1  0.74999999  0.66666667  0.33333336  1
  Co  Co7  1  0.25000000  0.33333333  0.66666669  1
  N  N8  1  0.25000000  0.09509000  0.69352602  1
  N  N9  1  0.74999999  0.69352600  0.59843604  1
  N  N10  1  0.74999999  0.40156400  0.09509001  1
  N  N11  1  0.25000000  0.59843600  0.90491004  1
  N  N12  1  0.25000000  0.30647400  0.40156402  1
  N  N13  1  0.74999999  0.90491000  0.30647403  1
