# generated using pymatgen
data_TbAg2
_symmetry_space_group_name_H-M   'P 1'
_cell_length_a   4.49115610
_cell_length_b   4.52639198
_cell_length_c   7.19202089
_cell_angle_alpha   71.65840912
_cell_angle_beta   90.00000000
_cell_angle_gamma   90.00000000
_symmetry_Int_Tables_number   1
_chemical_formula_structural   TbAg2
_chemical_formula_sum   'Tb2 Ag4'
_cell_volume   138.77708031
_cell_formula_units_Z   2
loop_
 _symmetry_equiv_pos_site_id
 _symmetry_equiv_pos_as_xyz
  1  'x, y, z'
loop_
 _atom_site_type_symbol
 _atom_site_label
 _atom_site_symmetry_multiplicity
 _atom_site_fract_x
 _atom_site_fract_y
 _atom_site_fract_z
 _atom_site_occupancy
  Tb  Tb0  1  0.49999999  0.84432602  0.31134797  1
  Tb  Tb1  1  0.49999999  0.15567400  0.68865200  1
  Ag  Ag2  1  0.00000000  0.67576501  0.64846998  1
  Ag  Ag3  1  0.99999998  0.32423501  0.35152999  1
  Ag  Ag4  1  0.49999999  0.50000001  -0.00000002  1
  Ag  Ag5  1  0.00000000  0.00000000  0.00000000  1
