# generated using pymatgen
data_Ce5Mo(AsP6)2
_symmetry_space_group_name_H-M   'P 1'
_cell_length_a   7.61908197
_cell_length_b   7.61908197
_cell_length_c   7.61908197
_cell_angle_alpha   109.47122192
_cell_angle_beta   109.47122192
_cell_angle_gamma   109.47122192
_symmetry_Int_Tables_number   1
_chemical_formula_structural   Ce5Mo(AsP6)2
_chemical_formula_sum   'Ce5 Mo1 As2 P12'
_cell_volume   340.47562603
_cell_formula_units_Z   1
loop_
 _symmetry_equiv_pos_site_id
 _symmetry_equiv_pos_as_xyz
  1  'x, y, z'
loop_
 _atom_site_type_symbol
 _atom_site_label
 _atom_site_symmetry_multiplicity
 _atom_site_fract_x
 _atom_site_fract_y
 _atom_site_fract_z
 _atom_site_occupancy
  Ce  Ce0  1  0.50000005  0.75000002  0.25000005  1
  Ce  Ce1  1  0.25000003  0.50000002  0.75000003  1
  Ce  Ce2  1  0.75000003  0.50000002  0.25000004  1
  Ce  Ce3  1  0.25000005  0.75000002  0.50000004  1
  As  As4  1  0.75000002  0.25000001  0.50000003  1
  Ce  Ce5  1  0.50000002  0.25000001  0.75000002  1
  As  As6  1  0.66536506  1.00000003  1.00000006  1
  P  P7  1  0.66536504  0.66536502  0.66536505  1
  P  P8  1  0.00000000  0.00000000  0.33463500  1
  P  P9  1  1.00000002  0.33463501  1.00000004  1
  P  P10  1  0.00000000  0.00000000  0.66536500  1
  P  P11  1  1.00000004  0.66536502  0.00000006  1
  P  P12  1  0.33463502  0.33463501  0.33463502  1
  P  P13  1  0.33463506  1.00000003  1.00000006  1
  P  P14  1  0.00000002  0.33974801  0.33974802  1
  P  P15  1  0.66025206  1.00000003  0.66025207  1
  P  P16  1  0.33974806  1.00000003  0.33974806  1
  P  P17  1  0.33974802  0.33974801  1.00000002  1
  P  P18  1  0.66025204  0.66025202  1.00000005  1
  Mo  Mo19  1  1.00000004  0.66025202  0.66025206  1
