# generated using pymatgen
data_LiMgCo6Sn5
_symmetry_space_group_name_H-M   'P 1'
_cell_length_a   5.34495401
_cell_length_b   5.34495401
_cell_length_c   8.68671703
_cell_angle_alpha   90.00000000
_cell_angle_beta   90.00000000
_cell_angle_gamma   120.00000000
_symmetry_Int_Tables_number   1
_chemical_formula_structural   LiMgCo6Sn5
_chemical_formula_sum   'Li1 Mg1 Co6 Sn5'
_cell_volume   214.91872355
_cell_formula_units_Z   1
loop_
 _symmetry_equiv_pos_site_id
 _symmetry_equiv_pos_as_xyz
  1  'x, y, z'
loop_
 _atom_site_type_symbol
 _atom_site_label
 _atom_site_symmetry_multiplicity
 _atom_site_fract_x
 _atom_site_fract_y
 _atom_site_fract_z
 _atom_site_occupancy
  Mg  Mg0  1  0.00000000  0.00000000  0.00000000  1
  Li  Li1  1  0.50000000  1.00000001  0.23280500  1
  Co  Co2  1  0.50000000  1.00000001  0.76719500  1
  Co  Co3  1  0.00000000  0.50000000  0.23280500  1
  Co  Co4  1  0.00000000  0.50000000  0.76719500  1
  Co  Co5  1  0.50000000  0.50000000  0.23280500  1
  Co  Co6  1  0.50000000  0.50000000  0.76719500  1
  Co  Co7  1  0.33333334  0.66666667  0.50000000  1
  Sn  Sn8  1  0.66666667  0.33333334  0.50000000  1
  Sn  Sn9  1  0.00000000  0.00000000  0.33470400  1
  Sn  Sn10  1  0.00000000  0.00000000  0.66529600  1
  Sn  Sn11  1  0.33333334  0.66666667  -0.00000000  1
  Sn  Sn12  1  0.66666667  0.33333334  -0.00000000  1
