# generated using pymatgen
data_PrGe2
_symmetry_space_group_name_H-M   'P 1'
_cell_length_a   4.33630896
_cell_length_b   4.38299799
_cell_length_c   8.35626125
_cell_angle_alpha   74.79589844
_cell_angle_beta   90.00000000
_cell_angle_gamma   90.00000000
_symmetry_Int_Tables_number   1
_chemical_formula_structural   PrGe2
_chemical_formula_sum   'Pr2 Ge4'
_cell_volume   153.26034083
_cell_formula_units_Z   2
loop_
 _symmetry_equiv_pos_site_id
 _symmetry_equiv_pos_as_xyz
  1  'x, y, z'
loop_
 _atom_site_type_symbol
 _atom_site_label
 _atom_site_symmetry_multiplicity
 _atom_site_fract_x
 _atom_site_fract_y
 _atom_site_fract_z
 _atom_site_occupancy
  Pr  Pr0  1  0.25000000  0.90132499  0.19735003  1
  Pr  Pr1  1  0.75000001  0.09867500  0.80265001  1
  Ge  Ge2  1  0.25000000  0.56509299  0.86981402  1
  Ge  Ge3  1  0.75000001  0.43490699  0.13018601  1
  Ge  Ge4  1  0.25000000  0.25049100  0.49901801  1
  Ge  Ge5  1  0.75000001  0.74950899  0.50098203  1
