# generated using pymatgen
data_NdGa2
_symmetry_space_group_name_H-M   'P 1'
_cell_length_a   4.68389416
_cell_length_b   4.68389368
_cell_length_c   16.51465988
_cell_angle_alpha   90.00000000
_cell_angle_beta   90.00000000
_cell_angle_gamma   120.00000000
_symmetry_Int_Tables_number   1
_chemical_formula_structural   NdGa2
_chemical_formula_sum   'Nd4 Ga8'
_cell_volume   313.77213062
_cell_formula_units_Z   4
loop_
 _symmetry_equiv_pos_site_id
 _symmetry_equiv_pos_as_xyz
  1  'x, y, z'
loop_
 _atom_site_type_symbol
 _atom_site_label
 _atom_site_symmetry_multiplicity
 _atom_site_fract_x
 _atom_site_fract_y
 _atom_site_fract_z
 _atom_site_occupancy
  Nd  Nd0  1  0.00000000  0.00000000  0.49999997  1
  Nd  Nd1  1  0.00000000  0.00000000  0.00000000  1
  Nd  Nd2  1  0.00000000  0.00000000  0.74999996  1
  Nd  Nd3  1  0.00000000  0.00000000  0.24999999  1
  Ga  Ga4  1  0.66666664  0.33333334  0.61142497  1
  Ga  Ga5  1  0.33333331  0.66666668  0.38857498  1
  Ga  Ga6  1  0.33333331  0.66666668  0.11142499  1
  Ga  Ga7  1  0.66666664  0.33333334  0.88857495  1
  Ga  Ga8  1  0.33333331  0.66666668  0.65941496  1
  Ga  Ga9  1  0.66666664  0.33333334  0.34058498  1
  Ga  Ga10  1  0.66666664  0.33333334  0.15941499  1
  Ga  Ga11  1  0.33333331  0.66666668  0.84058496  1
