# generated using pymatgen
data_Fe3Si2Ge
_symmetry_space_group_name_H-M   'P 1'
_cell_length_a   4.20769787
_cell_length_b   4.20769787
_cell_length_c   7.30188751
_cell_angle_alpha   73.25431824
_cell_angle_beta   73.25431824
_cell_angle_gamma   60.00000381
_symmetry_Int_Tables_number   1
_chemical_formula_structural   Fe3Si2Ge
_chemical_formula_sum   'Fe3 Si2 Ge1'
_cell_volume   105.58011288
_cell_formula_units_Z   1
loop_
 _symmetry_equiv_pos_site_id
 _symmetry_equiv_pos_as_xyz
  1  'x, y, z'
loop_
 _atom_site_type_symbol
 _atom_site_label
 _atom_site_symmetry_multiplicity
 _atom_site_fract_x
 _atom_site_fract_y
 _atom_site_fract_z
 _atom_site_occupancy
  Fe  Fe0  1  0.12624600  0.12624600  0.62126201  1
  Fe  Fe1  1  0.62441701  0.62441699  0.12674898  1
  Fe  Fe2  1  0.87533902  0.87533898  0.37398297  1
  Ge  Ge3  1  0.37542601  0.37542599  0.87372201  1
  Si  Si4  1  0.99485402  0.99485398  0.01543796  1
  Si  Si5  1  0.50371701  0.50371699  0.48884899  1
