# generated using pymatgen
data_Dy5AsO10
_symmetry_space_group_name_H-M   'P 1'
_cell_length_a   5.62863588
_cell_length_b   5.62866068
_cell_length_c   6.77317238
_cell_angle_alpha   83.53610992
_cell_angle_beta   65.44859314
_cell_angle_gamma   74.27995300
_symmetry_Int_Tables_number   1
_chemical_formula_structural   Dy5AsO10
_chemical_formula_sum   'Dy5 As1 O10'
_cell_volume   187.88407880
_cell_formula_units_Z   1
loop_
 _symmetry_equiv_pos_site_id
 _symmetry_equiv_pos_as_xyz
  1  'x, y, z'
loop_
 _atom_site_type_symbol
 _atom_site_label
 _atom_site_symmetry_multiplicity
 _atom_site_fract_x
 _atom_site_fract_y
 _atom_site_fract_z
 _atom_site_occupancy
  Dy  Dy0  1  0.24089100  0.24028700  1.00000005  1
  Dy  Dy1  1  0.81154600  1.00000001  0.37690808  1
  Dy  Dy2  1  0.31020200  0.50000001  0.37959604  1
  Dy  Dy3  1  0.75910900  0.75971301  0.00000006  1
  Dy  Dy4  1  0.68979800  0.50000001  0.62040407  1
  As  As5  1  0.18845400  0.00000000  0.62309203  1
  O  O6  1  0.73115500  0.26910400  0.00000005  1
  O  O7  1  0.26884500  0.73089601  1.00000006  1
  O  O8  1  0.05018800  0.41818701  0.74298203  1
  O  O9  1  0.28936000  0.92177001  0.25813404  1
  O  O10  1  0.20683000  0.58181301  0.74298205  1
  O  O11  1  0.94981200  0.58181301  0.25701807  1
  O  O12  1  0.71064000  0.07823000  0.74186606  1
  O  O13  1  0.45250600  0.07823000  0.25813403  1
  O  O14  1  0.54749400  0.92177001  0.74186607  1
  O  O15  1  0.79317000  0.41818701  0.25701806  1
