# generated using pymatgen
data_DyNi5
_symmetry_space_group_name_H-M   'P 1'
_cell_length_a   3.95266891
_cell_length_b   4.93640423
_cell_length_c   4.93640375
_cell_angle_alpha   120.00000000
_cell_angle_beta   90.00000000
_cell_angle_gamma   90.00000000
_symmetry_Int_Tables_number   1
_chemical_formula_structural   DyNi5
_chemical_formula_sum   'Dy1 Ni5'
_cell_volume   83.41467427
_cell_formula_units_Z   1
loop_
 _symmetry_equiv_pos_site_id
 _symmetry_equiv_pos_as_xyz
  1  'x, y, z'
loop_
 _atom_site_type_symbol
 _atom_site_label
 _atom_site_symmetry_multiplicity
 _atom_site_fract_x
 _atom_site_fract_y
 _atom_site_fract_z
 _atom_site_occupancy
  Dy  Dy0  1  -0.00000000  0.66666663  0.33333331  1
  Ni  Ni1  1  1.00000002  0.33333331  0.66666666  1
  Ni  Ni2  1  0.00000000  0.00000000  0.00000000  1
  Ni  Ni3  1  0.50000001  0.66730596  0.83365298  1
  Ni  Ni4  1  0.50000001  0.16634699  0.33269400  1
  Ni  Ni5  1  0.50000001  0.16634699  0.83365300  1
