# generated using pymatgen
data_GdPd
_symmetry_space_group_name_H-M   'P 1'
_cell_length_a   3.73730803
_cell_length_b   4.70015097
_cell_length_c   5.84276009
_cell_angle_alpha   90.00000000
_cell_angle_beta   108.65227509
_cell_angle_gamma   90.00000000
_symmetry_Int_Tables_number   1
_chemical_formula_structural   GdPd
_chemical_formula_sum   'Gd2 Pd2'
_cell_volume   97.24279515
_cell_formula_units_Z   2
loop_
 _symmetry_equiv_pos_site_id
 _symmetry_equiv_pos_as_xyz
  1  'x, y, z'
loop_
 _atom_site_type_symbol
 _atom_site_label
 _atom_site_symmetry_multiplicity
 _atom_site_fract_x
 _atom_site_fract_y
 _atom_site_fract_z
 _atom_site_occupancy
  Gd  Gd0  1  0.86089301  0.75000001  0.72178604  1
  Gd  Gd1  1  0.13910700  0.25000000  0.27821401  1
  Pd  Pd2  1  0.58827001  0.75000001  0.17654002  1
  Pd  Pd3  1  0.41173000  0.25000000  0.82346002  1
