# generated using pymatgen
data_Dy(SiRu)2
_symmetry_space_group_name_H-M   'P 1'
_cell_length_a   4.04455996
_cell_length_b   4.04455996
_cell_length_c   5.71337938
_cell_angle_alpha   110.72942352
_cell_angle_beta   110.72942352
_cell_angle_gamma   90.00000000
_symmetry_Int_Tables_number   1
_chemical_formula_structural   Dy(SiRu)2
_chemical_formula_sum   'Dy1 Si2 Ru2'
_cell_volume   80.90988390
_cell_formula_units_Z   1
loop_
 _symmetry_equiv_pos_site_id
 _symmetry_equiv_pos_as_xyz
  1  'x, y, z'
loop_
 _atom_site_type_symbol
 _atom_site_label
 _atom_site_symmetry_multiplicity
 _atom_site_fract_x
 _atom_site_fract_y
 _atom_site_fract_z
 _atom_site_occupancy
  Dy  Dy0  1  0.00000000  0.00000000  0.00000000  1
  Si  Si1  1  0.62032504  0.62032502  0.24065004  1
  Si  Si2  1  0.37967502  0.37967501  0.75935001  1
  Ru  Ru3  1  0.75000003  0.25000001  0.50000002  1
  Ru  Ru4  1  0.25000003  0.75000002  0.50000003  1
