# generated using pymatgen
data_Er(NiGe)2
_symmetry_space_group_name_H-M   'P 1'
_cell_length_a   3.95573902
_cell_length_b   4.14650393
_cell_length_c   12.47707081
_cell_angle_alpha   99.56491852
_cell_angle_beta   90.00000000
_cell_angle_gamma   90.00000000
_symmetry_Int_Tables_number   1
_chemical_formula_structural   Er(NiGe)2
_chemical_formula_sum   'Er2 Ni4 Ge4'
_cell_volume   201.80987506
_cell_formula_units_Z   2
loop_
 _symmetry_equiv_pos_site_id
 _symmetry_equiv_pos_as_xyz
  1  'x, y, z'
loop_
 _atom_site_type_symbol
 _atom_site_label
 _atom_site_symmetry_multiplicity
 _atom_site_fract_x
 _atom_site_fract_y
 _atom_site_fract_z
 _atom_site_occupancy
  Er  Er0  1  0.75000000  0.43009901  0.86019799  1
  Er  Er1  1  0.25000000  0.56990101  0.13980201  1
  Ni  Ni2  1  0.75000000  0.70304702  0.40609500  1
  Ni  Ni3  1  0.25000000  0.29695301  0.59390499  1
  Ni  Ni4  1  0.75000000  0.02452800  0.04905600  1
  Ni  Ni5  1  0.25000000  0.97547202  0.95094400  1
  Ge  Ge6  1  0.75000000  0.11868900  0.23737800  1
  Ge  Ge7  1  0.25000000  0.88131102  0.76262200  1
  Ge  Ge8  1  0.75000000  0.82374402  0.64748900  1
  Ge  Ge9  1  0.25000000  0.17625600  0.35251100  1
