# generated using pymatgen
data_Te3W2Se
_symmetry_space_group_name_H-M   'P 1'
_cell_length_a   3.49954200
_cell_length_b   3.49954176
_cell_length_c   39.56214142
_cell_angle_alpha   90.00000000
_cell_angle_beta   90.00000000
_cell_angle_gamma   120.00000000
_symmetry_Int_Tables_number   1
_chemical_formula_structural   Te3W2Se
_chemical_formula_sum   'Te6 W4 Se2'
_cell_volume   419.59742354
_cell_formula_units_Z   2
loop_
 _symmetry_equiv_pos_site_id
 _symmetry_equiv_pos_as_xyz
  1  'x, y, z'
loop_
 _atom_site_type_symbol
 _atom_site_label
 _atom_site_symmetry_multiplicity
 _atom_site_fract_x
 _atom_site_fract_y
 _atom_site_fract_z
 _atom_site_occupancy
  Te  Te0  1  0.66666665  0.33333333  0.29616301  1
  Te  Te1  1  0.33333330  0.66666665  0.95237304  1
  Te  Te2  1  0.33333330  0.66666665  0.57665702  1
  Te  Te3  1  0.33333330  0.66666665  0.85975603  1
  Te  Te4  1  0.33333330  0.66666665  0.48404702  1
  Te  Te5  1  0.66666665  0.33333333  0.38877402  1
  W  W6  1  0.66666665  0.33333333  0.90607104  1
  W  W7  1  0.66666665  0.33333333  0.53036102  1
  W  W8  1  0.33333330  0.66666665  0.71820003  1
  W  W9  1  0.33333330  0.66666665  0.34244301  1
  Se  Se10  1  0.66666665  0.33333333  0.67729103  1
  Se  Se11  1  0.66666665  0.33333333  0.75911603  1
