# generated using pymatgen
data_Bi3SbO6
_symmetry_space_group_name_H-M   'P 1'
_cell_length_a   5.59459209
_cell_length_b   5.59459162
_cell_length_c   6.43236303
_cell_angle_alpha   64.22245026
_cell_angle_beta   64.22245026
_cell_angle_gamma   59.99998856
_symmetry_Int_Tables_number   1
_chemical_formula_structural   Bi3SbO6
_chemical_formula_sum   'Bi3 Sb1 O6'
_cell_volume   150.77961750
_cell_formula_units_Z   1
loop_
 _symmetry_equiv_pos_site_id
 _symmetry_equiv_pos_as_xyz
  1  'x, y, z'
loop_
 _atom_site_type_symbol
 _atom_site_label
 _atom_site_symmetry_multiplicity
 _atom_site_fract_x
 _atom_site_fract_y
 _atom_site_fract_z
 _atom_site_occupancy
  Sb  Sb0  1  0.66887902  0.66888000  0.99336203  1
  Bi  Bi1  1  0.33112101  0.33112000  0.00663800  1
  Bi  Bi2  1  0.00000000  0.00000000  0.00000000  1
  Bi  Bi3  1  0.50000001  0.50000000  0.50000001  1
  O  O4  1  0.75277402  0.08999500  0.73855201  1
  O  O5  1  0.41867901  0.75277400  0.73855203  1
  O  O6  1  0.08999500  0.41867900  0.73855203  1
  O  O7  1  0.24722600  0.91000501  0.26144802  1
  O  O8  1  0.58132102  0.24722600  0.26144800  1
  O  O9  1  0.91000502  0.58132100  0.26144799  1
