# generated using pymatgen
data_DyGaPd
_symmetry_space_group_name_H-M   'P 1'
_cell_length_a   4.59331894
_cell_length_b   7.00783587
_cell_length_c   8.03709602
_cell_angle_alpha   90.00000000
_cell_angle_beta   90.00000000
_cell_angle_gamma   90.00000000
_symmetry_Int_Tables_number   1
_chemical_formula_structural   DyGaPd
_chemical_formula_sum   'Dy4 Ga4 Pd4'
_cell_volume   258.70789387
_cell_formula_units_Z   4
loop_
 _symmetry_equiv_pos_site_id
 _symmetry_equiv_pos_as_xyz
  1  'x, y, z'
loop_
 _atom_site_type_symbol
 _atom_site_label
 _atom_site_symmetry_multiplicity
 _atom_site_fract_x
 _atom_site_fract_y
 _atom_site_fract_z
 _atom_site_occupancy
  Dy  Dy0  1  0.25000000  0.01976500  0.30972700  1
  Dy  Dy1  1  0.25000000  0.51976501  0.19027300  1
  Dy  Dy2  1  0.75000001  0.98023502  0.69027300  1
  Dy  Dy3  1  0.75000001  0.48023501  0.80972700  1
  Ga  Ga4  1  0.25000000  0.16826400  0.92663500  1
  Ga  Ga5  1  0.25000000  0.66826401  0.57336500  1
  Ga  Ga6  1  0.75000001  0.83173602  0.07336500  1
  Ga  Ga7  1  0.75000001  0.33173601  0.42663500  1
  Pd  Pd8  1  0.25000000  0.27077701  0.60241800  1
  Pd  Pd9  1  0.25000000  0.77077701  0.89758200  1
  Pd  Pd10  1  0.75000001  0.72922301  0.39758200  1
  Pd  Pd11  1  0.75000001  0.22922300  0.10241800  1
