# generated using pymatgen
data_MgCd2
_symmetry_space_group_name_H-M   'P 1'
_cell_length_a   5.08020020
_cell_length_b   5.65406990
_cell_length_c   5.65407085
_cell_angle_alpha   60.00000381
_cell_angle_beta   90.00000000
_cell_angle_gamma   90.00000000
_symmetry_Int_Tables_number   1
_chemical_formula_structural   MgCd2
_chemical_formula_sum   'Mg2 Cd4'
_cell_volume   140.64810823
_cell_formula_units_Z   2
loop_
 _symmetry_equiv_pos_site_id
 _symmetry_equiv_pos_as_xyz
  1  'x, y, z'
loop_
 _atom_site_type_symbol
 _atom_site_label
 _atom_site_symmetry_multiplicity
 _atom_site_fract_x
 _atom_site_fract_y
 _atom_site_fract_z
 _atom_site_occupancy
  Mg  Mg0  1  0.99999996  0.66475601  0.33524399  1
  Mg  Mg1  1  0.99999996  0.33524401  0.00000000  1
  Cd  Cd2  1  0.00000000  0.00000000  0.66475598  1
  Cd  Cd3  1  0.49999998  0.66666668  0.66666664  1
  Cd  Cd4  1  0.49999998  0.33333334  0.33333332  1
  Cd  Cd5  1  0.49999998  0.00000000  0.00000000  1
