# generated using pymatgen
data_VO3
_symmetry_space_group_name_H-M   'P 1'
_cell_length_a   4.58689260
_cell_length_b   4.87564993
_cell_length_c   4.88858032
_cell_angle_alpha   60.08745956
_cell_angle_beta   88.62478638
_cell_angle_gamma   90.00000000
_symmetry_Int_Tables_number   1
_chemical_formula_structural   VO3
_chemical_formula_sum   'V2 O6'
_cell_volume   94.72835787
_cell_formula_units_Z   2
loop_
 _symmetry_equiv_pos_site_id
 _symmetry_equiv_pos_as_xyz
  1  'x, y, z'
loop_
 _atom_site_type_symbol
 _atom_site_label
 _atom_site_symmetry_multiplicity
 _atom_site_fract_x
 _atom_site_fract_y
 _atom_site_fract_z
 _atom_site_occupancy
  V  V0  1  0.23573402  0.64367800  0.68658802  1
  V  V1  1  0.76426600  0.33026600  0.31341197  1
  O  O2  1  1.00000000  0.37899200  -0.00000005  1
  O  O3  1  0.50000002  0.64054600  -0.00000002  1
  O  O4  1  0.49874001  0.36166900  0.63664500  1
  O  O5  1  0.50126003  0.99831401  0.36335500  1
  O  O6  1  0.99683699  0.00077500  0.64007296  1
  O  O7  1  0.00316302  0.64084800  0.35992702  1
