# generated using pymatgen
data_Li2TiCuO3
_symmetry_space_group_name_H-M   'P 1'
_cell_length_a   3.42880487
_cell_length_b   3.42880487
_cell_length_c   8.83175182
_cell_angle_alpha   78.80678558
_cell_angle_beta   78.80678558
_cell_angle_gamma   60.00002289
_symmetry_Int_Tables_number   1
_chemical_formula_structural   Li2TiCuO3
_chemical_formula_sum   'Li2 Ti1 Cu1 O3'
_cell_volume   87.63336671
_cell_formula_units_Z   1
loop_
 _symmetry_equiv_pos_site_id
 _symmetry_equiv_pos_as_xyz
  1  'x, y, z'
loop_
 _atom_site_type_symbol
 _atom_site_label
 _atom_site_symmetry_multiplicity
 _atom_site_fract_x
 _atom_site_fract_y
 _atom_site_fract_z
 _atom_site_occupancy
  Li  Li0  1  0.00303500  0.00303500  0.99089497  1
  Li  Li1  1  0.21924300  0.21924300  0.34227099  1
  Ti  Ti2  1  0.78665000  0.78664999  0.64004997  1
  Cu  Cu3  1  0.12000900  0.12000900  0.63997298  1
  O  O4  1  0.86503000  0.86502999  0.40490998  1
  O  O5  1  0.29621200  0.29621200  0.11136399  1
  O  O6  1  0.70982000  0.70981999  0.87053997  1
