# generated using pymatgen
data_Ag10HgPbS8
_symmetry_space_group_name_H-M   'P 1'
_cell_length_a   7.37412405
_cell_length_b   7.37412405
_cell_length_c   9.12207890
_cell_angle_alpha   90.00000000
_cell_angle_beta   90.00000000
_cell_angle_gamma   116.27542877
_symmetry_Int_Tables_number   1
_chemical_formula_structural   Ag10HgPbS8
_chemical_formula_sum   'Ag10 Hg1 Pb1 S8'
_cell_volume   444.78529626
_cell_formula_units_Z   1
loop_
 _symmetry_equiv_pos_site_id
 _symmetry_equiv_pos_as_xyz
  1  'x, y, z'
loop_
 _atom_site_type_symbol
 _atom_site_label
 _atom_site_symmetry_multiplicity
 _atom_site_fract_x
 _atom_site_fract_y
 _atom_site_fract_z
 _atom_site_occupancy
  Ag  Ag0  1  0.13183300  0.26083599  0.17978800  1
  Ag  Ag1  1  0.57108598  0.80483497  0.49115701  1
  Ag  Ag2  1  0.80483497  0.57108598  0.99115701  1
  Ag  Ag3  1  0.19516499  0.42891399  0.49115701  1
  Ag  Ag4  1  0.73916398  0.86816697  0.17978800  1
  Ag  Ag5  1  0.26083599  0.13183300  0.67978801  1
  Ag  Ag6  1  0.13727699  0.86272297  0.32203400  1
  Ag  Ag7  1  0.86272297  0.13727700  0.82203401  1
  Ag  Ag8  1  0.42891399  0.19516499  0.99115701  1
  Hg  Hg9  1  0.86816697  0.73916398  0.67978801  1
  Ag  Ag10  1  0.67501298  0.32498699  0.38253900  1
  Pb  Pb11  1  0.32498699  0.67501298  0.88253901  1
  S  S12  1  0.96558797  0.50421998  0.21782400  1
  S  S13  1  0.03441200  0.49577998  0.71782401  1
  S  S14  1  0.48239598  0.51760398  0.30287800  1
  S  S15  1  0.51760398  0.48239598  0.80287801  1
  S  S16  1  0.98170497  0.01829500  0.48951201  1
  S  S17  1  0.01829500  0.98170497  0.98951201  1
  S  S18  1  0.49577998  0.03441200  0.21782400  1
  S  S19  1  0.50421998  0.96558797  0.71782401  1
