# generated using pymatgen
data_LaIn2Pd
_symmetry_space_group_name_H-M   'P 1'
_cell_length_a   4.44285202
_cell_length_b   5.58762836
_cell_length_c   7.99717712
_cell_angle_alpha   90.00000000
_cell_angle_beta   90.00000000
_cell_angle_gamma   113.42582703
_symmetry_Int_Tables_number   1
_chemical_formula_structural   LaIn2Pd
_chemical_formula_sum   'La2 In4 Pd2'
_cell_volume   182.16623860
_cell_formula_units_Z   2
loop_
 _symmetry_equiv_pos_site_id
 _symmetry_equiv_pos_as_xyz
  1  'x, y, z'
loop_
 _atom_site_type_symbol
 _atom_site_label
 _atom_site_symmetry_multiplicity
 _atom_site_fract_x
 _atom_site_fract_y
 _atom_site_fract_z
 _atom_site_occupancy
  La  La0  1  0.93281903  0.86563801  0.74999999  1
  La  La1  1  0.06718100  0.13436200  0.25000000  1
  In  In2  1  0.35507803  0.71015601  0.44922999  1
  In  In3  1  0.64492201  0.28984400  0.55076999  1
  In  In4  1  0.35507803  0.71015601  0.05077000  1
  In  In5  1  0.64492201  0.28984400  0.94922999  1
  Pd  Pd6  1  0.78485802  0.56971600  0.25000000  1
  Pd  Pd7  1  0.21514202  0.43028400  0.74999999  1
