# generated using pymatgen
data_MgAg2
_symmetry_space_group_name_H-M   'P 1'
_cell_length_a   3.10999393
_cell_length_b   5.79371452
_cell_length_c   7.17988968
_cell_angle_alpha   105.80992889
_cell_angle_beta   90.00000000
_cell_angle_gamma   105.56871033
_symmetry_Int_Tables_number   1
_chemical_formula_structural   MgAg2
_chemical_formula_sum   'Mg2 Ag4'
_cell_volume   119.53540634
_cell_formula_units_Z   2
loop_
 _symmetry_equiv_pos_site_id
 _symmetry_equiv_pos_as_xyz
  1  'x, y, z'
loop_
 _atom_site_type_symbol
 _atom_site_label
 _atom_site_symmetry_multiplicity
 _atom_site_fract_x
 _atom_site_fract_y
 _atom_site_fract_z
 _atom_site_occupancy
  Mg  Mg0  1  0.85729402  0.71458801  0.96366703  1
  Mg  Mg1  1  0.46981901  0.93963801  0.68393503  1
  Ag  Ag2  1  0.53018101  0.06036200  0.31606501  1
  Ag  Ag3  1  0.14270600  0.28541200  0.03633301  1
  Ag  Ag4  1  0.19654701  0.39309400  0.63832002  1
  Ag  Ag5  1  0.80345302  0.60690601  0.36168002  1
