# generated using pymatgen
data_NaBS3
_symmetry_space_group_name_H-M   'P 1'
_cell_length_a   6.04858398
_cell_length_b   7.44541979
_cell_length_c   8.87977791
_cell_angle_alpha   90.00000000
_cell_angle_beta   90.00000000
_cell_angle_gamma   90.00000000
_symmetry_Int_Tables_number   1
_chemical_formula_structural   NaBS3
_chemical_formula_sum   'Na4 B4 S12'
_cell_volume   399.89411064
_cell_formula_units_Z   4
loop_
 _symmetry_equiv_pos_site_id
 _symmetry_equiv_pos_as_xyz
  1  'x, y, z'
loop_
 _atom_site_type_symbol
 _atom_site_label
 _atom_site_symmetry_multiplicity
 _atom_site_fract_x
 _atom_site_fract_y
 _atom_site_fract_z
 _atom_site_occupancy
  Na  Na0  1  0.93612500  0.88323603  0.75816601  1
  Na  Na1  1  0.56387500  0.38323601  0.75816601  1
  Na  Na2  1  0.43612500  0.61676402  0.25816600  1
  Na  Na3  1  0.06387500  0.11676400  0.25816600  1
  B  B4  1  0.40084200  0.85493902  0.92800401  1
  B  B5  1  0.59915800  0.14506100  0.42800400  1
  B  B6  1  0.09915800  0.35493901  0.92800401  1
  B  B7  1  0.90084200  0.64506102  0.42800400  1
  S  S8  1  0.66666667  0.67458902  0.55506001  1
  S  S9  1  0.63515100  0.70433802  0.95786401  1
  S  S10  1  0.86484900  0.20433801  0.95786401  1
  S  S11  1  0.13515100  0.79566202  0.45786400  1
  S  S12  1  0.83334900  0.17458900  0.55506001  1
  S  S13  1  0.89145300  0.49750801  0.26700600  1
  S  S14  1  0.10854700  0.50249201  0.76700601  1
  S  S15  1  0.39145300  0.00249200  0.76700601  1
  S  S16  1  0.60854700  0.99750803  0.26700600  1
  S  S17  1  0.33333333  0.32541101  0.05506000  1
  S  S18  1  0.36484900  0.29566201  0.45786400  1
  S  S19  1  0.16665100  0.82541102  0.05506000  1
