# generated using pymatgen
data_Al7Fe6
_symmetry_space_group_name_H-M   'P 1'
_cell_length_a   4.99436188
_cell_length_b   6.55397463
_cell_length_c   6.55397463
_cell_angle_alpha   80.69258881
_cell_angle_beta   67.60325623
_cell_angle_gamma   67.60325623
_symmetry_Int_Tables_number   1
_chemical_formula_structural   Al7Fe6
_chemical_formula_sum   'Al7 Fe6'
_cell_volume   183.35192126
_cell_formula_units_Z   1
loop_
 _symmetry_equiv_pos_site_id
 _symmetry_equiv_pos_as_xyz
  1  'x, y, z'
loop_
 _atom_site_type_symbol
 _atom_site_label
 _atom_site_symmetry_multiplicity
 _atom_site_fract_x
 _atom_site_fract_y
 _atom_site_fract_z
 _atom_site_occupancy
  Al  Al0  1  0.00000000  0.00000000  0.00000000  1
  Al  Al1  1  0.34701196  0.65298800  0.65298804  1
  Al  Al2  1  0.65298800  0.34701200  0.34701201  1
  Al  Al3  1  -0.00000005  0.66382400  0.33617605  1
  Al  Al4  1  -0.00000003  0.33617600  0.66382402  1
  Al  Al5  1  0.30607500  0.19392500  0.19392501  1
  Al  Al6  1  0.69392496  0.80607500  0.80607504  1
  Fe  Fe7  1  0.49999994  1.00000001  0.50000006  1
  Fe  Fe8  1  0.00000000  0.00000000  0.50000000  1
  Fe  Fe9  1  0.49999998  0.50000000  0.00000003  1
  Fe  Fe10  1  -0.00000004  0.50000000  0.00000004  1
  Fe  Fe11  1  0.50000000  0.23819800  0.76180200  1
  Fe  Fe12  1  0.49999996  0.76180200  0.23819804  1
