# generated using pymatgen
data_Dy3Al(Co3Si5)2
_symmetry_space_group_name_H-M   'P 1'
_cell_length_a   5.48088598
_cell_length_b   7.80833673
_cell_length_c   7.80833673
_cell_angle_alpha   75.20785522
_cell_angle_beta   69.45372772
_cell_angle_gamma   69.45372772
_symmetry_Int_Tables_number   1
_chemical_formula_structural   Dy3Al(Co3Si5)2
_chemical_formula_sum   'Dy3 Al1 Co6 Si10'
_cell_volume   289.66238026
_cell_formula_units_Z   1
loop_
 _symmetry_equiv_pos_site_id
 _symmetry_equiv_pos_as_xyz
  1  'x, y, z'
loop_
 _atom_site_type_symbol
 _atom_site_label
 _atom_site_symmetry_multiplicity
 _atom_site_fract_x
 _atom_site_fract_y
 _atom_site_fract_z
 _atom_site_occupancy
  Dy  Dy0  1  0.63362801  0.60101100  0.13173299  1
  Dy  Dy1  1  0.36637201  0.39898900  0.86826699  1
  Dy  Dy2  1  0.13362800  0.13173300  0.60101100  1
  Al  Al3  1  0.86637202  0.86826700  0.39898898  1
  Co  Co4  1  0.25000000  0.00000000  1.00000000  1
  Co  Co5  1  0.75000000  0.00000000  1.00000000  1
  Co  Co6  1  0.86307701  0.52411800  0.74972899  1
  Co  Co7  1  0.13692301  0.47588200  0.25027099  1
  Co  Co8  1  0.36307601  0.74973000  0.52411798  1
  Co  Co9  1  0.63692400  0.25027000  0.47588200  1
  Si  Si10  1  0.25000001  0.50000000  0.49999999  1
  Si  Si11  1  0.75000001  0.50000000  0.49999999  1
  Si  Si12  1  0.47946301  0.77053700  0.77053698  1
  Si  Si13  1  0.02053700  0.22946300  0.22946299  1
  Si  Si14  1  0.52053700  0.22946300  0.22946300  1
  Si  Si15  1  0.97946301  0.77053700  0.77053699  1
  Si  Si16  1  0.89811201  0.25949500  0.94428100  1
  Si  Si17  1  0.10188801  0.74050500  0.05571898  1
  Si  Si18  1  0.39811202  0.94428100  0.25949498  1
  Si  Si19  1  0.60188800  0.05571900  0.74050500  1
