# generated using pymatgen
data_Sr4N3Cl
_symmetry_space_group_name_H-M   'P 1'
_cell_length_a   4.10614920
_cell_length_b   4.58100319
_cell_length_c   11.76400471
_cell_angle_alpha   91.45188141
_cell_angle_beta   90.00000000
_cell_angle_gamma   90.00000000
_symmetry_Int_Tables_number   1
_chemical_formula_structural   Sr4N3Cl
_chemical_formula_sum   'Sr4 N3 Cl1'
_cell_volume   221.21321078
_cell_formula_units_Z   1
loop_
 _symmetry_equiv_pos_site_id
 _symmetry_equiv_pos_as_xyz
  1  'x, y, z'
loop_
 _atom_site_type_symbol
 _atom_site_label
 _atom_site_symmetry_multiplicity
 _atom_site_fract_x
 _atom_site_fract_y
 _atom_site_fract_z
 _atom_site_occupancy
  Sr  Sr0  1  -0.00000000  0.39689698  0.38158199  1
  Sr  Sr1  1  0.99999995  0.10532400  0.88267500  1
  Sr  Sr2  1  0.49999998  0.59950697  0.61526999  1
  Sr  Sr3  1  0.49999998  0.89668896  0.11829098  1
  N  N4  1  0.00000000  0.49334298  0.14624199  1
  Cl  Cl5  1  -0.00000000  0.01041500  0.64913400  1
  N  N6  1  0.49999998  0.51258898  0.85039499  1
  N  N7  1  0.49999998  0.98523496  0.35641098  1
