# generated using pymatgen
data_ZrSn4Rh7
_symmetry_space_group_name_H-M   'P 1'
_cell_length_a   3.27803493
_cell_length_b   6.87025785
_cell_length_c   9.08277416
_cell_angle_alpha   90.00000000
_cell_angle_beta   90.00000000
_cell_angle_gamma   90.00000000
_symmetry_Int_Tables_number   1
_chemical_formula_structural   ZrSn4Rh7
_chemical_formula_sum   'Zr1 Sn4 Rh7'
_cell_volume   204.55265912
_cell_formula_units_Z   1
loop_
 _symmetry_equiv_pos_site_id
 _symmetry_equiv_pos_as_xyz
  1  'x, y, z'
loop_
 _atom_site_type_symbol
 _atom_site_label
 _atom_site_symmetry_multiplicity
 _atom_site_fract_x
 _atom_site_fract_y
 _atom_site_fract_z
 _atom_site_occupancy
  Zr  Zr0  1  0.75000002  0.87043102  0.22045800  1
  Sn  Sn1  1  0.25000001  0.12956900  0.77954199  1
  Sn  Sn2  1  0.25000001  0.62956901  0.72045799  1
  Sn  Sn3  1  0.75000002  0.37043101  0.27954200  1
  Sn  Sn4  1  0.75000002  0.34979801  0.57710699  1
  Rh  Rh5  1  0.75000002  0.91357802  0.61586699  1
  Rh  Rh6  1  0.25000001  0.08642200  0.38413299  1
  Rh  Rh7  1  0.25000001  0.58642201  0.11586700  1
  Rh  Rh8  1  0.75000002  0.84979802  0.92289298  1
  Rh  Rh9  1  0.25000001  0.15020200  0.07710700  1
  Rh  Rh10  1  0.75000002  0.41357801  0.88413298  1
  Rh  Rh11  1  0.25000001  0.65020201  0.42289299  1
