# generated using pymatgen
data_Dy3Ga7Ni8
_symmetry_space_group_name_H-M   'P 1'
_cell_length_a   4.06054211
_cell_length_b   9.05939770
_cell_length_c   9.05939770
_cell_angle_alpha   120.00000000
_cell_angle_beta   90.00000000
_cell_angle_gamma   90.00000000
_symmetry_Int_Tables_number   1
_chemical_formula_structural   Dy3Ga7Ni8
_chemical_formula_sum   'Dy3 Ga7 Ni8'
_cell_volume   288.61127958
_cell_formula_units_Z   1
loop_
 _symmetry_equiv_pos_site_id
 _symmetry_equiv_pos_as_xyz
  1  'x, y, z'
loop_
 _atom_site_type_symbol
 _atom_site_label
 _atom_site_symmetry_multiplicity
 _atom_site_fract_x
 _atom_site_fract_y
 _atom_site_fract_z
 _atom_site_occupancy
  Dy  Dy0  1  0.49999999  0.66666669  0.33333336  1
  Dy  Dy1  1  0.49999999  0.33333335  0.66666670  1
  Dy  Dy2  1  0.00000000  0.00000000  0.00000000  1
  Ga  Ga3  1  0.99999997  0.50000002  0.50000003  1
  Ga  Ga4  1  0.99999997  0.00000000  0.50000003  1
  Ga  Ga5  1  0.99999997  0.50000002  0.00000001  1
  Ga  Ga6  1  0.49999999  0.70400503  0.70400504  1
  Ga  Ga7  1  0.49999999  0.29599501  0.29599502  1
  Ga  Ga8  1  0.49999999  0.00000000  0.29599502  1
  Ga  Ga9  1  0.49999999  0.00000000  0.70400504  1
  Ni  Ni10  1  0.49999999  0.29599501  0.00000000  1
  Ni  Ni11  1  0.49999999  0.70400503  0.00000001  1
  Ni  Ni12  1  -0.00000000  0.81831703  0.18168402  1
  Ni  Ni13  1  0.99999997  0.18168301  0.81831604  1
  Ni  Ni14  1  0.99999997  0.36336701  0.18168401  1
  Ni  Ni15  1  0.99999997  0.63663302  0.81831605  1
  Ni  Ni16  1  0.99999997  0.81831703  0.63663404  1
  Ni  Ni17  1  0.99999997  0.18168301  0.36336602  1
