# generated using pymatgen
data_Tl2GeIBr5
_symmetry_space_group_name_H-M   'P 1'
_cell_length_a   7.25515699
_cell_length_b   7.25515699
_cell_length_c   7.25515699
_cell_angle_alpha   91.77867889
_cell_angle_beta   118.97844696
_cell_angle_gamma   118.97844696
_symmetry_Int_Tables_number   1
_chemical_formula_structural   Tl2GeIBr5
_chemical_formula_sum   'Tl2 Ge1 I1 Br5'
_cell_volume   274.06505395
_cell_formula_units_Z   1
loop_
 _symmetry_equiv_pos_site_id
 _symmetry_equiv_pos_as_xyz
  1  'x, y, z'
loop_
 _atom_site_type_symbol
 _atom_site_label
 _atom_site_symmetry_multiplicity
 _atom_site_fract_x
 _atom_site_fract_y
 _atom_site_fract_z
 _atom_site_occupancy
  Tl  Tl0  1  0.49999994  0.74999997  0.24999999  1
  Tl  Tl1  1  0.49999997  0.24999999  0.74999997  1
  Ge  Ge2  1  0.00000000  0.00000000  0.00000000  1
  I  I3  1  -0.00000001  0.24077599  0.24077601  1
  Br  Br4  1  -0.00000004  0.75922397  0.75922402  1
  Br  Br5  1  -0.00000001  0.23471999  0.76528000  1
  Br  Br6  1  0.46943997  0.23471999  0.23471998  1
  Br  Br7  1  -0.00000004  0.76527997  0.23472002  1
  Br  Br8  1  0.53055994  0.76527997  0.76527999  1
