# generated using pymatgen
data_Dy4MnAlFeCo2Si7
_symmetry_space_group_name_H-M   'P 1'
_cell_length_a   4.08120203
_cell_length_b   5.68385410
_cell_length_c   13.65460014
_cell_angle_alpha   90.00000000
_cell_angle_beta   90.00000000
_cell_angle_gamma   111.03984833
_symmetry_Int_Tables_number   1
_chemical_formula_structural   Dy4MnAlFeCo2Si7
_chemical_formula_sum   'Dy4 Mn1 Al1 Fe1 Co2 Si7'
_cell_volume   295.62807503
_cell_formula_units_Z   1
loop_
 _symmetry_equiv_pos_site_id
 _symmetry_equiv_pos_as_xyz
  1  'x, y, z'
loop_
 _atom_site_type_symbol
 _atom_site_label
 _atom_site_symmetry_multiplicity
 _atom_site_fract_x
 _atom_site_fract_y
 _atom_site_fract_z
 _atom_site_occupancy
  Dy  Dy0  1  0.36335702  0.72671400  0.74999999  1
  Dy  Dy1  1  0.63664300  0.27328600  0.25000000  1
  Dy  Dy2  1  0.07892200  0.15784400  0.88771299  1
  Dy  Dy3  1  0.92107802  0.84215600  0.11228700  1
  Al  Al4  1  0.92107802  0.84215600  0.38771300  1
  Mn  Mn5  1  0.07892200  0.15784400  0.61228699  1
  Fe  Fe6  1  0.21544701  0.43089400  0.41954600  1
  Co  Co7  1  0.78455301  0.56910600  0.58045399  1
  Co  Co8  1  0.78455301  0.56910600  0.91954599  1
  Si  Si9  1  0.21544701  0.43089400  0.08045400  1
  Si  Si10  1  0.67449001  0.34898000  0.74999999  1
  Si  Si11  1  0.32551002  0.65102000  0.25000000  1
  Si  Si12  1  0.37250902  0.74501800  0.95997499  1
  Si  Si13  1  0.62749100  0.25498200  0.04002500  1
  Si  Si14  1  0.62749100  0.25498200  0.45997500  1
  Si  Si15  1  0.37250902  0.74501800  0.54002499  1
