# generated using pymatgen
data_CeYZnAg2
_symmetry_space_group_name_H-M   'P 1'
_cell_length_a   4.34455109
_cell_length_b   4.34455109
_cell_length_c   6.47963524
_cell_angle_alpha   109.58753967
_cell_angle_beta   109.58753204
_cell_angle_gamma   90.00000000
_symmetry_Int_Tables_number   1
_chemical_formula_structural   CeYZnAg2
_chemical_formula_sum   'Ce1 Y1 Zn1 Ag2'
_cell_volume   107.68437488
_cell_formula_units_Z   1
loop_
 _symmetry_equiv_pos_site_id
 _symmetry_equiv_pos_as_xyz
  1  'x, y, z'
loop_
 _atom_site_type_symbol
 _atom_site_label
 _atom_site_symmetry_multiplicity
 _atom_site_fract_x
 _atom_site_fract_y
 _atom_site_fract_z
 _atom_site_occupancy
  Ce  Ce0  1  0.00000000  0.00000000  0.00000000  1
  Y  Y1  1  0.75000001  0.25000000  0.50000003  1
  Zn  Zn2  1  0.39037102  0.39037200  0.78074301  1
  Ag  Ag3  1  0.60962903  0.60962800  0.21925704  1
  Ag  Ag4  1  0.25000003  0.75000000  0.50000002  1
