# generated using pymatgen
data_Tb2Ni2Sn
_symmetry_space_group_name_H-M   'P 1'
_cell_length_a   3.72437811
_cell_length_b   7.26582623
_cell_length_c   7.26582623
_cell_angle_alpha   90.00000000
_cell_angle_beta   90.00000000
_cell_angle_gamma   90.00000000
_symmetry_Int_Tables_number   1
_chemical_formula_structural   Tb2Ni2Sn
_chemical_formula_sum   'Tb4 Ni4 Sn2'
_cell_volume   196.61822848
_cell_formula_units_Z   2
loop_
 _symmetry_equiv_pos_site_id
 _symmetry_equiv_pos_as_xyz
  1  'x, y, z'
loop_
 _atom_site_type_symbol
 _atom_site_label
 _atom_site_symmetry_multiplicity
 _atom_site_fract_x
 _atom_site_fract_y
 _atom_site_fract_z
 _atom_site_occupancy
  Tb  Tb0  1  0.49999999  0.67572898  0.17572899  1
  Tb  Tb1  1  0.49999999  0.32427099  0.82427097  1
  Tb  Tb2  1  0.49999999  0.17572899  0.32427099  1
  Tb  Tb3  1  0.49999999  0.82427097  0.67572898  1
  Ni  Ni4  1  0.00000000  0.88004897  0.38004899  1
  Ni  Ni5  1  0.00000000  0.11995100  0.61995098  1
  Ni  Ni6  1  0.00000000  0.38004899  0.11995100  1
  Ni  Ni7  1  0.00000000  0.61995098  0.88004897  1
  Sn  Sn8  1  0.00000000  0.49999998  0.49999998  1
  Sn  Sn9  1  0.00000000  0.00000000  0.00000000  1
