# generated using pymatgen
data_CeGaGePd2
_symmetry_space_group_name_H-M   'P 1'
_cell_length_a   4.27777576
_cell_length_b   4.27777576
_cell_length_c   6.06940746
_cell_angle_alpha   110.63446808
_cell_angle_beta   110.63446808
_cell_angle_gamma   90.00000000
_symmetry_Int_Tables_number   1
_chemical_formula_structural   CeGaGePd2
_chemical_formula_sum   'Ce1 Ga1 Ge1 Pd2'
_cell_volume   96.29018590
_cell_formula_units_Z   1
loop_
 _symmetry_equiv_pos_site_id
 _symmetry_equiv_pos_as_xyz
  1  'x, y, z'
loop_
 _atom_site_type_symbol
 _atom_site_label
 _atom_site_symmetry_multiplicity
 _atom_site_fract_x
 _atom_site_fract_y
 _atom_site_fract_z
 _atom_site_occupancy
  Ce  Ce0  1  0.00000000  0.00000000  0.00000000  1
  Ga  Ga1  1  0.60814700  0.60814702  0.21629395  1
  Ge  Ge2  1  0.39185300  0.39185301  0.78370596  1
  Pd  Pd3  1  0.24999998  0.75000002  0.49999995  1
  Pd  Pd4  1  0.75000002  0.25000001  0.49999996  1
