# generated using pymatgen
data_Zr4Fe(BRh2)5
_symmetry_space_group_name_H-M   'P 1'
_cell_length_a   3.13392901
_cell_length_b   9.24687672
_cell_length_c   9.24687672
_cell_angle_alpha   90.00000000
_cell_angle_beta   90.00000000
_cell_angle_gamma   90.00000000
_symmetry_Int_Tables_number   1
_chemical_formula_structural   Zr4Fe(BRh2)5
_chemical_formula_sum   'Zr4 Fe1 B5 Rh10'
_cell_volume   267.96575110
_cell_formula_units_Z   1
loop_
 _symmetry_equiv_pos_site_id
 _symmetry_equiv_pos_as_xyz
  1  'x, y, z'
loop_
 _atom_site_type_symbol
 _atom_site_label
 _atom_site_symmetry_multiplicity
 _atom_site_fract_x
 _atom_site_fract_y
 _atom_site_fract_z
 _atom_site_occupancy
  Zr  Zr0  1  0.00000000  0.17536001  0.67536002  1
  Zr  Zr1  1  0.00000000  0.67536002  0.82464003  1
  Zr  Zr2  1  0.00000000  0.32464001  0.17536001  1
  Zr  Zr3  1  1.00000000  0.82464003  0.32464001  1
  B  B4  1  0.00000000  0.00000000  0.00000000  1
  Fe  Fe5  1  0.00000000  0.50000002  0.50000002  1
  B  B6  1  0.00000000  0.37648701  0.87648703  1
  B  B7  1  1.00000000  0.87648703  0.62351302  1
  B  B8  1  0.00000000  0.12351300  0.37648701  1
  B  B9  1  0.00000000  0.62351302  0.12351300  1
  Rh  Rh10  1  0.50000000  0.00000000  0.50000002  1
  Rh  Rh11  1  0.50000000  0.50000002  0.00000000  1
  Rh  Rh12  1  0.50000000  0.28772201  0.42984601  1
  Rh  Rh13  1  0.50000000  0.71227902  0.57015402  1
  Rh  Rh14  1  0.50000000  0.57015402  0.28772201  1
  Rh  Rh15  1  0.50000000  0.42984601  0.71227902  1
  Rh  Rh16  1  0.50000000  0.92984603  0.78772102  1
  Rh  Rh17  1  0.50000000  0.78772102  0.07015400  1
  Rh  Rh18  1  0.50000000  0.21227801  0.92984603  1
  Rh  Rh19  1  0.50000000  0.07015400  0.21227801  1
