# generated using pymatgen
data_Dy2Al3Co
_symmetry_space_group_name_H-M   'P 1'
_cell_length_a   5.22722673
_cell_length_b   5.22722673
_cell_length_c   5.22722673
_cell_angle_alpha   60.42902756
_cell_angle_beta   60.42902756
_cell_angle_gamma   60.42903519
_symmetry_Int_Tables_number   1
_chemical_formula_structural   Dy2Al3Co
_chemical_formula_sum   'Dy2 Al3 Co1'
_cell_volume   101.97450269
_cell_formula_units_Z   1
loop_
 _symmetry_equiv_pos_site_id
 _symmetry_equiv_pos_as_xyz
  1  'x, y, z'
loop_
 _atom_site_type_symbol
 _atom_site_label
 _atom_site_symmetry_multiplicity
 _atom_site_fract_x
 _atom_site_fract_y
 _atom_site_fract_z
 _atom_site_occupancy
  Dy  Dy0  1  0.37740600  0.37740601  0.37740599  1
  Dy  Dy1  1  0.62259399  0.62259401  0.62259398  1
  Al  Al2  1  0.00000000  0.00000000  0.00000000  1
  Al  Al3  1  0.50000000  0.00000000  0.99999996  1
  Al  Al4  1  -0.00000001  0.50000001  0.00000000  1
  Co  Co5  1  0.00000000  0.00000000  0.49999998  1
