# generated using pymatgen
data_ZnCu2
_symmetry_space_group_name_H-M   'P 1'
_cell_length_a   2.80670190
_cell_length_b   3.96851802
_cell_length_c   4.83953476
_cell_angle_alpha   114.20548248
_cell_angle_beta   106.85654449
_cell_angle_gamma   90.00000000
_symmetry_Int_Tables_number   1
_chemical_formula_structural   ZnCu2
_chemical_formula_sum   'Zn1 Cu2'
_cell_volume   46.61465824
_cell_formula_units_Z   1
loop_
 _symmetry_equiv_pos_site_id
 _symmetry_equiv_pos_as_xyz
  1  'x, y, z'
loop_
 _atom_site_type_symbol
 _atom_site_label
 _atom_site_symmetry_multiplicity
 _atom_site_fract_x
 _atom_site_fract_y
 _atom_site_fract_z
 _atom_site_occupancy
  Zn  Zn0  1  0.33700901  0.33700900  0.67401798  1
  Cu  Cu1  1  0.66299102  0.66299100  0.32598200  1
  Cu  Cu2  1  0.00000000  0.00000000  0.00000000  1
