# generated using pymatgen
data_Y4Co7Sb4
_symmetry_space_group_name_H-M   'P 1'
_cell_length_a   6.40508223
_cell_length_b   6.40508223
_cell_length_c   6.40508223
_cell_angle_alpha   90.00000000
_cell_angle_beta   90.00000000
_cell_angle_gamma   90.00000000
_symmetry_Int_Tables_number   1
_chemical_formula_structural   Y4Co7Sb4
_chemical_formula_sum   'Y4 Co7 Sb4'
_cell_volume   262.76899995
_cell_formula_units_Z   1
loop_
 _symmetry_equiv_pos_site_id
 _symmetry_equiv_pos_as_xyz
  1  'x, y, z'
loop_
 _atom_site_type_symbol
 _atom_site_label
 _atom_site_symmetry_multiplicity
 _atom_site_fract_x
 _atom_site_fract_y
 _atom_site_fract_z
 _atom_site_occupancy
  Y  Y0  1  0.49999998  0.49999998  0.00000000  1
  Y  Y1  1  0.49999998  0.00000000  0.49999998  1
  Y  Y2  1  -0.00000000  0.49999998  0.49999998  1
  Y  Y3  1  0.49999998  0.49999998  0.49999998  1
  Co  Co4  1  0.21140099  0.21140099  0.78859897  1
  Co  Co5  1  0.21140099  0.78859897  0.21140099  1
  Co  Co6  1  0.78859897  0.21140099  0.21140099  1
  Co  Co7  1  0.78859897  0.78859897  0.78859897  1
  Co  Co8  1  0.78859897  0.78859897  0.21140099  1
  Co  Co9  1  0.78859897  0.21140099  0.78859897  1
  Sb  Sb10  1  0.21140099  0.78859897  0.78859897  1
  Co  Co11  1  0.21140099  0.21140099  0.21140099  1
  Sb  Sb12  1  0.00000000  0.00000000  0.49999998  1
  Sb  Sb13  1  -0.00000000  0.49999998  -0.00000000  1
  Sb  Sb14  1  0.49999998  0.00000000  0.00000000  1
