# generated using pymatgen
data_SrLaCu2O5
_symmetry_space_group_name_H-M   'P 1'
_cell_length_a   5.28875208
_cell_length_b   5.28875208
_cell_length_c   9.86869812
_cell_angle_alpha   105.54267120
_cell_angle_beta   105.54267120
_cell_angle_gamma   90.00000000
_symmetry_Int_Tables_number   1
_chemical_formula_structural   SrLaCu2O5
_chemical_formula_sum   'Sr2 La2 Cu4 O10'
_cell_volume   255.44911846
_cell_formula_units_Z   2
loop_
 _symmetry_equiv_pos_site_id
 _symmetry_equiv_pos_as_xyz
  1  'x, y, z'
loop_
 _atom_site_type_symbol
 _atom_site_label
 _atom_site_symmetry_multiplicity
 _atom_site_fract_x
 _atom_site_fract_y
 _atom_site_fract_z
 _atom_site_occupancy
  Sr  Sr0  1  0.35202703  0.85202700  0.70405404  1
  Sr  Sr1  1  0.85202701  0.35202700  0.70405404  1
  La  La2  1  0.14797302  0.64797300  0.29594603  1
  La  La3  1  0.64797301  0.14797300  0.29594602  1
  Cu  Cu4  1  0.50000002  0.50000000  0.00000003  1
  Cu  Cu5  1  0.75285503  0.75285500  0.50571005  1
  Cu  Cu6  1  0.24714501  0.24714500  0.49429001  1
  Cu  Cu7  1  0.00000000  0.00000000  0.00000000  1
  O  O8  1  0.00000002  0.50000000  0.50000002  1
  O  O9  1  0.50000000  0.00000000  0.50000001  1
  O  O10  1  0.00000000  0.00000000  0.50000000  1
  O  O11  1  0.50000002  0.50000000  0.50000003  1
  O  O12  1  0.87959303  0.87959300  0.75918606  1
  O  O13  1  0.38594801  0.38594800  0.77189602  1
  O  O14  1  0.61405202  0.61405200  0.22810404  1
  O  O15  1  0.12040700  0.12040700  0.24081401  1
  O  O16  1  0.00000002  0.50000000  1.00000001  1
  O  O17  1  0.50000000  0.00000000  0.00000002  1
