# generated using pymatgen
data_DyYCo14Ru3
_symmetry_space_group_name_H-M   'P 1'
_cell_length_a   6.82710838
_cell_length_b   6.82710838
_cell_length_c   6.82710838
_cell_angle_alpha   83.25347137
_cell_angle_beta   83.25347137
_cell_angle_gamma   83.25347137
_symmetry_Int_Tables_number   1
_chemical_formula_structural   DyYCo14Ru3
_chemical_formula_sum   'Dy1 Y1 Co14 Ru3'
_cell_volume   312.07701506
_cell_formula_units_Z   1
loop_
 _symmetry_equiv_pos_site_id
 _symmetry_equiv_pos_as_xyz
  1  'x, y, z'
loop_
 _atom_site_type_symbol
 _atom_site_label
 _atom_site_symmetry_multiplicity
 _atom_site_fract_x
 _atom_site_fract_y
 _atom_site_fract_z
 _atom_site_occupancy
  Dy  Dy0  1  0.33698301  0.33698300  0.33698296  1
  Y  Y1  1  0.66301701  0.66301701  0.66301692  1
  Co  Co2  1  0.00000000  0.00000000  0.49999999  1
  Co  Co3  1  0.00000001  0.50000000  -0.00000003  1
  Co  Co4  1  0.50000000  0.00000000  -0.00000003  1
  Co  Co5  1  0.70082301  0.29917700  -0.00000005  1
  Co  Co6  1  0.29917700  0.00000000  0.70082297  1
  Co  Co7  1  0.00000001  0.70082301  0.29917696  1
  Co  Co8  1  0.70082302  1.00000001  0.29917691  1
  Co  Co9  1  0.00000000  0.29917700  0.70082297  1
  Co  Co10  1  0.29917701  0.70082301  -0.00000005  1
  Co  Co11  1  0.64950301  0.64950301  0.16181093  1
  Co  Co12  1  0.64950301  0.16181100  0.64950294  1
  Co  Co13  1  0.16181101  0.64950301  0.64950294  1
  Co  Co14  1  0.35049701  0.35049700  0.83818895  1
  Ru  Ru15  1  0.35049701  0.83818901  0.35049693  1
  Ru  Ru16  1  0.83818901  0.35049700  0.35049693  1
  Co  Co17  1  0.10387900  0.10387900  0.10387899  1
  Ru  Ru18  1  0.89612102  0.89612101  0.89612089  1
