# generated using pymatgen
data_Sr2Bi2SeO3
_symmetry_space_group_name_H-M   'P 1'
_cell_length_a   5.66955185
_cell_length_b   6.06442690
_cell_length_c   10.15822411
_cell_angle_alpha   90.00000000
_cell_angle_beta   90.00000000
_cell_angle_gamma   90.00000000
_symmetry_Int_Tables_number   1
_chemical_formula_structural   Sr2Bi2SeO3
_chemical_formula_sum   'Sr4 Bi4 Se2 O6'
_cell_volume   349.26598081
_cell_formula_units_Z   2
loop_
 _symmetry_equiv_pos_site_id
 _symmetry_equiv_pos_as_xyz
  1  'x, y, z'
loop_
 _atom_site_type_symbol
 _atom_site_label
 _atom_site_symmetry_multiplicity
 _atom_site_fract_x
 _atom_site_fract_y
 _atom_site_fract_z
 _atom_site_occupancy
  Sr  Sr0  1  0.84524102  0.33598401  0.71552099  1
  Sr  Sr1  1  0.34524101  0.16401600  0.28447900  1
  Sr  Sr2  1  0.15475900  0.83598401  0.78447899  1
  Sr  Sr3  1  0.65475902  0.66401601  0.21552100  1
  Bi  Bi4  1  0.11578300  0.61471401  0.41791800  1
  Bi  Bi5  1  0.61578302  0.88528601  0.58208199  1
  Bi  Bi6  1  0.88421702  0.11471400  0.08208200  1
  Bi  Bi7  1  0.38421701  0.38528601  0.91791799  1
  O  O8  1  0.61285702  0.44207101  0.46544500  1
  Se  Se9  1  0.11285700  0.05792900  0.53455499  1
  Se  Se10  1  0.38714301  0.94207102  0.03455500  1
  O  O11  1  0.88714302  0.55792901  0.96544499  1
  O  O12  1  0.34740501  0.32089401  0.61555099  1
  O  O13  1  0.84740502  0.17910600  0.38444900  1
  O  O14  1  0.65259502  0.82089401  0.88444899  1
  O  O15  1  0.15259500  0.67910601  0.11555100  1
