# generated using pymatgen
data_Sr3FeO4
_symmetry_space_group_name_H-M   'P 1'
_cell_length_a   6.48639393
_cell_length_b   7.07439661
_cell_length_c   8.24570847
_cell_angle_alpha   95.00523376
_cell_angle_beta   113.16120148
_cell_angle_gamma   90.00000000
_symmetry_Int_Tables_number   1
_chemical_formula_structural   Sr3FeO4
_chemical_formula_sum   'Sr6 Fe2 O8'
_cell_volume   346.30742787
_cell_formula_units_Z   2
loop_
 _symmetry_equiv_pos_site_id
 _symmetry_equiv_pos_as_xyz
  1  'x, y, z'
loop_
 _atom_site_type_symbol
 _atom_site_label
 _atom_site_symmetry_multiplicity
 _atom_site_fract_x
 _atom_site_fract_y
 _atom_site_fract_z
 _atom_site_occupancy
  Sr  Sr0  1  0.50000001  0.00000000  0.50000001  1
  Sr  Sr1  1  -0.00000001  0.50000001  0.49999997  1
  Sr  Sr2  1  0.33085500  0.56922601  0.20606898  1
  Sr  Sr3  1  0.87521402  0.06922600  0.20606902  1
  Sr  Sr4  1  0.66914501  0.43077401  0.79393099  1
  Sr  Sr5  1  0.12478598  0.93077402  0.79393095  1
  Fe  Fe6  1  0.70817301  0.42346801  0.18119600  1
  Fe  Fe7  1  0.06432600  0.25000001  -0.00000001  1
  O  O8  1  0.93567401  0.75000002  -0.00000001  1
  O  O9  1  0.29191200  0.31767601  0.43748499  1
  O  O10  1  0.70808800  0.68232402  0.56251498  1
  O  O11  1  0.14557299  0.81767602  0.43748496  1
  O  O12  1  0.85442702  0.18232400  0.56251501  1
  O  O13  1  0.29182699  0.57653202  0.81880397  1
  O  O14  1  0.47302299  0.92346802  0.18119597  1
  O  O15  1  0.52697701  0.07653200  0.81880400  1
