# generated using pymatgen
data_La2MnFeO6
_symmetry_space_group_name_H-M   'P 1'
_cell_length_a   5.50477505
_cell_length_b   5.73031569
_cell_length_c   7.98621941
_cell_angle_alpha   89.80294800
_cell_angle_beta   89.89012146
_cell_angle_gamma   89.27278137
_symmetry_Int_Tables_number   1
_chemical_formula_structural   La2MnFeO6
_chemical_formula_sum   'La4 Mn2 Fe2 O12'
_cell_volume   251.89587057
_cell_formula_units_Z   2
loop_
 _symmetry_equiv_pos_site_id
 _symmetry_equiv_pos_as_xyz
  1  'x, y, z'
loop_
 _atom_site_type_symbol
 _atom_site_label
 _atom_site_symmetry_multiplicity
 _atom_site_fract_x
 _atom_site_fract_y
 _atom_site_fract_z
 _atom_site_occupancy
  La  La0  1  0.00990000  0.04819300  0.75174399  1
  La  La1  1  0.51381697  0.44420699  0.24938702  1
  La  La2  1  0.48618297  0.55579299  0.75061301  1
  La  La3  1  0.99009994  0.95180698  0.24825604  1
  Mn  Mn4  1  0.50000000  0.00000000  0.00000002  1
  Mn  Mn5  1  -0.00000002  0.49999999  -0.00000000  1
  Fe  Fe6  1  -0.00000002  0.49999999  0.49999999  1
  Fe  Fe7  1  0.50000000  0.00000000  0.50000001  1
  O  O8  1  0.28847298  0.30973499  0.54775300  1
  O  O9  1  0.81007398  0.20899400  0.44318603  1
  O  O10  1  0.19339196  0.79377898  0.94759799  1
  O  O11  1  0.69847796  0.69989899  0.05612603  1
  O  O12  1  0.71152696  0.69026499  0.45224702  1
  O  O13  1  0.18992596  0.79100598  0.55681400  1
  O  O14  1  0.80660798  0.20622100  0.05240203  1
  O  O15  1  0.30152198  0.30010099  0.94387400  1
  O  O16  1  0.89804597  0.45826099  0.74471302  1
  O  O17  1  0.39842199  0.03986800  0.24296401  1
  O  O18  1  0.60157795  0.96013198  0.75703601  1
  O  O19  1  0.10195397  0.54173899  0.25528700  1
