# generated using pymatgen
data_BaPaS2
_symmetry_space_group_name_H-M   'P 1'
_cell_length_a   4.02893400
_cell_length_b   4.02893400
_cell_length_c   8.34884548
_cell_angle_alpha   76.03749084
_cell_angle_beta   76.03749084
_cell_angle_gamma   60.00000000
_symmetry_Int_Tables_number   1
_chemical_formula_structural   BaPaS2
_chemical_formula_sum   'Ba1 Pa1 S2'
_cell_volume   112.71738970
_cell_formula_units_Z   1
loop_
 _symmetry_equiv_pos_site_id
 _symmetry_equiv_pos_as_xyz
  1  'x, y, z'
loop_
 _atom_site_type_symbol
 _atom_site_label
 _atom_site_symmetry_multiplicity
 _atom_site_fract_x
 _atom_site_fract_y
 _atom_site_fract_z
 _atom_site_occupancy
  Ba  Ba0  1  0.00000000  0.00000000  0.00000000  1
  Pa  Pa1  1  0.50000000  0.50000000  0.49999998  1
  S  S2  1  0.77359000  0.77359000  0.67922997  1
  S  S3  1  0.22641000  0.22641000  0.32076999  1
