# generated using pymatgen
data_Ti4FeC3
_symmetry_space_group_name_H-M   'P 1'
_cell_length_a   2.89196396
_cell_length_b   2.89196372
_cell_length_c   12.93831730
_cell_angle_alpha   90.00000000
_cell_angle_beta   90.00000000
_cell_angle_gamma   120.00000000
_symmetry_Int_Tables_number   1
_chemical_formula_structural   Ti4FeC3
_chemical_formula_sum   'Ti4 Fe1 C3'
_cell_volume   93.71177111
_cell_formula_units_Z   1
loop_
 _symmetry_equiv_pos_site_id
 _symmetry_equiv_pos_as_xyz
  1  'x, y, z'
loop_
 _atom_site_type_symbol
 _atom_site_label
 _atom_site_symmetry_multiplicity
 _atom_site_fract_x
 _atom_site_fract_y
 _atom_site_fract_z
 _atom_site_occupancy
  Ti  Ti0  1  0.33333330  0.66666665  0.41438399  1
  Ti  Ti1  1  0.33333330  0.66666665  0.75440798  1
  Ti  Ti2  1  0.66666666  0.33333333  0.23735799  1
  Ti  Ti3  1  0.66666666  0.33333333  0.59038599  1
  Fe  Fe4  1  0.66666666  0.33333333  0.91640998  1
  C  C5  1  0.33333330  0.66666665  0.07869800  1
  C  C6  1  0.00000000  0.00000000  0.51047899  1
  C  C7  1  0.00000000  0.00000000  0.99787698  1
