# generated using pymatgen
data_LiMnO2
_symmetry_space_group_name_H-M   'P 1'
_cell_length_a   3.92425609
_cell_length_b   5.42324686
_cell_length_c   9.92997169
_cell_angle_alpha   92.25105286
_cell_angle_beta   90.00000000
_cell_angle_gamma   111.21075439
_symmetry_Int_Tables_number   1
_chemical_formula_structural   LiMnO2
_chemical_formula_sum   'Li4 Mn4 O8'
_cell_volume   196.84031884
_cell_formula_units_Z   4
loop_
 _symmetry_equiv_pos_site_id
 _symmetry_equiv_pos_as_xyz
  1  'x, y, z'
loop_
 _atom_site_type_symbol
 _atom_site_label
 _atom_site_symmetry_multiplicity
 _atom_site_fract_x
 _atom_site_fract_y
 _atom_site_fract_z
 _atom_site_occupancy
  Li  Li0  1  0.30336205  0.60672401  0.23268698  1
  Li  Li1  1  0.63034401  0.26068800  0.07028299  1
  Li  Li2  1  0.36565306  0.73130601  0.58448697  1
  Li  Li3  1  0.34650206  0.69300401  0.93341996  1
  Mn  Mn4  1  0.69784502  0.39569000  0.74975397  1
  Mn  Mn5  1  0.63651001  0.27302000  0.43911098  1
  Mn  Mn6  1  0.24976404  0.49952801  0.75420597  1
  Mn  Mn7  1  0.56428800  0.12857600  0.60903798  1
  O  O8  1  0.81898904  0.63797801  0.90661896  1
  O  O9  1  0.81583004  0.63166001  0.59071297  1
  O  O10  1  0.44316607  0.88633201  0.10488098  1
  O  O11  1  0.17738903  0.35477800  0.44127698  1
  O  O12  1  0.43775607  0.87551201  0.38603097  1
  O  O13  1  0.18555803  0.37111600  0.06522299  1
  O  O14  1  0.72009302  0.44018601  0.26699198  1
  O  O15  1  0.55077600  0.10155200  0.86890698  1
