# generated using pymatgen
data_Zn3FeAs6P7
_symmetry_space_group_name_H-M   'P 1'
_cell_length_a   7.04214287
_cell_length_b   7.04214287
_cell_length_c   7.04214287
_cell_angle_alpha   109.47122192
_cell_angle_beta   109.47122192
_cell_angle_gamma   109.47122192
_symmetry_Int_Tables_number   1
_chemical_formula_structural   Zn3FeAs6P7
_chemical_formula_sum   'Zn3 Fe1 As6 P7'
_cell_volume   268.83919317
_cell_formula_units_Z   1
loop_
 _symmetry_equiv_pos_site_id
 _symmetry_equiv_pos_as_xyz
  1  'x, y, z'
loop_
 _atom_site_type_symbol
 _atom_site_label
 _atom_site_symmetry_multiplicity
 _atom_site_fract_x
 _atom_site_fract_y
 _atom_site_fract_z
 _atom_site_occupancy
  Fe  Fe0  1  0.00000000  0.00000000  0.00000000  1
  Zn  Zn1  1  0.14319902  0.35692901  0.50012801  1
  As  As2  1  0.85680103  0.64307101  0.49987205  1
  Zn  Zn3  1  0.14319904  0.64307101  0.78627002  1
  Zn  Zn4  1  0.85680101  0.35692901  0.21373004  1
  As  As5  1  0.64307102  0.49987201  0.85680103  1
  As  As6  1  0.35692903  0.50012801  0.14319903  1
  As  As7  1  0.35692901  0.21373000  0.85680100  1
  As  As8  1  0.64307104  0.78627002  0.14319906  1
  P  P9  1  0.78627000  0.14319900  0.64307101  1
  P  P10  1  0.21373005  0.85680102  0.35692905  1
  As  As11  1  0.50012800  0.14319900  0.35692901  1
  P  P12  1  0.49987205  0.85680102  0.64307105  1
  P  P13  1  0.50000003  0.50000001  0.50000003  1
  P  P14  1  0.00000000  0.00000000  0.49999999  1
  P  P15  1  0.00000003  0.50000001  0.00000003  1
  P  P16  1  0.49999999  0.00000000  0.00000001  1
