# generated using pymatgen
data_Na2FeO4
_symmetry_space_group_name_H-M   'P 1'
_cell_length_a   5.49862814
_cell_length_b   5.52577782
_cell_length_c   6.71531725
_cell_angle_alpha   90.00000000
_cell_angle_beta   114.16773987
_cell_angle_gamma   90.00000000
_symmetry_Int_Tables_number   1
_chemical_formula_structural   Na2FeO4
_chemical_formula_sum   'Na4 Fe2 O8'
_cell_volume   186.15561904
_cell_formula_units_Z   2
loop_
 _symmetry_equiv_pos_site_id
 _symmetry_equiv_pos_as_xyz
  1  'x, y, z'
loop_
 _atom_site_type_symbol
 _atom_site_label
 _atom_site_symmetry_multiplicity
 _atom_site_fract_x
 _atom_site_fract_y
 _atom_site_fract_z
 _atom_site_occupancy
  Na  Na0  1  0.64474499  0.00000000  0.28949001  1
  Na  Na1  1  0.35644399  0.00000000  0.71288801  1
  Na  Na2  1  0.85423598  0.50000002  0.70847201  1
  Na  Na3  1  0.13369000  0.50000002  0.26738000  1
  Fe  Fe4  1  0.50006899  0.50000002  0.00013800  1
  Fe  Fe5  1  0.00032300  0.00000000  0.00064600  1
  O  O6  1  0.25010799  0.26119101  0.01261200  1
  O  O7  1  0.76250398  0.73880902  0.01261201  1
  O  O8  1  0.76250398  0.26119101  0.01261201  1
  O  O9  1  0.25010799  0.73880902  0.01261200  1
  O  O10  1  0.84288198  0.00000000  0.68576401  1
  O  O11  1  0.32210399  0.50000002  0.64420801  1
  O  O12  1  0.65928899  0.50000002  0.31857801  1
  O  O13  1  0.16099500  0.00000000  0.32199000  1
