# generated using pymatgen
data_Nb2S3
_symmetry_space_group_name_H-M   'P 1'
_cell_length_a   6.46268892
_cell_length_b   6.73775387
_cell_length_c   6.73775387
_cell_angle_alpha   120.00000000
_cell_angle_beta   90.00000000
_cell_angle_gamma   90.00000000
_symmetry_Int_Tables_number   1
_chemical_formula_structural   Nb2S3
_chemical_formula_sum   'Nb6 S9'
_cell_volume   254.08215705
_cell_formula_units_Z   3
loop_
 _symmetry_equiv_pos_site_id
 _symmetry_equiv_pos_as_xyz
  1  'x, y, z'
loop_
 _atom_site_type_symbol
 _atom_site_label
 _atom_site_symmetry_multiplicity
 _atom_site_fract_x
 _atom_site_fract_y
 _atom_site_fract_z
 _atom_site_occupancy
  Nb  Nb0  1  0.49981701  0.85369501  0.14630499  1
  Nb  Nb1  1  0.49981701  0.85369501  0.70738999  1
  Nb  Nb2  1  0.49981701  0.29261000  0.14630500  1
  Nb  Nb3  1  0.99731501  0.81276201  0.18723799  1
  Nb  Nb4  1  0.99731501  0.81276201  0.62552399  1
  Nb  Nb5  1  0.99731501  0.37447601  0.18723800  1
  S  S6  1  0.49526301  0.33333334  0.66666667  1
  S  S7  1  0.78116901  0.00000000  -0.00000000  1
  S  S8  1  0.28006900  0.66666668  0.33333333  1
  S  S9  1  0.74735701  0.49449801  0.98899600  1
  S  S10  1  0.74735701  0.01100400  0.50550200  1
  S  S11  1  0.74735701  0.49449801  0.50550200  1
  S  S12  1  0.23677300  0.16975300  0.33950600  1
  S  S13  1  0.23677300  0.66049501  0.83024800  1
  S  S14  1  0.23677300  0.16975300  0.83024800  1
