# generated using pymatgen
data_InCo3
_symmetry_space_group_name_H-M   'P 1'
_cell_length_a   5.52899504
_cell_length_b   5.52899504
_cell_length_c   5.52899504
_cell_angle_alpha   60.00000000
_cell_angle_beta   60.00000000
_cell_angle_gamma   60.00000000
_symmetry_Int_Tables_number   1
_chemical_formula_structural   InCo3
_chemical_formula_sum   'In2 Co6'
_cell_volume   119.51532657
_cell_formula_units_Z   2
loop_
 _symmetry_equiv_pos_site_id
 _symmetry_equiv_pos_as_xyz
  1  'x, y, z'
loop_
 _atom_site_type_symbol
 _atom_site_label
 _atom_site_symmetry_multiplicity
 _atom_site_fract_x
 _atom_site_fract_y
 _atom_site_fract_z
 _atom_site_occupancy
  In  In0  1  0.50000001  0.50000001  -0.00000000  1
  Co  Co1  1  1.00000003  0.50000001  0.50000001  1
  Co  Co2  1  1.00000003  0.50000001  -0.00000000  1
  Co  Co3  1  -0.00000000  0.00000000  0.50000001  1
  Co  Co4  1  0.50000001  0.00000000  -0.00000000  1
  Co  Co5  1  0.50000001  0.00000000  0.50000001  1
  Co  Co6  1  0.50000001  0.50000001  0.50000001  1
  In  In7  1  0.00000000  0.00000000  0.00000000  1
