# generated using pymatgen
data_KNa2ClF8
_symmetry_space_group_name_H-M   'P 1'
_cell_length_a   5.90102816
_cell_length_b   6.95001602
_cell_length_c   6.99474239
_cell_angle_alpha   60.21129608
_cell_angle_beta   90.00000000
_cell_angle_gamma   90.00000000
_symmetry_Int_Tables_number   1
_chemical_formula_structural   KNa2ClF8
_chemical_formula_sum   'K1 Na2 Cl1 F8'
_cell_volume   248.96402646
_cell_formula_units_Z   1
loop_
 _symmetry_equiv_pos_site_id
 _symmetry_equiv_pos_as_xyz
  1  'x, y, z'
loop_
 _atom_site_type_symbol
 _atom_site_label
 _atom_site_symmetry_multiplicity
 _atom_site_fract_x
 _atom_site_fract_y
 _atom_site_fract_z
 _atom_site_occupancy
  Na  Na0  1  0.70474998  0.29309700  0.99999999  1
  K  K1  1  0.20474999  0.70690300  -0.00000001  1
  Na  Na2  1  0.99995797  0.57614700  0.75956499  1
  Cl  Cl3  1  0.49995799  0.42385300  0.24043499  1
  F  F4  1  0.02064600  0.05324600  -0.00000000  1
  F  F5  1  0.52064599  0.94675400  -0.00000001  1
  F  F6  1  0.99995797  0.33571200  0.24043499  1
  F  F7  1  0.49995799  0.66428800  0.75956499  1
  F  F8  1  0.30734399  0.34315800  0.64169399  1
  F  F9  1  0.80734398  0.65684200  0.35830599  1
  F  F10  1  0.80734398  0.01514800  0.64169399  1
  F  F11  1  0.30734399  0.98485200  0.35830599  1
