# generated using pymatgen
data_LuI3
_symmetry_space_group_name_H-M   'P 1'
_cell_length_a   3.97806692
_cell_length_b   11.75706768
_cell_length_c   11.75706768
_cell_angle_alpha   120.00000000
_cell_angle_beta   90.00000000
_cell_angle_gamma   90.00000000
_symmetry_Int_Tables_number   1
_chemical_formula_structural   LuI3
_chemical_formula_sum   'Lu2 I6'
_cell_volume   476.21245841
_cell_formula_units_Z   2
loop_
 _symmetry_equiv_pos_site_id
 _symmetry_equiv_pos_as_xyz
  1  'x, y, z'
loop_
 _atom_site_type_symbol
 _atom_site_label
 _atom_site_symmetry_multiplicity
 _atom_site_fract_x
 _atom_site_fract_y
 _atom_site_fract_z
 _atom_site_occupancy
  Lu  Lu0  1  0.25000000  0.66666668  0.33333331  1
  Lu  Lu1  1  0.75000001  0.33333334  0.66666665  1
  I  I2  1  0.75000001  0.78012201  0.21987798  1
  I  I3  1  0.75000001  0.43975601  0.21987798  1
  I  I4  1  0.75000001  0.78012201  0.56024397  1
  I  I5  1  0.25000000  0.21987800  0.78012198  1
  I  I6  1  0.25000000  0.56024401  0.78012197  1
  I  I7  1  0.25000000  0.21987800  0.43975599  1
