# generated using pymatgen
data_Dy4Ge9
_symmetry_space_group_name_H-M   'P 1'
_cell_length_a   4.38600588
_cell_length_b   4.39037514
_cell_length_c   16.91011620
_cell_angle_alpha   90.00000000
_cell_angle_beta   90.00000000
_cell_angle_gamma   90.00000000
_symmetry_Int_Tables_number   1
_chemical_formula_structural   Dy4Ge9
_chemical_formula_sum   'Dy4 Ge9'
_cell_volume   325.62476822
_cell_formula_units_Z   1
loop_
 _symmetry_equiv_pos_site_id
 _symmetry_equiv_pos_as_xyz
  1  'x, y, z'
loop_
 _atom_site_type_symbol
 _atom_site_label
 _atom_site_symmetry_multiplicity
 _atom_site_fract_x
 _atom_site_fract_y
 _atom_site_fract_z
 _atom_site_occupancy
  Dy  Dy0  1  0.00000000  0.74999998  0.90444999  1
  Dy  Dy1  1  0.50000001  0.74999998  0.39806200  1
  Dy  Dy2  1  0.50000001  0.24999999  0.60400599  1
  Dy  Dy3  1  0.00000000  0.24999999  0.10115800  1
  Ge  Ge4  1  0.00000000  0.74999998  0.69084499  1
  Ge  Ge5  1  0.50000001  0.74999998  0.76635199  1
  Ge  Ge6  1  0.00000000  0.74999998  0.25498600  1
  Ge  Ge7  1  0.00000000  0.24999999  0.76456299  1
  Ge  Ge8  1  0.50000001  0.24999999  0.24526900  1
  Ge  Ge9  1  0.00000000  0.74999998  0.54535499  1
  Ge  Ge10  1  0.50000001  0.74999998  0.06582800  1
  Ge  Ge11  1  0.50000001  0.24999999  0.94292999  1
  Ge  Ge12  1  0.00000000  0.24999999  0.42819700  1
