# generated using pymatgen
data_Tl6BiI11
_symmetry_space_group_name_H-M   'P 1'
_cell_length_a   4.47934103
_cell_length_b   11.35474873
_cell_length_c   13.58908272
_cell_angle_alpha   93.35163116
_cell_angle_beta   90.00000000
_cell_angle_gamma   90.00000000
_symmetry_Int_Tables_number   1
_chemical_formula_structural   Tl6BiI11
_chemical_formula_sum   'Tl6 Bi1 I11'
_cell_volume   689.98288532
_cell_formula_units_Z   1
loop_
 _symmetry_equiv_pos_site_id
 _symmetry_equiv_pos_as_xyz
  1  'x, y, z'
loop_
 _atom_site_type_symbol
 _atom_site_label
 _atom_site_symmetry_multiplicity
 _atom_site_fract_x
 _atom_site_fract_y
 _atom_site_fract_z
 _atom_site_occupancy
  Bi  Bi0  1  0.74999999  0.87508902  0.47727201  1
  Tl  Tl1  1  0.25000000  0.12491100  0.52272800  1
  Tl  Tl2  1  0.74999999  0.80306902  0.69306701  1
  Tl  Tl3  1  0.25000000  0.19693100  0.30693300  1
  Tl  Tl4  1  0.74999999  0.02221400  0.24569900  1
  Tl  Tl5  1  0.25000000  0.97778602  0.75430101  1
  I  I6  1  0.74999999  0.22992201  0.79531800  1
  Tl  Tl7  1  0.25000000  0.77007802  0.20468201  1
  I  I8  1  0.74999999  0.58971301  0.14775701  1
  I  I9  1  0.25000000  0.41028701  0.85224300  1
  I  I10  1  0.74999999  0.30141501  0.58037600  1
  I  I11  1  0.25000000  0.69858502  0.41962401  1
  I  I12  1  0.74999999  0.08745600  0.02740500  1
  I  I13  1  0.25000000  0.91254402  0.97259501  1
  I  I14  1  0.74999999  0.45564101  0.34883700  1
  I  I15  1  0.25000000  0.54435901  0.65116300  1
  I  I16  1  0.74999999  0.65446802  0.92939000  1
  I  I17  1  0.25000000  0.34553201  0.07061001  1
