# generated using pymatgen
data_Sc4Ge13
_symmetry_space_group_name_H-M   'P 1'
_cell_length_a   6.78372431
_cell_length_b   6.78372431
_cell_length_c   6.78372431
_cell_angle_alpha   109.47122192
_cell_angle_beta   109.47122192
_cell_angle_gamma   109.47122192
_symmetry_Int_Tables_number   1
_chemical_formula_structural   Sc4Ge13
_chemical_formula_sum   'Sc4 Ge13'
_cell_volume   240.31598407
_cell_formula_units_Z   1
loop_
 _symmetry_equiv_pos_site_id
 _symmetry_equiv_pos_as_xyz
  1  'x, y, z'
loop_
 _atom_site_type_symbol
 _atom_site_label
 _atom_site_symmetry_multiplicity
 _atom_site_fract_x
 _atom_site_fract_y
 _atom_site_fract_z
 _atom_site_occupancy
  Sc  Sc0  1  0.50000006  1.00000003  0.00000007  1
  Sc  Sc1  1  0.50000003  0.50000001  0.50000003  1
  Sc  Sc2  1  1.00000003  0.50000001  0.00000005  1
  Sc  Sc3  1  0.00000000  0.00000000  0.49999999  1
  Ge  Ge4  1  0.75000003  0.50000001  0.25000004  1
  Ge  Ge5  1  0.25000005  0.75000002  0.50000004  1
  Ge  Ge6  1  0.50000004  0.75000002  0.25000005  1
  Ge  Ge7  1  0.75000001  0.25000001  0.50000002  1
  Ge  Ge8  1  0.25000003  0.50000001  0.75000002  1
  Ge  Ge9  1  0.50000001  0.25000001  0.75000001  1
  Ge  Ge10  1  0.00000000  0.00000000  0.00000000  1
  Ge  Ge11  1  0.68337100  0.00000000  0.68337101  1
  Ge  Ge12  1  0.68337104  0.68337102  0.00000005  1
  Ge  Ge13  1  1.00000001  0.31662901  0.31662904  1
  Ge  Ge14  1  0.31662906  1.00000003  0.31662906  1
  Ge  Ge15  1  0.31662902  0.31662901  1.00000001  1
  Ge  Ge16  1  0.00000004  0.68337102  0.68337103  1
