# generated using pymatgen
data_Sr(GaAu)2
_symmetry_space_group_name_H-M   'P 1'
_cell_length_a   4.46423388
_cell_length_b   4.46423388
_cell_length_c   6.44916153
_cell_angle_alpha   110.24954987
_cell_angle_beta   110.24954987
_cell_angle_gamma   90.00000000
_symmetry_Int_Tables_number   1
_chemical_formula_structural   Sr(GaAu)2
_chemical_formula_sum   'Sr1 Ga2 Au2'
_cell_volume   112.07862742
_cell_formula_units_Z   1
loop_
 _symmetry_equiv_pos_site_id
 _symmetry_equiv_pos_as_xyz
  1  'x, y, z'
loop_
 _atom_site_type_symbol
 _atom_site_label
 _atom_site_symmetry_multiplicity
 _atom_site_fract_x
 _atom_site_fract_y
 _atom_site_fract_z
 _atom_site_occupancy
  Sr  Sr0  1  0.00000000  0.00000000  0.00000000  1
  Ga  Ga1  1  0.25000004  0.75000004  0.50000004  1
  Ga  Ga2  1  0.75000004  0.25000001  0.50000003  1
  Au  Au3  1  0.38373003  0.38373002  0.76746003  1
  Au  Au4  1  0.61627005  0.61627003  0.23254004  1
