# generated using pymatgen
data_Li2CoSiO4
_symmetry_space_group_name_H-M   'P 1'
_cell_length_a   5.01487494
_cell_length_b   5.42283058
_cell_length_c   6.33575058
_cell_angle_alpha   90.01094055
_cell_angle_beta   90.52133179
_cell_angle_gamma   91.13325500
_symmetry_Int_Tables_number   1
_chemical_formula_structural   Li2CoSiO4
_chemical_formula_sum   'Li4 Co2 Si2 O8'
_cell_volume   172.25873420
_cell_formula_units_Z   2
loop_
 _symmetry_equiv_pos_site_id
 _symmetry_equiv_pos_as_xyz
  1  'x, y, z'
loop_
 _atom_site_type_symbol
 _atom_site_label
 _atom_site_symmetry_multiplicity
 _atom_site_fract_x
 _atom_site_fract_y
 _atom_site_fract_z
 _atom_site_occupancy
  Li  Li0  1  0.50527606  0.83445402  0.50159405  1
  Li  Li1  1  0.00877405  0.65336301  0.26836704  1
  Li  Li2  1  0.50165103  0.34423001  0.72762803  1
  Li  Li3  1  0.00269701  0.16334600  0.49620902  1
  Co  Co4  1  0.99463802  0.16827000  0.98788002  1
  Co  Co5  1  0.51864106  0.83013402  0.00767904  1
  Si  Si6  1  0.00077305  0.67077601  0.74057605  1
  Si  Si7  1  0.49524403  0.32927501  0.25743202  1
  O  O8  1  0.11016006  0.80996302  0.96553806  1
  O  O9  1  0.10997906  0.81480202  0.53413206  1
  O  O10  1  0.67026106  0.67602601  0.75265005  1
  O  O11  1  0.60431805  0.62025101  0.25343703  1
  O  O12  1  0.10023003  0.38056301  0.74548604  1
  O  O13  1  0.16555702  0.31933001  0.24430102  1
  O  O14  1  0.60744702  0.18643000  0.46317401  1
  O  O15  1  0.59706702  0.19618500  0.03117501  1
