# generated using pymatgen
data_K4Ag5AuF8
_symmetry_space_group_name_H-M   'P 1'
_cell_length_a   6.03134203
_cell_length_b   6.75490570
_cell_length_c   9.76526928
_cell_angle_alpha   102.48373413
_cell_angle_beta   90.00000000
_cell_angle_gamma   116.51560974
_symmetry_Int_Tables_number   1
_chemical_formula_structural   K4Ag5AuF8
_chemical_formula_sum   'K4 Ag5 Au1 F8'
_cell_volume   345.45595669
_cell_formula_units_Z   1
loop_
 _symmetry_equiv_pos_site_id
 _symmetry_equiv_pos_as_xyz
  1  'x, y, z'
loop_
 _atom_site_type_symbol
 _atom_site_label
 _atom_site_symmetry_multiplicity
 _atom_site_fract_x
 _atom_site_fract_y
 _atom_site_fract_z
 _atom_site_occupancy
  K  K0  1  0.33305701  0.66611403  0.13621202  1
  K  K1  1  0.66694300  0.33388601  0.86378797  1
  K  K2  1  0.32981301  0.65962602  0.75855099  1
  K  K3  1  0.67018700  0.34037401  0.24144900  1
  Ag  Ag4  1  0.02614800  0.05229600  0.65959397  1
  Ag  Ag5  1  0.21657001  0.43314002  0.42576999  1
  Ag  Ag6  1  0.97385201  0.94770404  0.34040602  1
  Ag  Ag7  1  0.78343001  0.56686002  0.57422999  1
  Ag  Ag8  1  0.00000000  0.00000000  0.00000000  1
  Au  Au9  1  0.50000000  0.00000000  0.49999998  1
  F  F10  1  0.61075401  0.76662803  0.46953400  1
  F  F11  1  0.84412600  0.23337201  0.53046598  1
  F  F12  1  0.12488800  0.24977601  0.90724997  1
  F  F13  1  0.10484900  0.20969801  0.18589200  1
  F  F14  1  0.38924600  0.23337201  0.53046598  1
  F  F15  1  0.87511201  0.75022403  0.09275002  1
  F  F16  1  0.89515101  0.79030203  0.81410799  1
  F  F17  1  0.15587401  0.76662803  0.46953400  1
