# generated using pymatgen
data_Dy2Fe7Si5
_symmetry_space_group_name_H-M   'P 1'
_cell_length_a   3.85787106
_cell_length_b   7.17592812
_cell_length_c   7.17592812
_cell_angle_alpha   90.00000000
_cell_angle_beta   90.00000000
_cell_angle_gamma   90.00000000
_symmetry_Int_Tables_number   1
_chemical_formula_structural   Dy2Fe7Si5
_chemical_formula_sum   'Dy2 Fe7 Si5'
_cell_volume   198.65699735
_cell_formula_units_Z   1
loop_
 _symmetry_equiv_pos_site_id
 _symmetry_equiv_pos_as_xyz
  1  'x, y, z'
loop_
 _atom_site_type_symbol
 _atom_site_label
 _atom_site_symmetry_multiplicity
 _atom_site_fract_x
 _atom_site_fract_y
 _atom_site_fract_z
 _atom_site_occupancy
  Dy  Dy0  1  0.00000000  0.49999999  0.49999999  1
  Dy  Dy1  1  0.49999999  0.00000000  0.00000000  1
  Fe  Fe2  1  0.49999999  0.14544400  0.59088499  1
  Fe  Fe3  1  0.49999999  0.85455599  0.40911499  1
  Fe  Fe4  1  0.00000000  0.35455599  0.09088500  1
  Fe  Fe5  1  0.00000000  0.64544399  0.90911499  1
  Fe  Fe6  1  0.49999999  0.59088499  0.14544400  1
  Fe  Fe7  1  0.49999999  0.40911499  0.85455599  1
  Fe  Fe8  1  0.99999999  0.09088500  0.35455599  1
  Si  Si9  1  0.00000000  0.90911499  0.64544399  1
  Si  Si10  1  0.49999999  0.71550899  0.71550899  1
  Si  Si11  1  0.49999999  0.28449100  0.28449100  1
  Si  Si12  1  0.00000000  0.78449099  0.21550900  1
  Si  Si13  1  0.99999999  0.21550900  0.78449099  1
