# generated using pymatgen
data_ErInNi
_symmetry_space_group_name_H-M   'P 1'
_cell_length_a   4.00205421
_cell_length_b   5.48708725
_cell_length_c   5.64687109
_cell_angle_alpha   90.00000000
_cell_angle_beta   90.00000000
_cell_angle_gamma   111.38784790
_symmetry_Int_Tables_number   1
_chemical_formula_structural   ErInNi
_chemical_formula_sum   'Er2 In2 Ni2'
_cell_volume   115.46344500
_cell_formula_units_Z   2
loop_
 _symmetry_equiv_pos_site_id
 _symmetry_equiv_pos_as_xyz
  1  'x, y, z'
loop_
 _atom_site_type_symbol
 _atom_site_label
 _atom_site_symmetry_multiplicity
 _atom_site_fract_x
 _atom_site_fract_y
 _atom_site_fract_z
 _atom_site_occupancy
  Er  Er0  1  0.30735201  0.61470400  0.74999999  1
  Er  Er1  1  0.69264798  0.38529600  0.25000000  1
  In  In2  1  0.00000000  0.00000000  0.00000000  1
  In  In3  1  0.00000000  0.00000000  0.49999999  1
  Ni  Ni4  1  0.60258498  0.20517000  0.74999999  1
  Ni  Ni5  1  0.39741501  0.79483000  0.25000000  1
