# generated using pymatgen
data_Cs2TaH(SO4)2
_symmetry_space_group_name_H-M   'P 1'
_cell_length_a   6.45328760
_cell_length_b   6.45328760
_cell_length_c   8.67163372
_cell_angle_alpha   71.17166901
_cell_angle_beta   71.17166901
_cell_angle_gamma   60.76503754
_symmetry_Int_Tables_number   1
_chemical_formula_structural   Cs2TaH(SO4)2
_chemical_formula_sum   'Cs2 Ta1 H1 S2 O8'
_cell_volume   292.24679939
_cell_formula_units_Z   1
loop_
 _symmetry_equiv_pos_site_id
 _symmetry_equiv_pos_as_xyz
  1  'x, y, z'
loop_
 _atom_site_type_symbol
 _atom_site_label
 _atom_site_symmetry_multiplicity
 _atom_site_fract_x
 _atom_site_fract_y
 _atom_site_fract_z
 _atom_site_occupancy
  Cs  Cs0  1  0.00079400  0.00079400  0.99549697  1
  Cs  Cs1  1  0.19739298  0.19739300  0.39237401  1
  Ta  Ta2  1  0.80174093  0.80174098  0.61136607  1
  H  H3  1  0.51949195  0.51949199  0.00250206  1
  S  S4  1  0.42730596  0.42730599  0.76833003  1
  S  S5  1  0.57105195  0.57105199  0.23802906  1
  O  O6  1  0.39707997  0.39707999  0.97737402  1
  O  O7  1  0.60997195  0.60997199  0.02044207  1
  O  O8  1  0.69757196  0.27327999  0.30724204  1
  O  O9  1  0.27327996  0.69757198  0.30724205  1
  O  O10  1  0.30256895  0.72542198  0.68935304  1
  O  O11  1  0.72542196  0.30256899  0.68935304  1
  O  O12  1  0.28819897  0.28819899  0.73808001  1
  O  O13  1  0.71312794  0.71312798  0.25781607  1
