# generated using pymatgen
data_SrEuC4
_symmetry_space_group_name_H-M   'P 1'
_cell_length_a   4.17901134
_cell_length_b   4.17901134
_cell_length_c   7.88866901
_cell_angle_alpha   92.02017212
_cell_angle_beta   105.21295166
_cell_angle_gamma   115.98356628
_symmetry_Int_Tables_number   1
_chemical_formula_structural   SrEuC4
_chemical_formula_sum   'Sr1 Eu1 C4'
_cell_volume   117.69770340
_cell_formula_units_Z   1
loop_
 _symmetry_equiv_pos_site_id
 _symmetry_equiv_pos_as_xyz
  1  'x, y, z'
loop_
 _atom_site_type_symbol
 _atom_site_label
 _atom_site_symmetry_multiplicity
 _atom_site_fract_x
 _atom_site_fract_y
 _atom_site_fract_z
 _atom_site_occupancy
  Sr  Sr0  1  0.07040005  0.82040004  0.25000000  1
  Eu  Eu1  1  0.92960002  0.17960001  0.74999999  1
  C  C2  1  0.56410604  0.57788603  0.44056299  1
  C  C3  1  0.63732302  0.12354301  0.05943699  1
  C  C4  1  0.36267706  0.87645704  0.94056300  1
  C  C5  1  0.43589403  0.42211402  0.55943699  1
