# generated using pymatgen
data_Y4Ge11Ir2
_symmetry_space_group_name_H-M   'P 1'
_cell_length_a   7.50416565
_cell_length_b   7.50416565
_cell_length_c   7.50416565
_cell_angle_alpha   109.47122192
_cell_angle_beta   109.47122192
_cell_angle_gamma   109.47122192
_symmetry_Int_Tables_number   1
_chemical_formula_structural   Y4Ge11Ir2
_chemical_formula_sum   'Y4 Ge11 Ir2'
_cell_volume   325.30094523
_cell_formula_units_Z   1
loop_
 _symmetry_equiv_pos_site_id
 _symmetry_equiv_pos_as_xyz
  1  'x, y, z'
loop_
 _atom_site_type_symbol
 _atom_site_label
 _atom_site_symmetry_multiplicity
 _atom_site_fract_x
 _atom_site_fract_y
 _atom_site_fract_z
 _atom_site_occupancy
  Y  Y0  1  0.50000003  0.50000001  0.50000003  1
  Y  Y1  1  0.00000000  0.00000000  0.49999999  1
  Y  Y2  1  0.00000003  0.50000001  0.00000003  1
  Y  Y3  1  0.50000006  1.00000003  1.00000005  1
  Ge  Ge4  1  0.70293206  1.00000003  0.70293206  1
  Ge  Ge5  1  0.29706802  0.29706801  0.00000002  1
  Ge  Ge6  1  0.70293204  0.70293202  1.00000004  1
  Ge  Ge7  1  0.00000004  0.70293202  0.70293203  1
  Ge  Ge8  1  0.00000002  0.29706801  0.29706801  1
  Ge  Ge9  1  0.29706806  1.00000003  0.29706806  1
  Ge  Ge10  1  0.50000001  0.25000001  0.75000002  1
  Ge  Ge11  1  0.50000005  0.75000002  0.25000005  1
  Ge  Ge12  1  0.75000001  0.25000001  0.50000003  1
  Ge  Ge13  1  0.25000005  0.75000002  0.50000004  1
  Ir  Ir14  1  0.75000003  0.50000001  0.25000004  1
  Ge  Ge15  1  0.25000003  0.50000001  0.75000002  1
  Ir  Ir16  1  0.00000000  0.00000000  0.00000000  1
