# generated using pymatgen
data_CeGaNi2
_symmetry_space_group_name_H-M   'P 1'
_cell_length_a   4.05172396
_cell_length_b   5.52979946
_cell_length_c   6.87132692
_cell_angle_alpha   90.00000000
_cell_angle_beta   90.00000000
_cell_angle_gamma   111.49091339
_symmetry_Int_Tables_number   1
_chemical_formula_structural   CeGaNi2
_chemical_formula_sum   'Ce2 Ga2 Ni4'
_cell_volume   143.25007879
_cell_formula_units_Z   2
loop_
 _symmetry_equiv_pos_site_id
 _symmetry_equiv_pos_as_xyz
  1  'x, y, z'
loop_
 _atom_site_type_symbol
 _atom_site_label
 _atom_site_symmetry_multiplicity
 _atom_site_fract_x
 _atom_site_fract_y
 _atom_site_fract_z
 _atom_site_occupancy
  Ce  Ce0  1  0.93942708  0.87885401  0.75000001  1
  Ce  Ce1  1  0.06057301  0.12114600  0.25000000  1
  Ga  Ga2  1  0.34160706  0.68321401  0.05478500  1
  Ga  Ga3  1  0.65839303  0.31678601  0.94521501  1
  Ni  Ni4  1  0.65839303  0.31678601  0.55478501  1
  Ni  Ni5  1  0.34160706  0.68321401  0.44521500  1
  Ni  Ni6  1  0.21612504  0.43225001  0.75000001  1
  Ni  Ni7  1  0.78387506  0.56775001  0.25000000  1
