# generated using pymatgen
data_SmGeIr
_symmetry_space_group_name_H-M   'P 1'
_cell_length_a   4.46447086
_cell_length_b   7.24780416
_cell_length_c   7.54126596
_cell_angle_alpha   90.00000000
_cell_angle_beta   90.00000000
_cell_angle_gamma   90.00000000
_symmetry_Int_Tables_number   1
_chemical_formula_structural   SmGeIr
_chemical_formula_sum   'Sm4 Ge4 Ir4'
_cell_volume   244.01734689
_cell_formula_units_Z   4
loop_
 _symmetry_equiv_pos_site_id
 _symmetry_equiv_pos_as_xyz
  1  'x, y, z'
loop_
 _atom_site_type_symbol
 _atom_site_label
 _atom_site_symmetry_multiplicity
 _atom_site_fract_x
 _atom_site_fract_y
 _atom_site_fract_z
 _atom_site_occupancy
  Sm  Sm0  1  0.25000001  0.49129399  0.68964100  1
  Sm  Sm1  1  0.75000002  0.50870599  0.31035900  1
  Sm  Sm2  1  0.25000001  0.99129398  0.81035900  1
  Sm  Sm3  1  0.75000002  0.00870600  0.18964100  1
  Ge  Ge4  1  0.25000001  0.29802599  0.10275200  1
  Ge  Ge5  1  0.75000002  0.70197398  0.89724800  1
  Ge  Ge6  1  0.25000001  0.79802598  0.39724800  1
  Ge  Ge7  1  0.75000002  0.20197400  0.60275200  1
  Ir  Ir8  1  0.75000002  0.84807498  0.57169400  1
  Ir  Ir9  1  0.25000001  0.15192500  0.42830600  1
  Ir  Ir10  1  0.75000002  0.34807499  0.92830600  1
  Ir  Ir11  1  0.25000001  0.65192499  0.07169400  1
