# generated using pymatgen
data_DyMnSi
_symmetry_space_group_name_H-M   'P 1'
_cell_length_a   4.05109310
_cell_length_b   4.05109310
_cell_length_c   6.29639196
_cell_angle_alpha   90.00000000
_cell_angle_beta   90.00000000
_cell_angle_gamma   90.00000000
_symmetry_Int_Tables_number   1
_chemical_formula_structural   DyMnSi
_chemical_formula_sum   'Dy2 Mn2 Si2'
_cell_volume   103.33232574
_cell_formula_units_Z   2
loop_
 _symmetry_equiv_pos_site_id
 _symmetry_equiv_pos_as_xyz
  1  'x, y, z'
loop_
 _atom_site_type_symbol
 _atom_site_label
 _atom_site_symmetry_multiplicity
 _atom_site_fract_x
 _atom_site_fract_y
 _atom_site_fract_z
 _atom_site_occupancy
  Dy  Dy0  1  0.49999999  0.00000000  0.36691700  1
  Dy  Dy1  1  0.00000000  0.49999999  0.63308300  1
  Mn  Mn2  1  0.49999999  0.49999999  0.00000000  1
  Mn  Mn3  1  0.00000000  0.00000000  0.00000000  1
  Si  Si4  1  0.00000000  0.49999999  0.20696600  1
  Si  Si5  1  0.49999999  0.00000000  0.79303400  1
