# generated using pymatgen
data_Tb2InPd2
_symmetry_space_group_name_H-M   'P 1'
_cell_length_a   3.75454807
_cell_length_b   7.70890379
_cell_length_c   7.70890379
_cell_angle_alpha   90.00000000
_cell_angle_beta   90.00000000
_cell_angle_gamma   90.00000000
_symmetry_Int_Tables_number   1
_chemical_formula_structural   Tb2InPd2
_chemical_formula_sum   'Tb4 In2 Pd4'
_cell_volume   223.12227036
_cell_formula_units_Z   2
loop_
 _symmetry_equiv_pos_site_id
 _symmetry_equiv_pos_as_xyz
  1  'x, y, z'
loop_
 _atom_site_type_symbol
 _atom_site_label
 _atom_site_symmetry_multiplicity
 _atom_site_fract_x
 _atom_site_fract_y
 _atom_site_fract_z
 _atom_site_occupancy
  Tb  Tb0  1  0.49999999  0.32829601  0.82829602  1
  Tb  Tb1  1  0.49999999  0.82829602  0.67170402  1
  Tb  Tb2  1  0.49999999  0.17170400  0.32829601  1
  Tb  Tb3  1  0.49999999  0.67170402  0.17170400  1
  In  In4  1  0.00000000  0.00000000  0.00000000  1
  In  In5  1  0.00000000  0.50000001  0.50000001  1
  Pd  Pd6  1  0.00000000  0.37077001  0.12923000  1
  Pd  Pd7  1  0.00000000  0.87077002  0.37077001  1
  Pd  Pd8  1  0.99999998  0.12923000  0.62923002  1
  Pd  Pd9  1  0.00000000  0.62923002  0.87077002  1
