# generated using pymatgen
data_LiCd3SbS7IO2
_symmetry_space_group_name_H-M   'P 1'
_cell_length_a   7.29249001
_cell_length_b   7.29249001
_cell_length_c   7.29630995
_cell_angle_alpha   60.01732635
_cell_angle_beta   60.01732635
_cell_angle_gamma   60.00000000
_symmetry_Int_Tables_number   1
_chemical_formula_structural   LiCd3SbS7IO2
_chemical_formula_sum   'Li1 Cd3 Sb1 S7 I1 O2'
_cell_volume   274.44394199
_cell_formula_units_Z   1
loop_
 _symmetry_equiv_pos_site_id
 _symmetry_equiv_pos_as_xyz
  1  'x, y, z'
loop_
 _atom_site_type_symbol
 _atom_site_label
 _atom_site_symmetry_multiplicity
 _atom_site_fract_x
 _atom_site_fract_y
 _atom_site_fract_z
 _atom_site_occupancy
  Li  Li0  1  0.00007900  0.00007900  0.99976298  1
  Cd  Cd1  1  0.37581796  0.86635099  0.38201303  1
  Cd  Cd2  1  0.86635096  0.37581799  0.38201302  1
  Cd  Cd3  1  0.37581797  0.37581799  0.38201301  1
  I  I4  1  0.42682497  0.42682499  0.71952501  1
  Sb  Sb5  1  0.50545095  0.99638599  0.50177703  1
  S  S6  1  0.99638593  0.99638599  0.50177704  1
  S  S7  1  0.87319994  0.87319999  0.38040004  1
  S  S8  1  0.38053495  0.87491599  0.86963302  1
  S  S9  1  0.50482795  0.98836399  0.00198004  1
  O  O10  1  0.99638595  0.50545099  0.50177703  1
  S  S11  1  0.87491594  0.87491599  0.86963303  1
  S  S12  1  0.87491596  0.38053499  0.86963301  1
  O  O13  1  0.50482797  0.50482799  0.00198003  1
  S  S14  1  0.98836395  0.50482799  0.00198003  1
