# generated using pymatgen
data_La2InGe2
_symmetry_space_group_name_H-M   'P 1'
_cell_length_a   4.40453577
_cell_length_b   7.62124300
_cell_length_c   7.62124300
_cell_angle_alpha   90.00000000
_cell_angle_beta   90.00000000
_cell_angle_gamma   90.00000000
_symmetry_Int_Tables_number   1
_chemical_formula_structural   La2InGe2
_chemical_formula_sum   'La4 In2 Ge4'
_cell_volume   255.83017013
_cell_formula_units_Z   2
loop_
 _symmetry_equiv_pos_site_id
 _symmetry_equiv_pos_as_xyz
  1  'x, y, z'
loop_
 _atom_site_type_symbol
 _atom_site_label
 _atom_site_symmetry_multiplicity
 _atom_site_fract_x
 _atom_site_fract_y
 _atom_site_fract_z
 _atom_site_occupancy
  La  La0  1  0.50000003  0.31994200  0.81994200  1
  La  La1  1  0.50000003  0.81994200  0.68005800  1
  La  La2  1  0.50000003  0.18005800  0.31994200  1
  La  La3  1  0.50000003  0.68005800  0.18005800  1
  In  In4  1  0.00000000  0.00000000  0.00000000  1
  In  In5  1  -0.00000000  0.50000000  0.50000000  1
  Ge  Ge6  1  -0.00000000  0.38147900  0.11852100  1
  Ge  Ge7  1  -0.00000000  0.88147900  0.38147900  1
  Ge  Ge8  1  1.00000005  0.11852100  0.61852100  1
  Ge  Ge9  1  -0.00000000  0.61852100  0.88147900  1
