# generated using pymatgen
data_IBr5O3
_symmetry_space_group_name_H-M   'P 1'
_cell_length_a   6.32121897
_cell_length_b   6.65109777
_cell_length_c   6.65109825
_cell_angle_alpha   60.00000000
_cell_angle_beta   90.00000000
_cell_angle_gamma   90.00000000
_symmetry_Int_Tables_number   1
_chemical_formula_structural   IBr5O3
_chemical_formula_sum   'I1 Br5 O3'
_cell_volume   242.16878445
_cell_formula_units_Z   1
loop_
 _symmetry_equiv_pos_site_id
 _symmetry_equiv_pos_as_xyz
  1  'x, y, z'
loop_
 _atom_site_type_symbol
 _atom_site_label
 _atom_site_symmetry_multiplicity
 _atom_site_fract_x
 _atom_site_fract_y
 _atom_site_fract_z
 _atom_site_occupancy
  O  O0  1  0.66050300  0.00000000  -0.00000000  1
  Br  Br1  1  0.78702400  0.66666669  0.66666665  1
  Br  Br2  1  0.78702400  0.33333335  0.33333332  1
  Br  Br3  1  0.26929600  0.00000000  0.39054799  1
  Br  Br4  1  0.26929600  0.39054802  0.60945198  1
  Br  Br5  1  0.26929600  0.60945203  -0.00000001  1
  O  O6  1  0.99975301  0.00000000  0.73722799  1
  I  I7  1  0.99975301  0.73722803  0.26277199  1
  O  O8  1  0.99975301  0.26277201  0.99999998  1
