# generated using pymatgen
data_Al5VN8
_symmetry_space_group_name_H-M   'P 1'
_cell_length_a   2.92508507
_cell_length_b   7.66030788
_cell_length_c   7.66030788
_cell_angle_alpha   120.00000000
_cell_angle_beta   90.00000000
_cell_angle_gamma   90.00000000
_symmetry_Int_Tables_number   1
_chemical_formula_structural   Al5VN8
_chemical_formula_sum   'Al5 V1 N8'
_cell_volume   148.64886001
_cell_formula_units_Z   1
loop_
 _symmetry_equiv_pos_site_id
 _symmetry_equiv_pos_as_xyz
  1  'x, y, z'
loop_
 _atom_site_type_symbol
 _atom_site_label
 _atom_site_symmetry_multiplicity
 _atom_site_fract_x
 _atom_site_fract_y
 _atom_site_fract_z
 _atom_site_occupancy
  Al  Al0  1  0.24999999  0.76875600  0.59389297  1
  Al  Al1  1  0.74999998  0.59389300  0.82513697  1
  Al  Al2  1  0.74999998  0.17486300  0.76875598  1
  Al  Al3  1  0.24999999  0.82513700  0.23124397  1
  Al  Al4  1  0.24999999  0.40610700  0.17486299  1
  V  V5  1  0.74999998  0.23124400  0.40610699  1
  N  N6  1  0.24999999  0.66666667  0.33333331  1
  N  N7  1  0.74999998  0.33333333  0.66666664  1
  N  N8  1  0.24999999  0.03067900  0.70073598  1
  N  N9  1  0.74999998  0.70073600  0.67005697  1
  N  N10  1  0.74999998  0.32994300  0.03067899  1
  N  N11  1  0.24999999  0.67005700  0.96932096  1
  N  N12  1  0.74999998  0.96932100  0.29926397  1
  N  N13  1  0.24999999  0.29926400  0.32994299  1
