# generated using pymatgen
data_NpNi2
_symmetry_space_group_name_H-M   'P 1'
_cell_length_a   5.00750923
_cell_length_b   5.00750923
_cell_length_c   5.00750923
_cell_angle_alpha   62.68234253
_cell_angle_beta   62.68234253
_cell_angle_gamma   62.68235016
_symmetry_Int_Tables_number   1
_chemical_formula_structural   NpNi2
_chemical_formula_sum   'Np2 Ni4'
_cell_volume   94.08730179
_cell_formula_units_Z   2
loop_
 _symmetry_equiv_pos_site_id
 _symmetry_equiv_pos_as_xyz
  1  'x, y, z'
loop_
 _atom_site_type_symbol
 _atom_site_label
 _atom_site_symmetry_multiplicity
 _atom_site_fract_x
 _atom_site_fract_y
 _atom_site_fract_z
 _atom_site_occupancy
  Np  Np0  1  0.37303001  0.37303001  0.37303004  1
  Np  Np1  1  0.62697001  0.62697002  0.62697006  1
  Ni  Ni2  1  0.00000000  0.00000000  0.00000000  1
  Ni  Ni3  1  0.50000001  0.00000000  1.00000006  1
  Ni  Ni4  1  -0.00000000  0.50000001  0.00000001  1
  Ni  Ni5  1  0.00000000  0.00000000  0.50000002  1
