# generated using pymatgen
data_Ce2Cu3Ge5
_symmetry_space_group_name_H-M   'P 1'
_cell_length_a   4.25364923
_cell_length_b   4.25364923
_cell_length_c   10.18997574
_cell_angle_alpha   90.00000000
_cell_angle_beta   90.00000000
_cell_angle_gamma   90.00000000
_symmetry_Int_Tables_number   1
_chemical_formula_structural   Ce2Cu3Ge5
_chemical_formula_sum   'Ce2 Cu3 Ge5'
_cell_volume   184.37265019
_cell_formula_units_Z   1
loop_
 _symmetry_equiv_pos_site_id
 _symmetry_equiv_pos_as_xyz
  1  'x, y, z'
loop_
 _atom_site_type_symbol
 _atom_site_label
 _atom_site_symmetry_multiplicity
 _atom_site_fract_x
 _atom_site_fract_y
 _atom_site_fract_z
 _atom_site_occupancy
  Ce  Ce0  1  0.00000000  0.49999997  0.25685201  1
  Ce  Ce1  1  0.49999997  0.00000000  0.74314802  1
  Cu  Cu2  1  0.00000000  0.00000000  0.50000001  1
  Cu  Cu3  1  0.49999997  0.49999997  0.50000001  1
  Cu  Cu4  1  0.00000000  0.49999997  0.86851502  1
  Ge  Ge5  1  0.49999997  0.00000000  0.13148500  1
  Ge  Ge6  1  0.00000000  0.00000000  0.00000000  1
  Ge  Ge7  1  0.49999997  0.49999997  -0.00000000  1
  Ge  Ge8  1  0.00000000  0.49999997  0.62869202  1
  Ge  Ge9  1  0.49999997  0.00000000  0.37130801  1
