# generated using pymatgen
data_NiPtO3
_symmetry_space_group_name_H-M   'P 1'
_cell_length_a   5.43931484
_cell_length_b   5.46144104
_cell_length_c   7.86870003
_cell_angle_alpha   90.00299835
_cell_angle_beta   90.00083923
_cell_angle_gamma   89.99980927
_symmetry_Int_Tables_number   1
_chemical_formula_structural   NiPtO3
_chemical_formula_sum   'Ni4 Pt4 O12'
_cell_volume   233.75151584
_cell_formula_units_Z   4
loop_
 _symmetry_equiv_pos_site_id
 _symmetry_equiv_pos_as_xyz
  1  'x, y, z'
loop_
 _atom_site_type_symbol
 _atom_site_label
 _atom_site_symmetry_multiplicity
 _atom_site_fract_x
 _atom_site_fract_y
 _atom_site_fract_z
 _atom_site_occupancy
  Ni  Ni0  1  0.49305100  0.46443800  0.24992500  1
  Ni  Ni1  1  0.99301403  0.03552900  0.75005203  1
  Ni  Ni2  1  0.00696597  0.96444299  0.25008998  1
  Ni  Ni3  1  0.50699800  0.53552200  0.74995000  1
  Pt  Pt4  1  0.99992502  0.50001800  0.99999902  1
  Pt  Pt5  1  0.00009099  0.50002600  0.49997999  1
  Pt  Pt6  1  0.50004601  0.00008500  0.00000601  1
  Pt  Pt7  1  0.49985799  0.99991699  0.49999199  1
  O  O8  1  0.87580501  0.41570700  0.74998301  1
  O  O9  1  0.62420899  0.91570699  0.74999600  1
  O  O10  1  0.37574901  0.08431800  0.24998601  1
  O  O11  1  0.12426799  0.58431700  0.24995199  1
  O  O12  1  0.82940902  0.17483900  0.43333302  1
  O  O13  1  0.82945802  0.17475500  0.06666302  1
  O  O14  1  0.67048700  0.67476600  0.43336800  1
  O  O15  1  0.67066300  0.67485300  0.06670701  1
  O  O16  1  0.32941900  0.32519900  0.56656700  1
  O  O17  1  0.32940100  0.32519600  0.93338700  1
  O  O18  1  0.17058098  0.82512999  0.93343898  1
  O  O19  1  0.17060098  0.82523599  0.56662599  1
