# generated using pymatgen
data_Al5Co11
_symmetry_space_group_name_H-M   'P 1'
_cell_length_a   4.84054804
_cell_length_b   7.25022554
_cell_length_c   7.25022554
_cell_angle_alpha   83.60189056
_cell_angle_beta   70.49916840
_cell_angle_gamma   70.49916840
_symmetry_Int_Tables_number   1
_chemical_formula_structural   Al5Co11
_chemical_formula_sum   'Al5 Co11'
_cell_volume   226.09252676
_cell_formula_units_Z   1
loop_
 _symmetry_equiv_pos_site_id
 _symmetry_equiv_pos_as_xyz
  1  'x, y, z'
loop_
 _atom_site_type_symbol
 _atom_site_label
 _atom_site_symmetry_multiplicity
 _atom_site_fract_x
 _atom_site_fract_y
 _atom_site_fract_z
 _atom_site_occupancy
  Al  Al0  1  0.24999997  0.50000001  0.50000000  1
  Al  Al1  1  0.74999997  0.50000001  0.49999999  1
  Al  Al2  1  0.25000000  0.00000000  -0.00000001  1
  Al  Al3  1  0.75000000  0.00000000  0.99999999  1
  Co  Co4  1  0.83732996  0.82534102  0.49999999  1
  Co  Co5  1  0.16266999  0.17465900  0.50000000  1
  Al  Al6  1  0.66267097  0.50000001  0.17465799  1
  Co  Co7  1  0.33732897  0.50000001  0.82534200  1
  Co  Co8  1  0.92132899  0.30500401  0.85233899  1
  Co  Co9  1  0.07867096  0.69499602  0.14766100  1
  Co  Co10  1  0.22633295  0.85233902  0.69499500  1
  Co  Co11  1  0.57867199  0.14766100  0.69499499  1
  Co  Co12  1  0.77366699  0.14766100  0.30500498  1
  Co  Co13  1  0.42132795  0.85233902  0.30500499  1
  Co  Co14  1  0.27366798  0.30500401  0.14766100  1
  Co  Co15  1  0.72633196  0.69499602  0.85233899  1
