# generated using pymatgen
data_Dy2InNi2
_symmetry_space_group_name_H-M   'P 1'
_cell_length_a   4.18712521
_cell_length_b   7.16103077
_cell_length_c   7.16103077
_cell_angle_alpha   90.00000000
_cell_angle_beta   90.00000000
_cell_angle_gamma   90.00000000
_symmetry_Int_Tables_number   1
_chemical_formula_structural   Dy2InNi2
_chemical_formula_sum   'Dy4 In2 Ni4'
_cell_volume   214.71729496
_cell_formula_units_Z   2
loop_
 _symmetry_equiv_pos_site_id
 _symmetry_equiv_pos_as_xyz
  1  'x, y, z'
loop_
 _atom_site_type_symbol
 _atom_site_label
 _atom_site_symmetry_multiplicity
 _atom_site_fract_x
 _atom_site_fract_y
 _atom_site_fract_z
 _atom_site_occupancy
  Dy  Dy0  1  0.00000000  0.00000000  0.00000000  1
  Dy  Dy1  1  0.99999995  0.50000002  0.50000002  1
  Dy  Dy2  1  0.49999998  0.82108703  0.67891302  1
  Dy  Dy3  1  0.49999998  0.17891301  0.32108701  1
  In  In4  1  0.49999998  0.67891302  0.17891301  1
  In  In5  1  0.49999998  0.32108701  0.82108703  1
  Ni  Ni6  1  0.99999995  0.61815402  0.88184603  1
  Ni  Ni7  1  -0.00000000  0.38184601  0.11815400  1
  Ni  Ni8  1  -0.00000000  0.88184603  0.38184601  1
  Ni  Ni9  1  0.99999995  0.11815400  0.61815402  1
