# generated using pymatgen
data_Sr2CuAgO3
_symmetry_space_group_name_H-M   'P 1'
_cell_length_a   4.31416321
_cell_length_b   4.31416321
_cell_length_c   15.73323441
_cell_angle_alpha   90.00000000
_cell_angle_beta   90.00000000
_cell_angle_gamma   90.00000000
_symmetry_Int_Tables_number   1
_chemical_formula_structural   Sr2CuAgO3
_chemical_formula_sum   'Sr4 Cu2 Ag2 O6'
_cell_volume   292.82702460
_cell_formula_units_Z   2
loop_
 _symmetry_equiv_pos_site_id
 _symmetry_equiv_pos_as_xyz
  1  'x, y, z'
loop_
 _atom_site_type_symbol
 _atom_site_label
 _atom_site_symmetry_multiplicity
 _atom_site_fract_x
 _atom_site_fract_y
 _atom_site_fract_z
 _atom_site_occupancy
  Sr  Sr0  1  -0.00000000  0.49999998  0.65976598  1
  Sr  Sr1  1  0.49999998  0.00000000  0.34023399  1
  Sr  Sr2  1  0.49999998  0.00000000  0.09210900  1
  Sr  Sr3  1  -0.00000000  0.49999998  0.90789098  1
  Ag  Ag4  1  -0.00000000  0.49999998  0.20653599  1
  Ag  Ag5  1  0.49999998  0.00000000  0.79346398  1
  Cu  Cu6  1  0.49999998  0.00000000  0.57572499  1
  Cu  Cu7  1  -0.00000000  0.49999998  0.42427499  1
  O  O8  1  0.00000000  0.00000000  0.77001298  1
  O  O9  1  0.49999998  0.49999998  0.77001298  1
  O  O10  1  0.00000000  0.00000000  0.22998699  1
  O  O11  1  0.49999998  0.00000000  0.92772798  1
  O  O12  1  0.49999998  0.49999998  0.22998699  1
  O  O13  1  -0.00000000  0.49999998  0.07227200  1
