# generated using pymatgen
data_Sc9Rh11
_symmetry_space_group_name_H-M   'P 1'
_cell_length_a   5.73520613
_cell_length_b   5.73520613
_cell_length_c   14.25910568
_cell_angle_alpha   90.00000000
_cell_angle_beta   90.00000000
_cell_angle_gamma   120.00000000
_symmetry_Int_Tables_number   1
_chemical_formula_structural   Sc9Rh11
_chemical_formula_sum   'Sc9 Rh11'
_cell_volume   406.18228857
_cell_formula_units_Z   1
loop_
 _symmetry_equiv_pos_site_id
 _symmetry_equiv_pos_as_xyz
  1  'x, y, z'
loop_
 _atom_site_type_symbol
 _atom_site_label
 _atom_site_symmetry_multiplicity
 _atom_site_fract_x
 _atom_site_fract_y
 _atom_site_fract_z
 _atom_site_occupancy
  Sc  Sc0  1  0.00000000  0.00000000  0.75000002  1
  Sc  Sc1  1  0.00000000  0.00000000  0.25000001  1
  Sc  Sc2  1  0.66666665  0.33333332  0.75000002  1
  Sc  Sc3  1  0.33333332  0.66666664  0.25000001  1
  Sc  Sc4  1  0.66666665  0.33333332  0.41067001  1
  Sc  Sc5  1  0.33333332  0.66666664  0.91067002  1
  Sc  Sc6  1  0.33333332  0.66666664  0.58933001  1
  Sc  Sc7  1  0.66666665  0.33333332  0.08933000  1
  Rh  Rh8  1  0.83460098  0.16539899  0.58722901  1
  Rh  Rh9  1  0.83460098  0.66920197  0.58722901  1
  Rh  Rh10  1  0.33079799  0.16539899  0.58722901  1
  Sc  Sc11  1  0.16539899  0.33079799  0.08722900  1
  Rh  Rh12  1  0.66920198  0.83460097  0.08722900  1
  Rh  Rh13  1  0.16539899  0.83460097  0.08722900  1
  Rh  Rh14  1  0.16539899  0.83460097  0.41277101  1
  Rh  Rh15  1  0.16539899  0.33079799  0.41277101  1
  Rh  Rh16  1  0.66920198  0.83460097  0.41277101  1
  Rh  Rh17  1  0.83460098  0.66920197  0.91277102  1
  Rh  Rh18  1  0.33079799  0.16539899  0.91277102  1
  Rh  Rh19  1  0.83460098  0.16539899  0.91277102  1
