# generated using pymatgen
data_FeSe2
_symmetry_space_group_name_H-M   'P 1'
_cell_length_a   3.27977395
_cell_length_b   5.68555021
_cell_length_c   6.57839966
_cell_angle_alpha   106.82192993
_cell_angle_beta   90.00000000
_cell_angle_gamma   90.00000000
_symmetry_Int_Tables_number   1
_chemical_formula_structural   FeSe2
_chemical_formula_sum   'Fe2 Se4'
_cell_volume   117.42034422
_cell_formula_units_Z   2
loop_
 _symmetry_equiv_pos_site_id
 _symmetry_equiv_pos_as_xyz
  1  'x, y, z'
loop_
 _atom_site_type_symbol
 _atom_site_label
 _atom_site_symmetry_multiplicity
 _atom_site_fract_x
 _atom_site_fract_y
 _atom_site_fract_z
 _atom_site_occupancy
  Fe  Fe0  1  0.50000001  0.33652299  0.50024300  1
  Fe  Fe1  1  -0.00000000  0.83174297  0.49993199  1
  Se  Se2  1  -0.00000000  0.58661498  0.74807799  1
  Se  Se3  1  0.50000001  0.07726500  0.74398100  1
  Se  Se4  1  -0.00000000  0.42029998  0.25167500  1
  Se  Se5  1  0.50000001  0.91415496  0.25589099  1
