# generated using pymatgen
data_BaY2Cu(SeO)2
_symmetry_space_group_name_H-M   'P 1'
_cell_length_a   4.28584194
_cell_length_b   4.28584194
_cell_length_c   9.92161179
_cell_angle_alpha   90.00000000
_cell_angle_beta   90.00000000
_cell_angle_gamma   90.00000000
_symmetry_Int_Tables_number   1
_chemical_formula_structural   BaY2Cu(SeO)2
_chemical_formula_sum   'Ba1 Y2 Cu1 Se2 O2'
_cell_volume   182.24454221
_cell_formula_units_Z   1
loop_
 _symmetry_equiv_pos_site_id
 _symmetry_equiv_pos_as_xyz
  1  'x, y, z'
loop_
 _atom_site_type_symbol
 _atom_site_label
 _atom_site_symmetry_multiplicity
 _atom_site_fract_x
 _atom_site_fract_y
 _atom_site_fract_z
 _atom_site_occupancy
  Ba  Ba0  1  0.00000000  0.50000001  0.84044302  1
  Y  Y1  1  0.50000001  0.00000000  0.15955700  1
  Y  Y2  1  0.00000000  0.00000000  0.50000001  1
  Cu  Cu3  1  0.50000001  0.50000001  0.50000001  1
  Se  Se4  1  0.00000000  0.50000001  0.34379501  1
  Se  Se5  1  0.50000001  0.00000000  0.65620501  1
  O  O6  1  0.00000000  0.00000000  0.00000000  1
  O  O7  1  0.50000001  0.50000001  0.00000000  1
