# generated using pymatgen
data_La2CoGe6
_symmetry_space_group_name_H-M   'P 1'
_cell_length_a   4.37056589
_cell_length_b   5.90995836
_cell_length_c   8.31069279
_cell_angle_alpha   107.70729065
_cell_angle_beta   90.00000000
_cell_angle_gamma   111.70098877
_symmetry_Int_Tables_number   1
_chemical_formula_structural   La2CoGe6
_chemical_formula_sum   'La2 Co1 Ge6'
_cell_volume   188.46056900
_cell_formula_units_Z   1
loop_
 _symmetry_equiv_pos_site_id
 _symmetry_equiv_pos_as_xyz
  1  'x, y, z'
loop_
 _atom_site_type_symbol
 _atom_site_label
 _atom_site_symmetry_multiplicity
 _atom_site_fract_x
 _atom_site_fract_y
 _atom_site_fract_z
 _atom_site_occupancy
  La  La0  1  0.00000000  0.00000000  0.00000000  1
  La  La1  1  0.61944100  0.23888200  0.69735700  1
  Co  Co2  1  0.38055896  0.76111800  0.30264302  1
  Ge  Ge3  1  0.28615397  0.57230800  0.91932401  1
  Ge  Ge4  1  0.71384599  0.42769200  0.08067601  1
  Ge  Ge5  1  0.90114597  0.80229200  0.59713202  1
  Ge  Ge6  1  0.09885399  0.19770800  0.40286800  1
  Ge  Ge7  1  0.31480996  0.62962000  0.63858202  1
  Ge  Ge8  1  0.68518999  0.37038000  0.36141801  1
