# generated using pymatgen
data_Li2Ti3FeO6
_symmetry_space_group_name_H-M   'P 1'
_cell_length_a   2.95209408
_cell_length_b   6.00934172
_cell_length_c   6.73245955
_cell_angle_alpha   105.53049469
_cell_angle_beta   102.66459656
_cell_angle_gamma   90.00000000
_symmetry_Int_Tables_number   1
_chemical_formula_structural   Li2Ti3FeO6
_chemical_formula_sum   'Li2 Ti3 Fe1 O6'
_cell_volume   112.05514421
_cell_formula_units_Z   1
loop_
 _symmetry_equiv_pos_site_id
 _symmetry_equiv_pos_as_xyz
  1  'x, y, z'
loop_
 _atom_site_type_symbol
 _atom_site_label
 _atom_site_symmetry_multiplicity
 _atom_site_fract_x
 _atom_site_fract_y
 _atom_site_fract_z
 _atom_site_occupancy
  Li  Li0  1  0.00000000  0.00000000  0.00000000  1
  Li  Li1  1  0.33359598  0.67243300  0.66719194  1
  Ti  Ti2  1  0.66640398  0.32756700  0.33280797  1
  Ti  Ti3  1  0.34081299  0.18200100  0.68162597  1
  Ti  Ti4  1  0.65918697  0.81799900  0.31837394  1
  Fe  Fe5  1  -0.00000001  0.50000000  -0.00000003  1
  O  O6  1  0.83205397  0.40841800  0.66410796  1
  O  O7  1  0.17334799  0.06235700  0.34669599  1
  O  O8  1  0.16794598  0.59158200  0.33589195  1
  O  O9  1  0.50173897  0.74733400  0.00347796  1
  O  O10  1  0.49826098  0.25266600  0.99652196  1
  O  O11  1  0.82665196  0.93764300  0.65330393  1
