# generated using pymatgen
data_Ca2PbS3
_symmetry_space_group_name_H-M   'P 1'
_cell_length_a   4.40739679
_cell_length_b   7.56800795
_cell_length_c   8.91534138
_cell_angle_alpha   90.00000000
_cell_angle_beta   90.00000000
_cell_angle_gamma   90.00000000
_symmetry_Int_Tables_number   1
_chemical_formula_structural   Ca2PbS3
_chemical_formula_sum   'Ca4 Pb2 S6'
_cell_volume   297.37311911
_cell_formula_units_Z   2
loop_
 _symmetry_equiv_pos_site_id
 _symmetry_equiv_pos_as_xyz
  1  'x, y, z'
loop_
 _atom_site_type_symbol
 _atom_site_label
 _atom_site_symmetry_multiplicity
 _atom_site_fract_x
 _atom_site_fract_y
 _atom_site_fract_z
 _atom_site_occupancy
  Ca  Ca0  1  0.25000001  0.85596101  0.93003396  1
  Ca  Ca1  1  0.25000001  0.35596100  0.56996598  1
  Ca  Ca2  1  0.75000004  0.14403900  0.06996600  1
  Ca  Ca3  1  0.75000004  0.64403900  0.43003398  1
  Pb  Pb4  1  0.25000001  0.97521101  0.33393899  1
  Pb  Pb5  1  0.25000001  0.47521100  0.16606099  1
  S  S6  1  0.75000004  0.02478900  0.66606097  1
  S  S7  1  0.75000004  0.52478900  0.83393896  1
  S  S8  1  0.25000001  0.24409900  0.88127396  1
  S  S9  1  0.25000001  0.74409901  0.61872597  1
  S  S10  1  0.75000004  0.75590101  0.11872599  1
  S  S11  1  0.75000004  0.25590100  0.38127398  1
