# generated using pymatgen
data_Al9Fe2Si5
_symmetry_space_group_name_H-M   'P 1'
_cell_length_a   4.88496399
_cell_length_b   7.01870823
_cell_length_c   7.01870775
_cell_angle_alpha   120.00000000
_cell_angle_beta   90.00000000
_cell_angle_gamma   90.00000000
_symmetry_Int_Tables_number   1
_chemical_formula_structural   Al9Fe2Si5
_chemical_formula_sum   'Al9 Fe2 Si5'
_cell_volume   208.40414221
_cell_formula_units_Z   1
loop_
 _symmetry_equiv_pos_site_id
 _symmetry_equiv_pos_as_xyz
  1  'x, y, z'
loop_
 _atom_site_type_symbol
 _atom_site_label
 _atom_site_symmetry_multiplicity
 _atom_site_fract_x
 _atom_site_fract_y
 _atom_site_fract_z
 _atom_site_occupancy
  Al  Al0  1  0.00000000  0.00000000  0.75652899  1
  Al  Al1  1  -0.00000000  0.75652896  -0.00000003  1
  Al  Al2  1  -0.00000000  0.24347099  0.24347099  1
  Al  Al3  1  0.50000000  0.00000000  0.24310000  1
  Al  Al4  1  0.50000000  0.24309999  -0.00000001  1
  Al  Al5  1  0.50000000  0.75689996  0.75689996  1
  Al  Al6  1  0.74424400  0.66666663  0.33333330  1
  Al  Al7  1  0.74424400  0.33333332  0.66666664  1
  Si  Si8  1  0.25575600  0.33333332  0.66666664  1
  Al  Al9  1  0.25575600  0.66666663  0.33333330  1
  Si  Si10  1  0.50000000  0.00000000  0.60496699  1
  Fe  Fe11  1  0.50000000  0.60496697  -0.00000002  1
  Fe  Fe12  1  0.50000000  0.39503298  0.39503298  1
  Si  Si13  1  -0.00000000  0.99999995  0.39823096  1
  Si  Si14  1  1.00000000  0.39823098  -0.00000001  1
  Si  Si15  1  -0.00000000  0.60176897  0.60176897  1
