# generated using pymatgen
data_Na2B5PO12
_symmetry_space_group_name_H-M   'P 1'
_cell_length_a   6.42380857
_cell_length_b   6.42380857
_cell_length_c   6.43835592
_cell_angle_alpha   62.41178513
_cell_angle_beta   62.41178513
_cell_angle_gamma   79.03305054
_symmetry_Int_Tables_number   1
_chemical_formula_structural   Na2B5PO12
_chemical_formula_sum   'Na2 B5 P1 O12'
_cell_volume   208.59976233
_cell_formula_units_Z   1
loop_
 _symmetry_equiv_pos_site_id
 _symmetry_equiv_pos_as_xyz
  1  'x, y, z'
loop_
 _atom_site_type_symbol
 _atom_site_label
 _atom_site_symmetry_multiplicity
 _atom_site_fract_x
 _atom_site_fract_y
 _atom_site_fract_z
 _atom_site_occupancy
  Na  Na0  1  0.70171903  0.29828100  0.24999995  1
  Na  Na1  1  0.29828108  0.70171901  0.74999991  1
  B  B2  1  0.72240403  0.27759600  0.74999993  1
  B  B3  1  0.70630709  0.84039701  0.08511991  1
  B  B4  1  0.15960303  0.29369300  0.41487996  1
  P  P5  1  0.27759608  0.72240401  0.24999993  1
  B  B6  1  0.84039708  0.70630701  0.58511990  1
  B  B7  1  0.29369302  0.15960300  0.91487995  1
  O  O8  1  0.88511808  0.70893301  0.00417992  1
  O  O9  1  0.29106701  0.11488200  0.49581997  1
  O  O10  1  0.49102208  0.71841801  0.28866992  1
  O  O11  1  0.28158205  0.50897800  0.21132995  1
  O  O12  1  0.50897803  0.28158200  0.71132994  1
  O  O13  1  0.71841805  0.49102200  0.78866992  1
  O  O14  1  0.08396208  0.71227801  0.49259493  1
  O  O15  1  0.28772210  0.91603801  0.00740492  1
  O  O16  1  0.91603803  0.28772200  0.50740494  1
  O  O17  1  0.71227801  0.08396200  0.99259494  1
  O  O18  1  0.70893310  0.88511801  0.50417990  1
  O  O19  1  0.11488203  0.29106700  0.99581994  1
