# generated using pymatgen
data_Li2TiO3
_symmetry_space_group_name_H-M   'P 1'
_cell_length_a   3.03179598
_cell_length_b   6.04968548
_cell_length_c   6.59951067
_cell_angle_alpha   103.69481659
_cell_angle_beta   103.27932739
_cell_angle_gamma   90.00000000
_symmetry_Int_Tables_number   1
_chemical_formula_structural   Li2TiO3
_chemical_formula_sum   'Li4 Ti2 O6'
_cell_volume   114.26918730
_cell_formula_units_Z   2
loop_
 _symmetry_equiv_pos_site_id
 _symmetry_equiv_pos_as_xyz
  1  'x, y, z'
loop_
 _atom_site_type_symbol
 _atom_site_label
 _atom_site_symmetry_multiplicity
 _atom_site_fract_x
 _atom_site_fract_y
 _atom_site_fract_z
 _atom_site_occupancy
  Li  Li0  1  0.00000000  0.00000000  0.00000000  1
  Li  Li1  1  0.33687401  0.66835198  0.67374801  1
  Li  Li2  1  0.66312602  0.33164799  0.32625202  1
  Li  Li3  1  0.00000001  0.49999999  -0.00000002  1
  Ti  Ti4  1  0.33548101  0.16283300  0.67096202  1
  Ti  Ti5  1  0.66451902  0.83716698  0.32903800  1
  O  O6  1  0.84230002  0.40578999  0.68460003  1
  O  O7  1  0.17248700  0.07290900  0.34497401  1
  O  O8  1  0.15770001  0.59420999  0.31539999  1
  O  O9  1  0.50473202  0.74533898  0.00946399  1
  O  O10  1  0.49526801  0.25466099  0.99053603  1
  O  O11  1  0.82751303  0.92709098  0.65502601  1
