# generated using pymatgen
data_MnF3
_symmetry_space_group_name_H-M   'P 1'
_cell_length_a   5.19234324
_cell_length_b   5.19234324
_cell_length_c   5.48256969
_cell_angle_alpha   61.73619080
_cell_angle_beta   61.73619080
_cell_angle_gamma   60.00001144
_symmetry_Int_Tables_number   1
_chemical_formula_structural   MnF3
_chemical_formula_sum   'Mn2 F6'
_cell_volume   107.17854273
_cell_formula_units_Z   2
loop_
 _symmetry_equiv_pos_site_id
 _symmetry_equiv_pos_as_xyz
  1  'x, y, z'
loop_
 _atom_site_type_symbol
 _atom_site_label
 _atom_site_symmetry_multiplicity
 _atom_site_fract_x
 _atom_site_fract_y
 _atom_site_fract_z
 _atom_site_occupancy
  Mn  Mn0  1  0.50000003  0.50000000  0.49999995  1
  Mn  Mn1  1  0.00000000  0.00000000  0.00000000  1
  F  F2  1  0.62119402  0.24682500  0.24517996  1
  F  F3  1  0.88680104  0.62119399  0.24517994  1
  F  F4  1  0.11319902  0.37880600  0.75481997  1
  F  F5  1  0.37880604  0.75317499  0.75481994  1
  F  F6  1  0.24682505  0.88680099  0.24517994  1
  F  F7  1  0.75317501  0.11319900  0.75481996  1
