# generated using pymatgen
data_Al3Cu5
_symmetry_space_group_name_H-M   'P 1'
_cell_length_a   4.92343998
_cell_length_b   4.92456198
_cell_length_c   9.85498047
_cell_angle_alpha   90.00000000
_cell_angle_beta   90.00000000
_cell_angle_gamma   90.00000000
_symmetry_Int_Tables_number   1
_chemical_formula_structural   Al3Cu5
_chemical_formula_sum   'Al6 Cu10'
_cell_volume   238.94174079
_cell_formula_units_Z   2
loop_
 _symmetry_equiv_pos_site_id
 _symmetry_equiv_pos_as_xyz
  1  'x, y, z'
loop_
 _atom_site_type_symbol
 _atom_site_label
 _atom_site_symmetry_multiplicity
 _atom_site_fract_x
 _atom_site_fract_y
 _atom_site_fract_z
 _atom_site_occupancy
  Al  Al0  1  0.50000000  0.50000000  0.24999999  1
  Al  Al1  1  0.00000000  0.00000000  0.99998695  1
  Al  Al2  1  0.00000000  0.00000000  0.50001298  1
  Al  Al3  1  0.50000000  0.50000000  0.74999996  1
  Al  Al4  1  0.50000000  0.00000000  0.62462197  1
  Al  Al5  1  0.50000000  0.00000000  0.12555899  1
  Cu  Cu6  1  0.75028000  0.50000000  0.99948595  1
  Cu  Cu7  1  0.75028000  0.50000000  0.50051398  1
  Cu  Cu8  1  0.00000000  0.24983700  0.74999996  1
  Cu  Cu9  1  0.00000000  0.25074900  0.24999999  1
  Cu  Cu10  1  0.50000000  0.00000000  0.87537796  1
  Cu  Cu11  1  0.50000000  0.00000000  0.37444098  1
  Cu  Cu12  1  0.24972000  0.50000000  0.99948595  1
  Cu  Cu13  1  0.24972000  0.50000000  0.50051398  1
  Cu  Cu14  1  0.00000000  0.75016300  0.74999996  1
  Cu  Cu15  1  0.00000000  0.74925100  0.24999999  1
