# generated using pymatgen
data_TbAl4Ni
_symmetry_space_group_name_H-M   'P 1'
_cell_length_a   4.02439213
_cell_length_b   6.65822315
_cell_length_c   7.88136768
_cell_angle_alpha   90.00000000
_cell_angle_beta   104.79198456
_cell_angle_gamma   90.00000000
_symmetry_Int_Tables_number   1
_chemical_formula_structural   TbAl4Ni
_chemical_formula_sum   'Tb2 Al8 Ni2'
_cell_volume   204.18480609
_cell_formula_units_Z   2
loop_
 _symmetry_equiv_pos_site_id
 _symmetry_equiv_pos_as_xyz
  1  'x, y, z'
loop_
 _atom_site_type_symbol
 _atom_site_label
 _atom_site_symmetry_multiplicity
 _atom_site_fract_x
 _atom_site_fract_y
 _atom_site_fract_z
 _atom_site_occupancy
  Tb  Tb0  1  0.88052697  0.24999999  0.76105398  1
  Tb  Tb1  1  0.11947300  0.74999998  0.23894599  1
  Al  Al2  1  0.49999998  0.00000000  -0.00000000  1
  Al  Al3  1  0.49999998  0.49999999  -0.00000000  1
  Al  Al4  1  0.07527100  0.24999999  0.15054200  1
  Al  Al5  1  0.92472897  0.74999998  0.84945798  1
  Al  Al6  1  0.68754498  0.05339000  0.37508999  1
  Al  Al7  1  0.31245499  0.94660998  0.62490998  1
  Al  Al8  1  0.31245499  0.55338999  0.62490998  1
  Al  Al9  1  0.68754498  0.44660999  0.37508999  1
  Ni  Ni10  1  0.22795899  0.24999999  0.45591799  1
  Ni  Ni11  1  0.77204097  0.74999998  0.54408198  1
