# generated using pymatgen
data_Li7Co3O10
_symmetry_space_group_name_H-M   'P 1'
_cell_length_a   5.02038956
_cell_length_b   5.80254221
_cell_length_c   6.49911356
_cell_angle_alpha   102.70391083
_cell_angle_beta   97.42281342
_cell_angle_gamma   106.50559998
_symmetry_Int_Tables_number   1
_chemical_formula_structural   Li7Co3O10
_chemical_formula_sum   'Li7 Co3 O10'
_cell_volume   173.32226377
_cell_formula_units_Z   1
loop_
 _symmetry_equiv_pos_site_id
 _symmetry_equiv_pos_as_xyz
  1  'x, y, z'
loop_
 _atom_site_type_symbol
 _atom_site_label
 _atom_site_symmetry_multiplicity
 _atom_site_fract_x
 _atom_site_fract_y
 _atom_site_fract_z
 _atom_site_occupancy
  Li  Li0  1  0.19996403  0.40001901  0.39986401  1
  Li  Li1  1  0.40090105  0.79913203  0.79714503  1
  Li  Li2  1  0.59579800  0.19623501  0.19712700  1
  Li  Li3  1  0.80428603  0.60387202  0.60285302  1
  Li  Li4  1  0.99909098  0.00093500  0.00302799  1
  Li  Li5  1  0.60180604  0.70105702  0.19919803  1
  Co  Co6  1  0.79811499  0.09883500  0.60079199  1
  Li  Li7  1  0.00108304  0.50131602  0.00069603  1
  Co  Co8  1  0.20006906  0.90000203  0.39994604  1
  Co  Co9  1  0.39892902  0.29866501  0.79932800  1
  O  O10  1  0.10420207  0.95945303  0.68265004  1
  O  O11  1  0.09991303  0.43148301  0.71610501  1
  O  O12  1  0.29631206  0.84098803  0.11752704  1
  O  O13  1  0.30015602  0.36847901  0.08389602  1
  O  O14  1  0.49476005  0.76687403  0.48923303  1
  O  O15  1  0.48715001  0.23003901  0.51056300  1
  O  O16  1  0.70538603  0.63135002  0.90739302  1
  O  O17  1  0.69387300  0.16809801  0.89235199  1
  O  O18  1  0.91282503  0.57003002  0.28949802  1
  O  O19  1  0.90531799  0.03307100  0.31076199  1
