# generated using pymatgen
data_LaBi(SeO)2
_symmetry_space_group_name_H-M   'P 1'
_cell_length_a   4.27280712
_cell_length_b   4.27280712
_cell_length_c   7.17790222
_cell_angle_alpha   90.00000000
_cell_angle_beta   90.00000000
_cell_angle_gamma   90.00000000
_symmetry_Int_Tables_number   1
_chemical_formula_structural   LaBi(SeO)2
_chemical_formula_sum   'La1 Bi1 Se2 O2'
_cell_volume   131.04610451
_cell_formula_units_Z   1
loop_
 _symmetry_equiv_pos_site_id
 _symmetry_equiv_pos_as_xyz
  1  'x, y, z'
loop_
 _atom_site_type_symbol
 _atom_site_label
 _atom_site_symmetry_multiplicity
 _atom_site_fract_x
 _atom_site_fract_y
 _atom_site_fract_z
 _atom_site_occupancy
  La  La0  1  0.00000000  0.49999999  0.82329197  1
  Bi  Bi1  1  0.49999999  0.00000000  0.17670799  1
  Se  Se2  1  0.49999999  0.00000000  0.63162298  1
  Se  Se3  1  0.00000000  0.49999999  0.36837699  1
  O  O4  1  0.00000000  0.00000000  0.00000000  1
  O  O5  1  0.49999999  0.49999999  0.00000000  1
