# generated using pymatgen
data_Cs2Sc2CoCl11
_symmetry_space_group_name_H-M   'P 1'
_cell_length_a   7.61014414
_cell_length_b   7.61014414
_cell_length_c   10.38746738
_cell_angle_alpha   111.48845673
_cell_angle_beta   111.48845673
_cell_angle_gamma   90.00000000
_symmetry_Int_Tables_number   1
_chemical_formula_structural   Cs2Sc2CoCl11
_chemical_formula_sum   'Cs2 Sc2 Co1 Cl11'
_cell_volume   514.56557605
_cell_formula_units_Z   1
loop_
 _symmetry_equiv_pos_site_id
 _symmetry_equiv_pos_as_xyz
  1  'x, y, z'
loop_
 _atom_site_type_symbol
 _atom_site_label
 _atom_site_symmetry_multiplicity
 _atom_site_fract_x
 _atom_site_fract_y
 _atom_site_fract_z
 _atom_site_occupancy
  Cs  Cs0  1  0.75000001  0.25000000  0.50000004  1
  Cs  Cs1  1  0.25000003  0.75000000  0.50000005  1
  Sc  Sc2  1  0.50000002  0.50000000  0.00000004  1
  Sc  Sc3  1  0.89676203  0.89676200  0.79352408  1
  Co  Co4  1  0.10323800  0.10323800  0.20647601  1
  Cl  Cl5  1  0.76210603  0.76210600  0.52421207  1
  Cl  Cl6  1  0.23789401  0.23789400  0.47578803  1
  Cl  Cl7  1  0.11028603  0.66950800  0.77979405  1
  Cl  Cl8  1  0.66950800  0.11028600  0.77979404  1
  Cl  Cl9  1  0.11028600  0.11028600  0.77979402  1
  Cl  Cl10  1  0.66950802  0.66950800  0.77979406  1
  Cl  Cl11  1  0.88971401  0.33049200  0.22020605  1
  Cl  Cl12  1  0.33049203  0.88971400  0.22020605  1
  Cl  Cl13  1  0.88971403  0.88971400  0.22020607  1
  Cl  Cl14  1  0.33049201  0.33049200  0.22020603  1
  Cl  Cl15  1  0.00000000  0.00000000  0.00000000  1
