# generated using pymatgen
data_LaTlPd4
_symmetry_space_group_name_H-M   'P 1'
_cell_length_a   5.45761824
_cell_length_b   5.45761824
_cell_length_c   5.45761824
_cell_angle_alpha   60.00000000
_cell_angle_beta   60.00000000
_cell_angle_gamma   60.00000000
_symmetry_Int_Tables_number   1
_chemical_formula_structural   LaTlPd4
_chemical_formula_sum   'La1 Tl1 Pd4'
_cell_volume   114.94615855
_cell_formula_units_Z   1
loop_
 _symmetry_equiv_pos_site_id
 _symmetry_equiv_pos_as_xyz
  1  'x, y, z'
loop_
 _atom_site_type_symbol
 _atom_site_label
 _atom_site_symmetry_multiplicity
 _atom_site_fract_x
 _atom_site_fract_y
 _atom_site_fract_z
 _atom_site_occupancy
  La  La0  1  0.50000002  0.50000002  0.50000002  1
  Tl  Tl1  1  0.25000001  0.25000001  0.25000001  1
  Pd  Pd2  1  0.37500001  0.87500003  0.87500003  1
  Pd  Pd3  1  0.87500003  0.87500003  0.37500001  1
  Pd  Pd4  1  0.87500003  0.87500003  0.87500003  1
  Pd  Pd5  1  0.87500003  0.37500001  0.87500003  1
