# generated using pymatgen
data_Al(Ga2Co7)2
_symmetry_space_group_name_H-M   'P 1'
_cell_length_a   3.60876989
_cell_length_b   3.60876989
_cell_length_c   18.45622444
_cell_angle_alpha   90.00000000
_cell_angle_beta   90.00000000
_cell_angle_gamma   90.00000000
_symmetry_Int_Tables_number   1
_chemical_formula_structural   Al(Ga2Co7)2
_chemical_formula_sum   'Al1 Ga4 Co14'
_cell_volume   240.35947395
_cell_formula_units_Z   1
loop_
 _symmetry_equiv_pos_site_id
 _symmetry_equiv_pos_as_xyz
  1  'x, y, z'
loop_
 _atom_site_type_symbol
 _atom_site_label
 _atom_site_symmetry_multiplicity
 _atom_site_fract_x
 _atom_site_fract_y
 _atom_site_fract_z
 _atom_site_occupancy
  Al  Al0  1  0.00000000  0.00000000  0.19104800  1
  Ga  Ga1  1  0.00000000  0.00000000  0.39665299  1
  Ga  Ga2  1  0.00000000  0.00000000  0.60334699  1
  Ga  Ga3  1  0.00000000  0.00000000  0.80895198  1
  Ga  Ga4  1  0.50000001  0.50000001  0.00000000  1
  Co  Co5  1  0.50000001  0.50000001  0.18961600  1
  Co  Co6  1  0.50000001  0.50000001  0.39659899  1
  Co  Co7  1  0.50000001  0.50000001  0.60340099  1
  Co  Co8  1  0.50000001  0.50000001  0.81038398  1
  Co  Co9  1  0.50000001  0.00000000  0.09000100  1
  Co  Co10  1  0.50000001  0.00000000  0.29269999  1
  Co  Co11  1  0.50000001  0.00000000  0.49999999  1
  Co  Co12  1  0.50000001  0.00000000  0.70729998  1
  Co  Co13  1  0.50000001  0.00000000  0.90999898  1
  Co  Co14  1  0.00000000  0.50000001  0.09000100  1
  Co  Co15  1  0.00000000  0.50000001  0.29269999  1
  Co  Co16  1  0.00000000  0.50000001  0.49999999  1
  Co  Co17  1  0.00000000  0.50000001  0.70729998  1
  Co  Co18  1  0.00000000  0.50000001  0.90999898  1
