# generated using pymatgen
data_NaH3O4
_symmetry_space_group_name_H-M   'P 1'
_cell_length_a   4.17621279
_cell_length_b   6.43950367
_cell_length_c   7.20690632
_cell_angle_alpha   70.63074493
_cell_angle_beta   89.39181519
_cell_angle_gamma   89.31600952
_symmetry_Int_Tables_number   1
_chemical_formula_structural   NaH3O4
_chemical_formula_sum   'Na2 H6 O8'
_cell_volume   182.82616782
_cell_formula_units_Z   2
loop_
 _symmetry_equiv_pos_site_id
 _symmetry_equiv_pos_as_xyz
  1  'x, y, z'
loop_
 _atom_site_type_symbol
 _atom_site_label
 _atom_site_symmetry_multiplicity
 _atom_site_fract_x
 _atom_site_fract_y
 _atom_site_fract_z
 _atom_site_occupancy
  Na  Na0  1  0.74884703  0.13489201  0.71798704  1
  Na  Na1  1  0.25115294  0.86510804  0.28201298  1
  H  H2  1  0.24816398  0.35070302  0.93743502  1
  H  H3  1  0.75183598  0.64929703  0.06256500  1
  H  H4  1  0.24990695  0.76749303  0.83225800  1
  H  H5  1  0.75009302  0.23250701  0.16774202  1
  H  H6  1  0.44062600  0.31508301  0.33879801  1
  H  H7  1  0.05633698  0.31942101  0.33820800  1
  O  O8  1  0.94932099  0.65971403  0.65890102  1
  O  O9  1  0.55937397  0.68491703  0.66120201  1
  O  O10  1  0.24805098  0.38925602  0.37860900  1
  O  O11  1  0.75622299  0.59818603  0.61385302  1
  O  O12  1  0.24257900  0.20037601  0.93612803  1
  O  O13  1  0.75742097  0.79962403  0.06387199  1
  O  O14  1  0.26699195  0.81887904  0.68884800  1
  O  O15  1  0.75058702  0.17110201  0.30652103  1
