# generated using pymatgen
data_Cu2TeSe3
_symmetry_space_group_name_H-M   'P 1'
_cell_length_a   3.81095695
_cell_length_b   5.04209185
_cell_length_c   6.21856308
_cell_angle_alpha   90.00000000
_cell_angle_beta   90.00000000
_cell_angle_gamma   90.00000000
_symmetry_Int_Tables_number   1
_chemical_formula_structural   Cu2TeSe3
_chemical_formula_sum   'Cu2 Te1 Se3'
_cell_volume   119.49090214
_cell_formula_units_Z   1
loop_
 _symmetry_equiv_pos_site_id
 _symmetry_equiv_pos_as_xyz
  1  'x, y, z'
loop_
 _atom_site_type_symbol
 _atom_site_label
 _atom_site_symmetry_multiplicity
 _atom_site_fract_x
 _atom_site_fract_y
 _atom_site_fract_z
 _atom_site_occupancy
  Cu  Cu0  1  0.00000000  0.00000000  0.00000000  1
  Cu  Cu1  1  0.50000001  0.50000002  0.49999999  1
  Te  Te2  1  0.00000000  0.18812301  0.38530800  1
  Se  Se3  1  0.00000000  0.81187702  0.61469199  1
  Se  Se4  1  0.50000001  0.68812302  0.11469200  1
  Se  Se5  1  0.50000001  0.31187701  0.88530799  1
