# generated using pymatgen
data_DyGeRh
_symmetry_space_group_name_H-M   'P 1'
_cell_length_a   4.36626005
_cell_length_b   7.08927917
_cell_length_c   7.48457098
_cell_angle_alpha   90.00000000
_cell_angle_beta   90.00000000
_cell_angle_gamma   90.00000000
_symmetry_Int_Tables_number   1
_chemical_formula_structural   DyGeRh
_chemical_formula_sum   'Dy4 Ge4 Rh4'
_cell_volume   231.67468915
_cell_formula_units_Z   4
loop_
 _symmetry_equiv_pos_site_id
 _symmetry_equiv_pos_as_xyz
  1  'x, y, z'
loop_
 _atom_site_type_symbol
 _atom_site_label
 _atom_site_symmetry_multiplicity
 _atom_site_fract_x
 _atom_site_fract_y
 _atom_site_fract_z
 _atom_site_occupancy
  Dy  Dy0  1  0.25000000  0.02176800  0.79857300  1
  Dy  Dy1  1  0.25000000  0.52176799  0.70142700  1
  Dy  Dy2  1  0.74999999  0.97823198  0.20142700  1
  Dy  Dy3  1  0.74999999  0.47823199  0.29857300  1
  Ge  Ge4  1  0.25000000  0.18258900  0.42065100  1
  Ge  Ge5  1  0.25000000  0.68258898  0.07934900  1
  Ge  Ge6  1  0.74999999  0.81741098  0.57934900  1
  Ge  Ge7  1  0.74999999  0.31741099  0.92065100  1
  Rh  Rh8  1  0.25000000  0.79739598  0.40963000  1
  Rh  Rh9  1  0.25000000  0.29739599  0.09037000  1
  Rh  Rh10  1  0.74999999  0.20260400  0.59037000  1
  Rh  Rh11  1  0.74999999  0.70260398  0.90963000  1
