# generated using pymatgen
data_SrFeO3
_symmetry_space_group_name_H-M   'P 1'
_cell_length_a   5.54473019
_cell_length_b   5.54473019
_cell_length_c   7.78643417
_cell_angle_alpha   90.00000000
_cell_angle_beta   90.00000000
_cell_angle_gamma   90.72437286
_symmetry_Int_Tables_number   1
_chemical_formula_structural   SrFeO3
_chemical_formula_sum   'Sr4 Fe4 O12'
_cell_volume   239.36725672
_cell_formula_units_Z   4
loop_
 _symmetry_equiv_pos_site_id
 _symmetry_equiv_pos_as_xyz
  1  'x, y, z'
loop_
 _atom_site_type_symbol
 _atom_site_label
 _atom_site_symmetry_multiplicity
 _atom_site_fract_x
 _atom_site_fract_y
 _atom_site_fract_z
 _atom_site_occupancy
  Sr  Sr0  1  0.00171102  0.99828900  0.24999999  1
  Sr  Sr1  1  0.99828900  0.00171100  0.74999998  1
  Sr  Sr2  1  0.50157201  0.49842800  0.24999999  1
  Sr  Sr3  1  0.49842801  0.50157200  0.74999998  1
  Fe  Fe4  1  0.00000001  0.50000000  0.49999999  1
  Fe  Fe5  1  0.50000000  0.00000000  0.49999999  1
  Fe  Fe6  1  0.00000001  0.50000000  0.99999998  1
  Fe  Fe7  1  0.50000000  0.00000000  0.99999998  1
  O  O8  1  0.75012802  0.75012800  0.49999999  1
  O  O9  1  0.75012802  0.75012800  0.99999998  1
  O  O10  1  0.24987201  0.24987200  0.49999999  1
  O  O11  1  0.24987201  0.24987200  -0.00000000  1
  O  O12  1  0.25526902  0.74473100  0.45833299  1
  O  O13  1  0.74473101  0.25526900  0.54166699  1
  O  O14  1  0.25526902  0.74473100  0.04166700  1
  O  O15  1  0.74473101  0.25526900  0.95833298  1
  O  O16  1  0.95310201  0.46362000  0.24999999  1
  O  O17  1  0.46362002  0.95310200  0.74999998  1
  O  O18  1  0.04689801  0.53638000  0.74999998  1
  O  O19  1  0.53638000  0.04689800  0.24999999  1
