# generated using pymatgen
data_CsLuInSe3
_symmetry_space_group_name_H-M   'P 1'
_cell_length_a   4.27302790
_cell_length_b   8.80915165
_cell_length_c   11.75148201
_cell_angle_alpha   90.00000000
_cell_angle_beta   90.00000000
_cell_angle_gamma   104.03611755
_symmetry_Int_Tables_number   1
_chemical_formula_structural   CsLuInSe3
_chemical_formula_sum   'Cs2 Lu2 In2 Se6'
_cell_volume   429.13923620
_cell_formula_units_Z   2
loop_
 _symmetry_equiv_pos_site_id
 _symmetry_equiv_pos_as_xyz
  1  'x, y, z'
loop_
 _atom_site_type_symbol
 _atom_site_label
 _atom_site_symmetry_multiplicity
 _atom_site_fract_x
 _atom_site_fract_y
 _atom_site_fract_z
 _atom_site_occupancy
  Cs  Cs0  1  0.74547005  0.49093999  0.75000000  1
  Cs  Cs1  1  0.25453004  0.50905999  0.25000000  1
  Lu  Lu2  1  0.00000000  0.00000000  0.00000000  1
  Lu  Lu3  1  0.00000000  0.00000000  0.50000000  1
  In  In4  1  0.46229707  0.92459399  0.75000000  1
  In  In5  1  0.53770302  0.07540600  0.25000000  1
  Se  Se6  1  0.37309506  0.74618999  0.93622100  1
  Se  Se7  1  0.62690503  0.25381000  0.06377900  1
  Se  Se8  1  0.62690503  0.25381000  0.43622100  1
  Se  Se9  1  0.37309506  0.74618999  0.56377900  1
  Se  Se10  1  0.06214101  0.12428200  0.75000000  1
  Se  Se11  1  0.93785908  0.87571799  0.25000000  1
