# generated using pymatgen
data_Na3Zr(BiO7)2
_symmetry_space_group_name_H-M   'P 1'
_cell_length_a   5.84145784
_cell_length_b   7.21132803
_cell_length_c   7.65241289
_cell_angle_alpha   90.00000000
_cell_angle_beta   90.00000000
_cell_angle_gamma   90.00000000
_symmetry_Int_Tables_number   1
_chemical_formula_structural   Na3Zr(BiO7)2
_chemical_formula_sum   'Na3 Zr1 Bi2 O14'
_cell_volume   322.35535767
_cell_formula_units_Z   1
loop_
 _symmetry_equiv_pos_site_id
 _symmetry_equiv_pos_as_xyz
  1  'x, y, z'
loop_
 _atom_site_type_symbol
 _atom_site_label
 _atom_site_symmetry_multiplicity
 _atom_site_fract_x
 _atom_site_fract_y
 _atom_site_fract_z
 _atom_site_occupancy
  Na  Na0  1  0.97936103  0.00000000  0.50000001  1
  Na  Na1  1  0.02063900  0.50000000  0.00000000  1
  Na  Na2  1  0.62655602  0.00000000  -0.00000000  1
  Zr  Zr3  1  0.37344401  0.50000000  0.50000001  1
  Bi  Bi4  1  0.49996101  0.50000000  0.65905601  1
  Bi  Bi5  1  0.50003901  0.00000000  0.15905600  1
  O  O6  1  0.50003901  0.00000000  0.84094401  1
  O  O7  1  0.49996101  0.50000000  0.34094400  1
  O  O8  1  0.75205802  0.18973800  0.50000001  1
  O  O9  1  0.22405601  0.18380300  0.50000001  1
  O  O10  1  0.01392600  0.50000000  0.75012901  1
  O  O11  1  0.75205802  0.81026200  0.50000001  1
  O  O12  1  0.98607403  0.00000000  0.25012900  1
  O  O13  1  0.77594402  0.31619700  0.00000000  1
  O  O14  1  0.98607403  0.00000000  0.74987101  1
  O  O15  1  0.22405601  0.81619700  0.50000001  1
  O  O16  1  0.01392600  0.50000000  0.24987100  1
  O  O17  1  0.77594402  0.68380300  0.00000000  1
  O  O18  1  0.24794201  0.31026200  0.00000000  1
  O  O19  1  0.24794201  0.68973800  -0.00000000  1
