# generated using pymatgen
data_LiLa3Mn2(FeO6)2
_symmetry_space_group_name_H-M   'P 1'
_cell_length_a   5.45994520
_cell_length_b   5.61053133
_cell_length_c   7.79154015
_cell_angle_alpha   90.00000000
_cell_angle_beta   90.00000000
_cell_angle_gamma   89.93809509
_symmetry_Int_Tables_number   1
_chemical_formula_structural   LiLa3Mn2(FeO6)2
_chemical_formula_sum   'Li1 La3 Mn2 Fe2 O12'
_cell_volume   238.67961854
_cell_formula_units_Z   1
loop_
 _symmetry_equiv_pos_site_id
 _symmetry_equiv_pos_as_xyz
  1  'x, y, z'
loop_
 _atom_site_type_symbol
 _atom_site_label
 _atom_site_symmetry_multiplicity
 _atom_site_fract_x
 _atom_site_fract_y
 _atom_site_fract_z
 _atom_site_occupancy
  La  La0  1  0.48992000  0.54421499  0.49999999  1
  Li  Li1  1  0.01467300  0.05421800  0.49999999  1
  La  La2  1  0.51491399  0.44295700  -0.00000000  1
  La  La3  1  0.98655599  0.94630199  -0.00000000  1
  Mn  Mn4  1  0.00068501  0.50059699  0.24748300  1
  Mn  Mn5  1  0.49916001  0.99832799  0.75184899  1
  Fe  Fe6  1  0.00068501  0.50059699  0.75251699  1
  Fe  Fe7  1  0.49916001  0.99832799  0.24815100  1
  O  O8  1  0.19896401  0.79906099  0.29747399  1
  O  O9  1  0.29227800  0.29053800  0.70452699  1
  O  O10  1  0.79378898  0.20696500  0.80281598  1
  O  O11  1  0.70407799  0.70518099  0.19608400  1
  O  O12  1  0.79378898  0.20696500  0.19718400  1
  O  O13  1  0.70407799  0.70518099  0.80391598  1
  O  O14  1  0.19896401  0.79906099  0.70252599  1
  O  O15  1  0.29227800  0.29053800  0.29547299  1
  O  O16  1  0.59682500  0.98048799  0.49999999  1
  O  O17  1  0.91766298  0.47064599  0.49999999  1
  O  O18  1  0.40276399  0.02864100  -0.00000000  1
  O  O19  1  0.09877701  0.53119299  -0.00000000  1
