# generated using pymatgen
data_Y2Al3Cu
_symmetry_space_group_name_H-M   'P 1'
_cell_length_a   5.45359898
_cell_length_b   5.45359898
_cell_length_c   5.45359898
_cell_angle_alpha   88.59339905
_cell_angle_beta   60.70579147
_cell_angle_gamma   119.08839417
_symmetry_Int_Tables_number   1
_chemical_formula_structural   Y2Al3Cu
_chemical_formula_sum   'Y2 Al3 Cu1'
_cell_volume   116.05602300
_cell_formula_units_Z   1
loop_
 _symmetry_equiv_pos_site_id
 _symmetry_equiv_pos_as_xyz
  1  'x, y, z'
loop_
 _atom_site_type_symbol
 _atom_site_label
 _atom_site_symmetry_multiplicity
 _atom_site_fract_x
 _atom_site_fract_y
 _atom_site_fract_z
 _atom_site_occupancy
  Y  Y0  1  0.25000000  0.37599099  0.87400894  1
  Y  Y1  1  0.74999997  0.62400898  0.12599097  1
  Al  Al2  1  0.49999997  0.00000000  0.99999997  1
  Al  Al3  1  0.00000000  0.00000000  0.49999998  1
  Al  Al4  1  0.00000001  0.49999999  0.49999994  1
  Cu  Cu5  1  0.49999997  0.00000000  0.49999999  1
