# generated using pymatgen
data_PrSb3
_symmetry_space_group_name_H-M   'P 1'
_cell_length_a   4.42305279
_cell_length_b   4.42305279
_cell_length_c   10.28045654
_cell_angle_alpha   90.00000000
_cell_angle_beta   90.00000000
_cell_angle_gamma   90.00000000
_symmetry_Int_Tables_number   1
_chemical_formula_structural   PrSb3
_chemical_formula_sum   'Pr2 Sb6'
_cell_volume   201.12064204
_cell_formula_units_Z   2
loop_
 _symmetry_equiv_pos_site_id
 _symmetry_equiv_pos_as_xyz
  1  'x, y, z'
loop_
 _atom_site_type_symbol
 _atom_site_label
 _atom_site_symmetry_multiplicity
 _atom_site_fract_x
 _atom_site_fract_y
 _atom_site_fract_z
 _atom_site_occupancy
  Pr  Pr0  1  0.00000000  0.50000002  0.75481203  1
  Pr  Pr1  1  0.50000002  0.00000000  0.24518801  1
  Sb  Sb2  1  0.50000002  0.50000002  -0.00000000  1
  Sb  Sb3  1  0.00000000  0.00000000  0.00000000  1
  Sb  Sb4  1  0.00000000  0.50000002  0.31874501  1
  Sb  Sb5  1  0.50000002  0.00000000  0.68125503  1
  Sb  Sb6  1  0.50000002  0.50000002  0.50000002  1
  Sb  Sb7  1  0.00000000  0.00000000  0.50000002  1
