# generated using pymatgen
data_DySiIr
_symmetry_space_group_name_H-M   'P 1'
_cell_length_a   4.34508085
_cell_length_b   6.96246386
_cell_length_c   7.55707312
_cell_angle_alpha   90.00000000
_cell_angle_beta   90.00000000
_cell_angle_gamma   90.00000000
_symmetry_Int_Tables_number   1
_chemical_formula_structural   DySiIr
_chemical_formula_sum   'Dy4 Si4 Ir4'
_cell_volume   228.62011554
_cell_formula_units_Z   4
loop_
 _symmetry_equiv_pos_site_id
 _symmetry_equiv_pos_as_xyz
  1  'x, y, z'
loop_
 _atom_site_type_symbol
 _atom_site_label
 _atom_site_symmetry_multiplicity
 _atom_site_fract_x
 _atom_site_fract_y
 _atom_site_fract_z
 _atom_site_occupancy
  Dy  Dy0  1  0.25000001  0.99840002  0.30336200  1
  Dy  Dy1  1  0.25000001  0.49840001  0.19663800  1
  Dy  Dy2  1  0.75000003  0.00160000  0.69663799  1
  Dy  Dy3  1  0.75000003  0.50160001  0.80336199  1
  Si  Si4  1  0.25000001  0.29091801  0.60176799  1
  Si  Si5  1  0.25000001  0.79091802  0.89823199  1
  Si  Si6  1  0.75000003  0.70908201  0.39823199  1
  Si  Si7  1  0.75000003  0.20908200  0.10176800  1
  Ir  Ir8  1  0.25000001  0.16089600  0.92830899  1
  Ir  Ir9  1  0.25000001  0.66089601  0.57169099  1
  Ir  Ir10  1  0.75000003  0.83910402  0.07169100  1
  Ir  Ir11  1  0.75000003  0.33910401  0.42830899  1
