# generated using pymatgen
data_NdB3Rh5
_symmetry_space_group_name_H-M   'P 1'
_cell_length_a   5.38017178
_cell_length_b   5.38017178
_cell_length_c   7.47309923
_cell_angle_alpha   90.00000000
_cell_angle_beta   90.00000000
_cell_angle_gamma   90.00000000
_symmetry_Int_Tables_number   1
_chemical_formula_structural   NdB3Rh5
_chemical_formula_sum   'Nd2 B6 Rh10'
_cell_volume   216.31818621
_cell_formula_units_Z   2
loop_
 _symmetry_equiv_pos_site_id
 _symmetry_equiv_pos_as_xyz
  1  'x, y, z'
loop_
 _atom_site_type_symbol
 _atom_site_label
 _atom_site_symmetry_multiplicity
 _atom_site_fract_x
 _atom_site_fract_y
 _atom_site_fract_z
 _atom_site_occupancy
  Nd  Nd0  1  0.50000002  0.00000000  0.24784299  1
  Nd  Nd1  1  0.00000000  0.50000002  0.74784298  1
  B  B2  1  0.32873901  0.50000002  0.40386499  1
  B  B3  1  0.67126103  0.50000002  0.40386499  1
  B  B4  1  0.50000002  0.32873901  0.90386497  1
  B  B5  1  0.50000002  0.67126103  0.90386497  1
  B  B6  1  0.17026101  0.00000000  0.59805398  1
  B  B7  1  0.82973903  0.00000000  0.59805398  1
  Rh  Rh8  1  0.00000000  0.17026101  0.09805400  1
  Rh  Rh9  1  0.00000000  0.82973903  0.09805400  1
  Rh  Rh10  1  0.75201403  0.50000002  0.10526200  1
  Rh  Rh11  1  0.24798601  0.50000002  0.10526200  1
  Rh  Rh12  1  0.50000002  0.75201403  0.60526198  1
  Rh  Rh13  1  0.50000002  0.24798601  0.60526198  1
  Rh  Rh14  1  0.74943603  0.00000000  0.89389597  1
  Rh  Rh15  1  0.25056401  0.00000000  0.89389597  1
  Rh  Rh16  1  -0.00000000  0.74943603  0.39389599  1
  Rh  Rh17  1  -0.00000000  0.25056401  0.39389599  1
