# generated using pymatgen
data_NaMg2O3
_symmetry_space_group_name_H-M   'P 1'
_cell_length_a   5.70430040
_cell_length_b   5.70429897
_cell_length_c   5.75027370
_cell_angle_alpha   66.93695068
_cell_angle_beta   66.93695068
_cell_angle_gamma   65.92510986
_symmetry_Int_Tables_number   1
_chemical_formula_structural   NaMg2O3
_chemical_formula_sum   'Na2 Mg4 O6'
_cell_volume   151.06853160
_cell_formula_units_Z   2
loop_
 _symmetry_equiv_pos_site_id
 _symmetry_equiv_pos_as_xyz
  1  'x, y, z'
loop_
 _atom_site_type_symbol
 _atom_site_label
 _atom_site_symmetry_multiplicity
 _atom_site_fract_x
 _atom_site_fract_y
 _atom_site_fract_z
 _atom_site_occupancy
  Na  Na0  1  0.08415302  0.24562699  0.92260700  1
  Na  Na1  1  0.75437309  0.91584698  0.57739289  1
  Mg  Mg2  1  0.91584707  0.75437298  0.07739288  1
  Mg  Mg3  1  0.24562701  0.08415300  0.42260699  1
  Mg  Mg4  1  0.41103706  0.58896299  0.24999993  1
  Mg  Mg5  1  0.58896304  0.41103699  0.74999995  1
  O  O6  1  0.09839909  0.90160098  0.24999993  1
  O  O7  1  0.90160100  0.09839900  0.74999995  1
  O  O8  1  0.41279802  0.27259699  0.57418096  1
  O  O9  1  0.72740305  0.58720199  0.92581893  1
  O  O10  1  0.58720207  0.72740298  0.42581891  1
  O  O11  1  0.27259704  0.41279799  0.07418095  1
