# generated using pymatgen
data_Dy4Ge9
_symmetry_space_group_name_H-M   'P 1'
_cell_length_a   4.35541010
_cell_length_b   4.39724493
_cell_length_c   16.66052246
_cell_angle_alpha   90.00000000
_cell_angle_beta   90.00000000
_cell_angle_gamma   90.00000000
_symmetry_Int_Tables_number   1
_chemical_formula_structural   Dy4Ge9
_chemical_formula_sum   'Dy4 Ge9'
_cell_volume   319.07907699
_cell_formula_units_Z   1
loop_
 _symmetry_equiv_pos_site_id
 _symmetry_equiv_pos_as_xyz
  1  'x, y, z'
loop_
 _atom_site_type_symbol
 _atom_site_label
 _atom_site_symmetry_multiplicity
 _atom_site_fract_x
 _atom_site_fract_y
 _atom_site_fract_z
 _atom_site_occupancy
  Dy  Dy0  1  0.24999999  0.00000000  0.10088500  1
  Dy  Dy1  1  0.24999999  0.50000001  0.60225102  1
  Dy  Dy2  1  0.74999998  0.50000001  0.39736701  1
  Dy  Dy3  1  0.74999998  0.00000000  0.89973003  1
  Ge  Ge4  1  0.24999999  0.00000000  0.30992501  1
  Ge  Ge5  1  0.24999999  0.50000001  0.23687301  1
  Ge  Ge6  1  0.24999999  0.00000000  0.74576502  1
  Ge  Ge7  1  0.74999998  0.00000000  0.24074101  1
  Ge  Ge8  1  0.74999998  0.50000001  0.75475402  1
  Ge  Ge9  1  0.24999999  0.00000000  0.45513101  1
  Ge  Ge10  1  0.24999999  0.50000001  0.93739203  1
  Ge  Ge11  1  0.74999998  0.50000001  0.06366200  1
  Ge  Ge12  1  0.74999998  0.00000000  0.57252402  1
