# generated using pymatgen
data_HfZr3SiB2Mo2Rh11
_symmetry_space_group_name_H-M   'P 1'
_cell_length_a   3.00172591
_cell_length_b   9.11377716
_cell_length_c   9.20164967
_cell_angle_alpha   90.00000000
_cell_angle_beta   90.00000000
_cell_angle_gamma   90.00000000
_symmetry_Int_Tables_number   1
_chemical_formula_structural   HfZr3SiB2Mo2Rh11
_chemical_formula_sum   'Hf1 Zr3 Si1 B2 Mo2 Rh11'
_cell_volume   251.73009176
_cell_formula_units_Z   1
loop_
 _symmetry_equiv_pos_site_id
 _symmetry_equiv_pos_as_xyz
  1  'x, y, z'
loop_
 _atom_site_type_symbol
 _atom_site_label
 _atom_site_symmetry_multiplicity
 _atom_site_fract_x
 _atom_site_fract_y
 _atom_site_fract_z
 _atom_site_occupancy
  Zr  Zr0  1  -0.00000000  0.32296199  0.82052203  1
  Zr  Zr1  1  -0.00000000  0.67703799  0.17947801  1
  Zr  Zr2  1  0.00000000  0.82296199  0.67947802  1
  Hf  Hf3  1  0.00000000  0.17703800  0.32052201  1
  Mo  Mo4  1  -0.00000000  0.49999999  0.50000002  1
  Mo  Mo5  1  0.00000000  0.00000000  0.00000000  1
  Si  Si6  1  -0.00000000  0.87642098  0.37237801  1
  B  B7  1  -0.00000000  0.12357900  0.62762202  1
  Rh  Rh8  1  0.00000000  0.37642099  0.12762200  1
  Rh  Rh9  1  -0.00000000  0.62357899  0.87237803  1
  Rh  Rh10  1  0.50000001  0.42679699  0.28800801  1
  Rh  Rh11  1  0.50000001  0.57320299  0.71199203  1
  Rh  Rh12  1  0.50000001  0.92679698  0.21199201  1
  B  B13  1  0.50000001  0.07320300  0.78800803  1
  Rh  Rh14  1  0.50000001  0.71568499  0.42703302  1
  Rh  Rh15  1  0.50000001  0.28431499  0.57296702  1
  Rh  Rh16  1  0.50000001  0.78431499  0.92703303  1
  Rh  Rh17  1  0.50000001  0.21568500  0.07296700  1
  Rh  Rh18  1  0.50000001  0.49999999  -0.00000000  1
  Rh  Rh19  1  0.50000001  0.00000000  0.50000002  1
