# generated using pymatgen
data_GaAgTeSe
_symmetry_space_group_name_H-M   'P 1'
_cell_length_a   6.03968430
_cell_length_b   6.09457874
_cell_length_c   7.27427244
_cell_angle_alpha   114.64627075
_cell_angle_beta   114.40755463
_cell_angle_gamma   90.26200104
_symmetry_Int_Tables_number   1
_chemical_formula_structural   GaAgTeSe
_chemical_formula_sum   'Ga2 Ag2 Te2 Se2'
_cell_volume   216.49726146
_cell_formula_units_Z   2
loop_
 _symmetry_equiv_pos_site_id
 _symmetry_equiv_pos_as_xyz
  1  'x, y, z'
loop_
 _atom_site_type_symbol
 _atom_site_label
 _atom_site_symmetry_multiplicity
 _atom_site_fract_x
 _atom_site_fract_y
 _atom_site_fract_z
 _atom_site_occupancy
  Ga  Ga0  1  0.75894000  0.25894000  0.51788002  1
  Ga  Ga1  1  0.49116701  0.49116700  0.98233403  1
  Ag  Ag2  1  0.99265001  0.99265000  0.98530003  1
  Ag  Ag3  1  0.25847802  0.75847800  0.51695601  1
  Te  Te4  1  0.86632500  0.35565400  0.23687601  1
  Te  Te5  1  0.37055102  0.88122200  0.23687601  1
  Se  Se6  1  0.64609201  0.61764000  0.76189002  1
  Se  Se7  1  0.11579800  0.14425000  0.76189002  1
