# generated using pymatgen
data_Nd2Si5Rh
_symmetry_space_group_name_H-M   'P 1'
_cell_length_a   4.18645811
_cell_length_b   4.20903397
_cell_length_c   8.67401600
_cell_angle_alpha   75.95858765
_cell_angle_beta   90.00000000
_cell_angle_gamma   90.00000000
_symmetry_Int_Tables_number   1
_chemical_formula_structural   Nd2Si5Rh
_chemical_formula_sum   'Nd2 Si5 Rh1'
_cell_volume   148.27745840
_cell_formula_units_Z   1
loop_
 _symmetry_equiv_pos_site_id
 _symmetry_equiv_pos_as_xyz
  1  'x, y, z'
loop_
 _atom_site_type_symbol
 _atom_site_label
 _atom_site_symmetry_multiplicity
 _atom_site_fract_x
 _atom_site_fract_y
 _atom_site_fract_z
 _atom_site_occupancy
  Nd  Nd0  1  0.24999999  0.89387601  0.21224800  1
  Nd  Nd1  1  0.74999998  0.10612400  0.78775202  1
  Si  Si2  1  0.24999999  0.53616501  0.92767002  1
  Si  Si3  1  0.74999998  0.46383501  0.07233000  1
  Si  Si4  1  0.24999999  0.24927000  0.50146001  1
  Si  Si5  1  0.74999998  0.75073001  0.49854001  1
  Rh  Rh6  1  0.24999999  0.67697201  0.64605601  1
  Si  Si7  1  0.74999998  0.32302800  0.35394401  1
