# generated using pymatgen
data_AlCu3
_symmetry_space_group_name_H-M   'P 1'
_cell_length_a   3.64784408
_cell_length_b   3.68160510
_cell_length_c   7.23053122
_cell_angle_alpha   90.00000000
_cell_angle_beta   90.00000000
_cell_angle_gamma   90.00000000
_symmetry_Int_Tables_number   1
_chemical_formula_structural   AlCu3
_chemical_formula_sum   'Al2 Cu6'
_cell_volume   97.10546560
_cell_formula_units_Z   2
loop_
 _symmetry_equiv_pos_site_id
 _symmetry_equiv_pos_as_xyz
  1  'x, y, z'
loop_
 _atom_site_type_symbol
 _atom_site_label
 _atom_site_symmetry_multiplicity
 _atom_site_fract_x
 _atom_site_fract_y
 _atom_site_fract_z
 _atom_site_occupancy
  Al  Al0  1  0.49999999  0.49999999  0.25385599  1
  Al  Al1  1  0.49999999  0.49999999  0.74614398  1
  Cu  Cu2  1  0.00000000  0.49999999  0.49999999  1
  Cu  Cu3  1  0.00000000  0.49999999  0.00000000  1
  Cu  Cu4  1  0.49999999  0.00000000  0.49999999  1
  Cu  Cu5  1  0.49999999  0.00000000  0.00000000  1
  Cu  Cu6  1  0.00000000  0.00000000  0.24957899  1
  Cu  Cu7  1  0.00000000  0.00000000  0.75042098  1
