# generated using pymatgen
data_Sr2Cu3BiO11
_symmetry_space_group_name_H-M   'P 1'
_cell_length_a   3.85099602
_cell_length_b   3.85099602
_cell_length_c   14.64115238
_cell_angle_alpha   97.55701447
_cell_angle_beta   97.55701447
_cell_angle_gamma   90.00000000
_symmetry_Int_Tables_number   1
_chemical_formula_structural   Sr2Cu3BiO11
_chemical_formula_sum   'Sr2 Cu3 Bi1 O11'
_cell_volume   213.34232816
_cell_formula_units_Z   1
loop_
 _symmetry_equiv_pos_site_id
 _symmetry_equiv_pos_as_xyz
  1  'x, y, z'
loop_
 _atom_site_type_symbol
 _atom_site_label
 _atom_site_symmetry_multiplicity
 _atom_site_fract_x
 _atom_site_fract_y
 _atom_site_fract_z
 _atom_site_occupancy
  Sr  Sr0  1  0.71201899  0.71201899  0.42403798  1
  Sr  Sr1  1  0.28798099  0.28798100  0.57596198  1
  Bi  Bi2  1  0.57526099  0.57526099  0.15052199  1
  Cu  Cu3  1  0.42473899  0.42473900  0.84947798  1
  Cu  Cu4  1  0.85326398  0.85326399  0.70652797  1
  Cu  Cu5  1  0.14673600  0.14673600  0.29347199  1
  O  O6  1  0.00000000  0.00000000  0.00000000  1
  O  O7  1  0.36821799  0.86821799  0.73643597  1
  O  O8  1  0.86821799  0.36821800  0.73643597  1
  O  O9  1  0.63178199  0.13178200  0.26356399  1
  O  O10  1  0.13178199  0.63178199  0.26356399  1
  O  O11  1  0.79202799  0.79202799  0.58405597  1
  O  O12  1  0.20797200  0.20797200  0.41594399  1
  O  O13  1  0.50000000  0.00000000  -0.00000000  1
  O  O14  1  0.06734900  0.06734900  0.13469800  1
  O  O15  1  0.93265098  0.93265099  0.86530197  1
  O  O16  1  -0.00000000  0.50000000  -0.00000000  1
