# generated using pymatgen
data_CaO
_symmetry_space_group_name_H-M   'P 1'
_cell_length_a   3.50500751
_cell_length_b   3.50500751
_cell_length_c   6.10847044
_cell_angle_alpha   73.32771301
_cell_angle_beta   73.32771301
_cell_angle_gamma   60.00001144
_symmetry_Int_Tables_number   1
_chemical_formula_structural   CaO
_chemical_formula_sum   'Ca2 O2'
_cell_volume   61.31939514
_cell_formula_units_Z   2
loop_
 _symmetry_equiv_pos_site_id
 _symmetry_equiv_pos_as_xyz
  1  'x, y, z'
loop_
 _atom_site_type_symbol
 _atom_site_label
 _atom_site_symmetry_multiplicity
 _atom_site_fract_x
 _atom_site_fract_y
 _atom_site_fract_z
 _atom_site_occupancy
  Ca  Ca0  1  0.00000000  0.00000000  0.00000000  1
  Ca  Ca1  1  0.50000000  0.49999999  0.49999997  1
  O  O2  1  0.25412900  0.25412899  0.23761299  1
  O  O3  1  0.74587101  0.74587098  0.76238696  1
