# generated using pymatgen
data_Zr2SiP4WS
_symmetry_space_group_name_H-M   'P 1'
_cell_length_a   3.74582195
_cell_length_b   6.66425800
_cell_length_c   6.66425753
_cell_angle_alpha   120.00000000
_cell_angle_beta   90.00000000
_cell_angle_gamma   90.00000000
_symmetry_Int_Tables_number   1
_chemical_formula_structural   Zr2SiP4WS
_chemical_formula_sum   'Zr2 Si1 P4 W1 S1'
_cell_volume   144.07258072
_cell_formula_units_Z   1
loop_
 _symmetry_equiv_pos_site_id
 _symmetry_equiv_pos_as_xyz
  1  'x, y, z'
loop_
 _atom_site_type_symbol
 _atom_site_label
 _atom_site_symmetry_multiplicity
 _atom_site_fract_x
 _atom_site_fract_y
 _atom_site_fract_z
 _atom_site_occupancy
  Zr  Zr0  1  0.50000001  0.66666665  0.33333328  1
  Zr  Zr1  1  0.50000001  0.33333332  0.66666663  1
  Si  Si2  1  0.00000000  0.00000000  0.00000000  1
  P  P3  1  0.50000001  0.22565899  -0.00000001  1
  W  W4  1  0.50000001  0.00000000  0.22565899  1
  P  P5  1  0.50000001  0.77434098  0.77434093  1
  P  P6  1  -0.00000000  0.34095499  0.34095497  1
  S  S7  1  -0.00000000  0.00000000  0.65904498  1
  P  P8  1  -0.00000000  0.65904498  0.99999994  1
