# generated using pymatgen
data_Na3SbF8
_symmetry_space_group_name_H-M   'P 1'
_cell_length_a   5.33124018
_cell_length_b   5.33124018
_cell_length_c   6.56826544
_cell_angle_alpha   113.94335175
_cell_angle_beta   113.94335175
_cell_angle_gamma   90.00000000
_symmetry_Int_Tables_number   1
_chemical_formula_structural   Na3SbF8
_chemical_formula_sum   'Na3 Sb1 F8'
_cell_volume   152.87574080
_cell_formula_units_Z   1
loop_
 _symmetry_equiv_pos_site_id
 _symmetry_equiv_pos_as_xyz
  1  'x, y, z'
loop_
 _atom_site_type_symbol
 _atom_site_label
 _atom_site_symmetry_multiplicity
 _atom_site_fract_x
 _atom_site_fract_y
 _atom_site_fract_z
 _atom_site_occupancy
  Na  Na0  1  0.75000000  0.25000000  0.50000003  1
  Na  Na1  1  0.00000000  0.00000000  0.00000000  1
  Na  Na2  1  0.25000003  0.75000000  0.50000004  1
  Sb  Sb3  1  0.50000002  0.50000000  0.00000005  1
  F  F4  1  0.62994200  0.12500000  0.75000001  1
  F  F5  1  0.12005803  0.62500000  0.75000002  1
  F  F6  1  0.37500004  0.87994200  0.25000006  1
  F  F7  1  0.37500001  0.37005800  0.25000003  1
  F  F8  1  0.62994202  0.62500000  0.75000004  1
  F  F9  1  0.87500001  0.37005800  0.25000005  1
  F  F10  1  0.87500003  0.87994200  0.25000008  1
  F  F11  1  0.12005800  0.12500000  0.74999999  1
