# generated using pymatgen
data_DyNiGe2
_symmetry_space_group_name_H-M   'P 1'
_cell_length_a   4.11548185
_cell_length_b   5.45900631
_cell_length_c   6.64266300
_cell_angle_alpha   90.00000000
_cell_angle_beta   90.00000000
_cell_angle_gamma   112.14453125
_symmetry_Int_Tables_number   1
_chemical_formula_structural   DyNiGe2
_chemical_formula_sum   'Dy2 Ni2 Ge4'
_cell_volume   138.22867263
_cell_formula_units_Z   2
loop_
 _symmetry_equiv_pos_site_id
 _symmetry_equiv_pos_as_xyz
  1  'x, y, z'
loop_
 _atom_site_type_symbol
 _atom_site_label
 _atom_site_symmetry_multiplicity
 _atom_site_fract_x
 _atom_site_fract_y
 _atom_site_fract_z
 _atom_site_occupancy
  Dy  Dy0  1  0.42803305  0.85606602  0.75000000  1
  Dy  Dy1  1  0.57196703  0.14393400  0.25000000  1
  Ni  Ni2  1  0.14422002  0.28844001  0.55427500  1
  Ge  Ge3  1  0.85578006  0.71156002  0.44572500  1
  Ge  Ge4  1  0.14422002  0.28844001  0.94572500  1
  Ge  Ge5  1  0.85578006  0.71156002  0.05427500  1
  Ni  Ni6  1  0.70939004  0.41878001  0.75000000  1
  Ge  Ge7  1  0.29061003  0.58122002  0.25000000  1
