# generated using pymatgen
data_ScPd3
_symmetry_space_group_name_H-M   'P 1'
_cell_length_a   4.61417198
_cell_length_b   4.93414879
_cell_length_c   5.61376905
_cell_angle_alpha   90.00000000
_cell_angle_beta   90.00000000
_cell_angle_gamma   90.00000000
_symmetry_Int_Tables_number   1
_chemical_formula_structural   ScPd3
_chemical_formula_sum   'Sc2 Pd6'
_cell_volume   127.80874234
_cell_formula_units_Z   2
loop_
 _symmetry_equiv_pos_site_id
 _symmetry_equiv_pos_as_xyz
  1  'x, y, z'
loop_
 _atom_site_type_symbol
 _atom_site_label
 _atom_site_symmetry_multiplicity
 _atom_site_fract_x
 _atom_site_fract_y
 _atom_site_fract_z
 _atom_site_occupancy
  Sc  Sc0  1  0.50000000  0.66037203  0.50000000  1
  Sc  Sc1  1  0.00000000  0.33962801  0.00000000  1
  Pd  Pd2  1  0.00000000  0.83378804  0.25012700  1
  Pd  Pd3  1  0.50000000  0.16621201  0.24987300  1
  Pd  Pd4  1  0.00000000  0.83378804  0.74987299  1
  Pd  Pd5  1  0.50000000  0.16621201  0.75012699  1
  Pd  Pd6  1  0.00000000  0.34171401  0.50000000  1
  Pd  Pd7  1  0.50000000  0.65828603  0.00000000  1
