# generated using pymatgen
data_Eu(CuGe)2
_symmetry_space_group_name_H-M   'P 1'
_cell_length_a   4.41961193
_cell_length_b   4.41961193
_cell_length_c   5.91008711
_cell_angle_alpha   111.95659637
_cell_angle_beta   111.95659637
_cell_angle_gamma   90.00000000
_symmetry_Int_Tables_number   1
_chemical_formula_structural   Eu(CuGe)2
_chemical_formula_sum   'Eu1 Cu2 Ge2'
_cell_volume   97.98202843
_cell_formula_units_Z   1
loop_
 _symmetry_equiv_pos_site_id
 _symmetry_equiv_pos_as_xyz
  1  'x, y, z'
loop_
 _atom_site_type_symbol
 _atom_site_label
 _atom_site_symmetry_multiplicity
 _atom_site_fract_x
 _atom_site_fract_y
 _atom_site_fract_z
 _atom_site_occupancy
  Eu  Eu0  1  0.00000000  0.00000000  0.00000000  1
  Cu  Cu1  1  0.37417099  0.37417100  0.74834197  1
  Cu  Cu2  1  0.62582898  0.62582900  0.25165796  1
  Ge  Ge3  1  0.75000000  0.25000000  0.49999997  1
  Ge  Ge4  1  0.24999998  0.75000000  0.49999996  1
