# generated using pymatgen
data_BiClF8
_symmetry_space_group_name_H-M   'P 1'
_cell_length_a   5.27500677
_cell_length_b   5.27500677
_cell_length_c   5.61831903
_cell_angle_alpha   90.00000000
_cell_angle_beta   90.00000000
_cell_angle_gamma   96.56771851
_symmetry_Int_Tables_number   1
_chemical_formula_structural   BiClF8
_chemical_formula_sum   'Bi1 Cl1 F8'
_cell_volume   155.30767941
_cell_formula_units_Z   1
loop_
 _symmetry_equiv_pos_site_id
 _symmetry_equiv_pos_as_xyz
  1  'x, y, z'
loop_
 _atom_site_type_symbol
 _atom_site_label
 _atom_site_symmetry_multiplicity
 _atom_site_fract_x
 _atom_site_fract_y
 _atom_site_fract_z
 _atom_site_occupancy
  Bi  Bi0  1  0.49999999  0.50000001  -0.00000000  1
  Cl  Cl1  1  0.00000000  0.00000000  0.50000000  1
  F  F2  1  0.85535502  0.14464500  0.50000000  1
  F  F3  1  0.14464495  0.85535502  0.50000000  1
  F  F4  1  0.69353198  0.69353202  0.75775300  1
  F  F5  1  0.30646799  0.30646801  0.75775300  1
  F  F6  1  0.69353198  0.69353202  0.24224700  1
  F  F7  1  0.30646799  0.30646801  0.24224700  1
  F  F8  1  0.25670296  0.74329702  -0.00000000  1
  F  F9  1  0.74329701  0.25670301  -0.00000000  1
