# generated using pymatgen
data_LuReC3
_symmetry_space_group_name_H-M   'P 1'
_cell_length_a   3.33996391
_cell_length_b   3.33996391
_cell_length_c   5.84220839
_cell_angle_alpha   106.60952759
_cell_angle_beta   106.60952759
_cell_angle_gamma   90.00000000
_symmetry_Int_Tables_number   1
_chemical_formula_structural   LuReC3
_chemical_formula_sum   'Lu1 Re1 C3'
_cell_volume   59.60941949
_cell_formula_units_Z   1
loop_
 _symmetry_equiv_pos_site_id
 _symmetry_equiv_pos_as_xyz
  1  'x, y, z'
loop_
 _atom_site_type_symbol
 _atom_site_label
 _atom_site_symmetry_multiplicity
 _atom_site_fract_x
 _atom_site_fract_y
 _atom_site_fract_z
 _atom_site_occupancy
  Lu  Lu0  1  0.65239901  0.65239902  0.30479799  1
  Re  Re1  1  0.34760101  0.34760101  0.69520200  1
  C  C2  1  0.00000000  0.00000000  0.00000000  1
  C  C3  1  0.86124402  0.86124402  0.72248799  1
  C  C4  1  0.13875600  0.13875600  0.27751200  1
