# generated using pymatgen
data_LiMnO3
_symmetry_space_group_name_H-M   'P 1'
_cell_length_a   3.39754868
_cell_length_b   3.39754820
_cell_length_c   12.36035728
_cell_angle_alpha   90.00000000
_cell_angle_beta   90.00000000
_cell_angle_gamma   119.99998474
_symmetry_Int_Tables_number   1
_chemical_formula_structural   LiMnO3
_chemical_formula_sum   'Li2 Mn2 O6'
_cell_volume   123.56430674
_cell_formula_units_Z   2
loop_
 _symmetry_equiv_pos_site_id
 _symmetry_equiv_pos_as_xyz
  1  'x, y, z'
loop_
 _atom_site_type_symbol
 _atom_site_label
 _atom_site_symmetry_multiplicity
 _atom_site_fract_x
 _atom_site_fract_y
 _atom_site_fract_z
 _atom_site_occupancy
  Li  Li0  1  0.00000000  0.00000000  0.49999999  1
  Li  Li1  1  0.00000000  0.00000000  0.00000000  1
  Mn  Mn2  1  0.66666663  0.33333332  0.24999999  1
  Mn  Mn3  1  0.33333329  0.66666663  0.74999998  1
  O  O4  1  0.00000000  0.00000000  0.24999999  1
  O  O5  1  0.00000000  0.00000000  0.74999998  1
  O  O6  1  0.33333329  0.66666663  0.58576599  1
  O  O7  1  0.66666663  0.33333332  0.08576700  1
  O  O8  1  0.33333329  0.66666663  0.91423298  1
  O  O9  1  0.66666663  0.33333332  0.41423299  1
