# generated using pymatgen
data_Sr5Bi3TeO11
_symmetry_space_group_name_H-M   'P 1'
_cell_length_a   6.55849981
_cell_length_b   6.55987120
_cell_length_c   9.83636189
_cell_angle_alpha   101.65802765
_cell_angle_beta   108.82740021
_cell_angle_gamma   102.18483734
_symmetry_Int_Tables_number   1
_chemical_formula_structural   Sr5Bi3TeO11
_chemical_formula_sum   'Sr5 Bi3 Te1 O11'
_cell_volume   374.45497172
_cell_formula_units_Z   1
loop_
 _symmetry_equiv_pos_site_id
 _symmetry_equiv_pos_as_xyz
  1  'x, y, z'
loop_
 _atom_site_type_symbol
 _atom_site_label
 _atom_site_symmetry_multiplicity
 _atom_site_fract_x
 _atom_site_fract_y
 _atom_site_fract_z
 _atom_site_occupancy
  Sr  Sr0  1  0.58355093  0.79639898  0.09757295  1
  Sr  Sr1  1  0.20566195  0.59529799  0.69987298  1
  Sr  Sr2  1  0.59867798  0.29605799  0.59717598  1
  Sr  Sr3  1  0.40132194  0.70394198  0.40282396  1
  Bi  Bi4  1  0.41644899  0.20360100  0.90242699  1
  Sr  Sr5  1  0.00000000  0.00000000  0.50000001  1
  Bi  Bi6  1  -0.00000005  0.49999999  -0.00000002  1
  Bi  Bi7  1  0.79433798  0.40470199  0.30012697  1
  Te  Te8  1  0.18947699  0.10021000  0.19544899  1
  O  O9  1  0.81052293  0.89978998  0.80455095  1
  O  O10  1  0.35614697  0.37131199  0.15840998  1
  O  O11  1  0.64385295  0.62868799  0.84158997  1
  O  O12  1  0.17591497  0.29541899  0.38721799  1
  O  O13  1  0.82408495  0.70458098  0.61278196  1
  O  O14  1  0.97055200  0.16995900  0.76371898  1
  O  O15  1  0.02944792  0.83004098  0.23628096  1
  O  O16  1  0.85675101  0.10477300  0.03522798  1
  O  O17  1  0.14324892  0.89522698  0.96477197  1
  O  O18  1  0.50027292  0.94044898  0.69487595  1
  O  O19  1  0.49972700  0.05955100  0.30512399  1
