# generated using pymatgen
data_Dy7Ag5
_symmetry_space_group_name_H-M   'P 1'
_cell_length_a   5.13364697
_cell_length_b   6.57326698
_cell_length_c   9.44116020
_cell_angle_alpha   90.00000000
_cell_angle_beta   90.00000000
_cell_angle_gamma   90.00000000
_symmetry_Int_Tables_number   1
_chemical_formula_structural   Dy7Ag5
_chemical_formula_sum   'Dy7 Ag5'
_cell_volume   318.59036583
_cell_formula_units_Z   1
loop_
 _symmetry_equiv_pos_site_id
 _symmetry_equiv_pos_as_xyz
  1  'x, y, z'
loop_
 _atom_site_type_symbol
 _atom_site_label
 _atom_site_symmetry_multiplicity
 _atom_site_fract_x
 _atom_site_fract_y
 _atom_site_fract_z
 _atom_site_occupancy
  Dy  Dy0  1  0.25000000  0.80731300  0.92802598  1
  Dy  Dy1  1  0.25000000  0.30731300  0.57197399  1
  Dy  Dy2  1  0.75000001  0.19268700  0.07197400  1
  Dy  Dy3  1  0.75000001  0.69268700  0.42802599  1
  Dy  Dy4  1  0.25000000  0.97253400  0.29073099  1
  Dy  Dy5  1  0.25000000  0.47253400  0.20926900  1
  Dy  Dy6  1  0.75000001  0.02746600  0.70926898  1
  Ag  Ag7  1  0.75000001  0.52746600  0.79073098  1
  Ag  Ag8  1  0.25000000  0.28736300  0.89646698  1
  Ag  Ag9  1  0.25000000  0.78736300  0.60353299  1
  Ag  Ag10  1  0.75000001  0.71263700  0.10353300  1
  Ag  Ag11  1  0.75000001  0.21263700  0.39646699  1
