# generated using pymatgen
data_InAu
_symmetry_space_group_name_H-M   'P 1'
_cell_length_a   5.28664398
_cell_length_b   5.49379110
_cell_length_c   6.02868223
_cell_angle_alpha   63.55366898
_cell_angle_beta   63.99448395
_cell_angle_gamma   61.23964691
_symmetry_Int_Tables_number   1
_chemical_formula_structural   InAu
_chemical_formula_sum   'In3 Au3'
_cell_volume   131.70798389
_cell_formula_units_Z   3
loop_
 _symmetry_equiv_pos_site_id
 _symmetry_equiv_pos_as_xyz
  1  'x, y, z'
loop_
 _atom_site_type_symbol
 _atom_site_label
 _atom_site_symmetry_multiplicity
 _atom_site_fract_x
 _atom_site_fract_y
 _atom_site_fract_z
 _atom_site_occupancy
  In  In0  1  0.99829700  0.32680299  0.00129700  1
  In  In1  1  0.32639699  0.67319698  0.99870302  1
  In  In2  1  0.50806800  0.49999999  0.50000001  1
  Au  Au3  1  0.66083200  0.00000000  -0.00000000  1
  Au  Au4  1  0.16893700  0.16392700  0.50460601  1
  Au  Au5  1  0.83746999  0.83607298  0.49539402  1
