# generated using pymatgen
data_Sb13Ru4
_symmetry_space_group_name_H-M   'P 1'
_cell_length_a   8.17163181
_cell_length_b   8.17163181
_cell_length_c   8.17163181
_cell_angle_alpha   109.47122192
_cell_angle_beta   109.47122192
_cell_angle_gamma   109.47122192
_symmetry_Int_Tables_number   1
_chemical_formula_structural   Sb13Ru4
_chemical_formula_sum   'Sb13 Ru4'
_cell_volume   420.05335718
_cell_formula_units_Z   1
loop_
 _symmetry_equiv_pos_site_id
 _symmetry_equiv_pos_as_xyz
  1  'x, y, z'
loop_
 _atom_site_type_symbol
 _atom_site_label
 _atom_site_symmetry_multiplicity
 _atom_site_fract_x
 _atom_site_fract_y
 _atom_site_fract_z
 _atom_site_occupancy
  Sb  Sb0  1  0.00000000  0.00000000  0.00000000  1
  Sb  Sb1  1  0.49412303  0.15642301  0.33770003  1
  Sb  Sb2  1  0.50587708  0.84357706  0.66230008  1
  Sb  Sb3  1  0.18127606  0.84357606  0.33769906  1
  Sb  Sb4  1  0.81872405  0.15642401  0.66230105  1
  Sb  Sb5  1  0.15642305  0.66230005  0.81872307  1
  Sb  Sb6  1  0.84357706  0.33770003  0.18127705  1
  Sb  Sb7  1  0.84357708  0.66230105  0.50587708  1
  Sb  Sb8  1  0.15642303  0.33769903  0.49412304  1
  Sb  Sb9  1  0.33770003  0.18127701  0.84357705  1
  Sb  Sb10  1  0.66230008  0.81872306  0.15642307  1
  Sb  Sb11  1  0.66230006  0.50587704  0.84357607  1
  Sb  Sb12  1  0.33770005  0.49412304  0.15642404  1
  Ru  Ru13  1  0.50000009  1.00000008  1.00000010  1
  Ru  Ru14  1  0.00000000  0.00000000  0.50000002  1
  Ru  Ru15  1  0.00000003  0.50000004  0.00000003  1
  Ru  Ru16  1  0.50000005  0.50000004  0.50000006  1
