# generated using pymatgen
data_CsNaPO4
_symmetry_space_group_name_H-M   'P 1'
_cell_length_a   5.76177979
_cell_length_b   5.76178026
_cell_length_c   8.07339382
_cell_angle_alpha   90.00000000
_cell_angle_beta   90.00000000
_cell_angle_gamma   120.00000000
_symmetry_Int_Tables_number   1
_chemical_formula_structural   CsNaPO4
_chemical_formula_sum   'Cs2 Na2 P2 O8'
_cell_volume   232.11334845
_cell_formula_units_Z   2
loop_
 _symmetry_equiv_pos_site_id
 _symmetry_equiv_pos_as_xyz
  1  'x, y, z'
loop_
 _atom_site_type_symbol
 _atom_site_label
 _atom_site_symmetry_multiplicity
 _atom_site_fract_x
 _atom_site_fract_y
 _atom_site_fract_z
 _atom_site_occupancy
  Cs  Cs0  1  0.66666670  0.33333333  0.25823501  1
  Cs  Cs1  1  0.33333336  0.66666666  0.74176502  1
  Na  Na2  1  0.00000000  0.00000000  0.00000000  1
  Na  Na3  1  0.00000000  0.00000000  0.50000001  1
  P  P4  1  0.66666670  0.33333333  0.72659102  1
  P  P5  1  0.33333336  0.66666666  0.27340901  1
  O  O6  1  0.66666670  0.33333333  0.91473602  1
  O  O7  1  0.33333336  0.66666666  0.08526400  1
  O  O8  1  0.81394104  0.62788199  0.65824201  1
  O  O9  1  0.18605901  0.37211799  0.34175801  1
  O  O10  1  0.81394103  0.18606000  0.65824201  1
  O  O11  1  0.18605902  0.81393999  0.34175801  1
  O  O12  1  0.37211902  0.18606000  0.65824201  1
  O  O13  1  0.62788104  0.81393999  0.34175801  1
