# generated using pymatgen
data_NaWO4
_symmetry_space_group_name_H-M   'P 1'
_cell_length_a   5.20329046
_cell_length_b   5.51978397
_cell_length_c   6.74155474
_cell_angle_alpha   111.71871948
_cell_angle_beta   110.13201904
_cell_angle_gamma   95.85013580
_symmetry_Int_Tables_number   1
_chemical_formula_structural   NaWO4
_chemical_formula_sum   'Na2 W2 O8'
_cell_volume   162.94931486
_cell_formula_units_Z   2
loop_
 _symmetry_equiv_pos_site_id
 _symmetry_equiv_pos_as_xyz
  1  'x, y, z'
loop_
 _atom_site_type_symbol
 _atom_site_label
 _atom_site_symmetry_multiplicity
 _atom_site_fract_x
 _atom_site_fract_y
 _atom_site_fract_z
 _atom_site_occupancy
  Na  Na0  1  0.11929300  0.36929298  0.73858597  1
  Na  Na1  1  0.88070699  0.63070697  0.26141396  1
  W  W2  1  0.65054799  0.90054795  0.80109594  1
  W  W3  1  0.34945200  0.09945199  0.19890399  1
  O  O4  1  0.21061400  0.06001600  0.41487698  1
  O  O5  1  0.70426299  0.35486098  0.41487697  1
  O  O6  1  0.78938599  0.93998395  0.58512294  1
  O  O7  1  0.29573699  0.64513897  0.58512296  1
  O  O8  1  0.06740300  0.27285599  0.06292999  1
  O  O9  1  0.49552699  0.79007396  0.06292997  1
  O  O10  1  0.93259699  0.72714396  0.93706994  1
  O  O11  1  0.50447300  0.20992599  0.93706996  1
