# generated using pymatgen
data_TiNbO2
_symmetry_space_group_name_H-M   'P 1'
_cell_length_a   3.07798505
_cell_length_b   3.07798576
_cell_length_c   5.25633287
_cell_angle_alpha   77.33375549
_cell_angle_beta   77.33374023
_cell_angle_gamma   62.73212433
_symmetry_Int_Tables_number   1
_chemical_formula_structural   TiNbO2
_chemical_formula_sum   'Ti1 Nb1 O2'
_cell_volume   42.78013611
_cell_formula_units_Z   1
loop_
 _symmetry_equiv_pos_site_id
 _symmetry_equiv_pos_as_xyz
  1  'x, y, z'
loop_
 _atom_site_type_symbol
 _atom_site_label
 _atom_site_symmetry_multiplicity
 _atom_site_fract_x
 _atom_site_fract_y
 _atom_site_fract_z
 _atom_site_occupancy
  Nb  Nb0  1  0.49999999  0.49999997  0.50000001  1
  Ti  Ti1  1  0.00000000  0.00000000  0.00000000  1
  O  O2  1  0.25000000  0.24999999  0.25000001  1
  O  O3  1  0.74999999  0.74999996  0.75000002  1
