# generated using pymatgen
data_Dy2ScSi2
_symmetry_space_group_name_H-M   'P 1'
_cell_length_a   4.27890778
_cell_length_b   7.29472589
_cell_length_c   7.29472589
_cell_angle_alpha   90.00000000
_cell_angle_beta   90.00000000
_cell_angle_gamma   90.00000000
_symmetry_Int_Tables_number   1
_chemical_formula_structural   Dy2ScSi2
_chemical_formula_sum   'Dy4 Sc2 Si4'
_cell_volume   227.69363023
_cell_formula_units_Z   2
loop_
 _symmetry_equiv_pos_site_id
 _symmetry_equiv_pos_as_xyz
  1  'x, y, z'
loop_
 _atom_site_type_symbol
 _atom_site_label
 _atom_site_symmetry_multiplicity
 _atom_site_fract_x
 _atom_site_fract_y
 _atom_site_fract_z
 _atom_site_occupancy
  Dy  Dy0  1  0.50000003  0.67768701  0.17768700  1
  Dy  Dy1  1  0.50000003  0.32231300  0.82231301  1
  Dy  Dy2  1  0.50000003  0.17768700  0.32231300  1
  Dy  Dy3  1  0.50000003  0.82231301  0.67768701  1
  Sc  Sc4  1  0.00000000  0.50000001  0.50000001  1
  Sc  Sc5  1  0.00000000  0.00000000  0.00000000  1
  Si  Si6  1  0.00000000  0.87645501  0.37645501  1
  Si  Si7  1  1.00000005  0.12354500  0.62354501  1
  Si  Si8  1  1.00000005  0.37645501  0.12354500  1
  Si  Si9  1  1.00000005  0.62354501  0.87645501  1
