# generated using pymatgen
data_Co5Cu2AsS9
_symmetry_space_group_name_H-M   'P 1'
_cell_length_a   7.12148714
_cell_length_b   7.12148714
_cell_length_c   7.12148714
_cell_angle_alpha   60.00000000
_cell_angle_beta   60.00000000
_cell_angle_gamma   60.00000000
_symmetry_Int_Tables_number   1
_chemical_formula_structural   Co5Cu2AsS9
_chemical_formula_sum   'Co5 Cu2 As1 S9'
_cell_volume   255.38599966
_cell_formula_units_Z   1
loop_
 _symmetry_equiv_pos_site_id
 _symmetry_equiv_pos_as_xyz
  1  'x, y, z'
loop_
 _atom_site_type_symbol
 _atom_site_label
 _atom_site_symmetry_multiplicity
 _atom_site_fract_x
 _atom_site_fract_y
 _atom_site_fract_z
 _atom_site_occupancy
  Cu  Cu0  1  0.12560300  0.62319102  0.12560300  1
  Co  Co1  1  0.12560300  0.12560300  0.12560300  1
  Co  Co2  1  0.12560300  0.12560300  0.62319102  1
  Co  Co3  1  0.62319102  0.12560300  0.12560300  1
  Cu  Cu4  1  0.87262503  0.38212701  0.87262403  1
  Co  Co5  1  0.87262503  0.87262403  0.87262403  1
  As  As6  1  0.87262503  0.87262403  0.38212701  1
  Co  Co7  1  0.38212801  0.87262403  0.87262403  1
  S  S8  1  0.50000001  0.50000001  0.50000001  1
  S  S9  1  0.74863102  0.74863102  0.25136901  1
  S  S10  1  0.25136901  0.74863102  0.74863102  1
  S  S11  1  0.25136901  0.74863102  0.25136901  1
  S  S12  1  0.25136901  0.25136901  0.74863102  1
  S  S13  1  0.74863102  0.25136901  0.25136901  1
  S  S14  1  0.74863102  0.25136901  0.74863102  1
  S  S15  1  0.25000001  0.25000001  0.25000001  1
  S  S16  1  0.75000002  0.75000002  0.75000002  1
