# generated using pymatgen
data_LiCuO2
_symmetry_space_group_name_H-M   'P 1'
_cell_length_a   3.06510901
_cell_length_b   5.15623379
_cell_length_c   5.15623379
_cell_angle_alpha   107.40935516
_cell_angle_beta   90.00000000
_cell_angle_gamma   90.00000000
_symmetry_Int_Tables_number   1
_chemical_formula_structural   LiCuO2
_chemical_formula_sum   'Li2 Cu2 O4'
_cell_volume   77.75828341
_cell_formula_units_Z   2
loop_
 _symmetry_equiv_pos_site_id
 _symmetry_equiv_pos_as_xyz
  1  'x, y, z'
loop_
 _atom_site_type_symbol
 _atom_site_label
 _atom_site_symmetry_multiplicity
 _atom_site_fract_x
 _atom_site_fract_y
 _atom_site_fract_z
 _atom_site_occupancy
  Li  Li0  1  0.00000000  0.00000000  0.00000000  1
  Li  Li1  1  1.00000000  0.50000000  0.49999997  1
  Cu  Cu2  1  0.50000000  0.00000000  0.50000001  1
  Cu  Cu3  1  0.50000000  0.50000000  -0.00000003  1
  O  O4  1  0.90369300  0.25000000  0.74999999  1
  O  O5  1  0.09630700  0.75000000  0.24999995  1
  O  O6  1  0.50000000  0.75000000  0.74999996  1
  O  O7  1  0.50000000  0.25000000  0.24999999  1
