# generated using pymatgen
data_Na2AgS3
_symmetry_space_group_name_H-M   'P 1'
_cell_length_a   6.44508314
_cell_length_b   6.80348349
_cell_length_c   7.72605896
_cell_angle_alpha   90.00000000
_cell_angle_beta   90.00000000
_cell_angle_gamma   92.74185181
_symmetry_Int_Tables_number   1
_chemical_formula_structural   Na2AgS3
_chemical_formula_sum   'Na4 Ag2 S6'
_cell_volume   338.39225289
_cell_formula_units_Z   2
loop_
 _symmetry_equiv_pos_site_id
 _symmetry_equiv_pos_as_xyz
  1  'x, y, z'
loop_
 _atom_site_type_symbol
 _atom_site_label
 _atom_site_symmetry_multiplicity
 _atom_site_fract_x
 _atom_site_fract_y
 _atom_site_fract_z
 _atom_site_occupancy
  Na  Na0  1  0.49999999  0.25000001  0.64657400  1
  Na  Na1  1  0.49999999  0.75000002  0.35342600  1
  Na  Na2  1  -0.00000000  0.25000001  0.15534700  1
  Na  Na3  1  -0.00000000  0.75000002  0.84465300  1
  Ag  Ag4  1  0.25263999  0.40466901  0.37456300  1
  Ag  Ag5  1  0.74735998  0.09533100  0.37456300  1
  S  S6  1  0.77840098  0.06431400  0.89654000  1
  S  S7  1  0.22159899  0.43568601  0.89654000  1
  S  S8  1  0.22159899  0.93568602  0.10346000  1
  S  S9  1  0.77840098  0.56431401  0.10346000  1
  S  S10  1  0.25263999  0.90466902  0.62543700  1
  S  S11  1  0.74735998  0.59533101  0.62543700  1
