# generated using pymatgen
data_Li2MnO4
_symmetry_space_group_name_H-M   'P 1'
_cell_length_a   5.92877674
_cell_length_b   5.92880440
_cell_length_c   5.93083668
_cell_angle_alpha   119.53906250
_cell_angle_beta   91.18933868
_cell_angle_gamma   119.06252289
_symmetry_Int_Tables_number   1
_chemical_formula_structural   Li2MnO4
_chemical_formula_sum   'Li4 Mn2 O8'
_cell_volume   148.96580362
_cell_formula_units_Z   2
loop_
 _symmetry_equiv_pos_site_id
 _symmetry_equiv_pos_as_xyz
  1  'x, y, z'
loop_
 _atom_site_type_symbol
 _atom_site_label
 _atom_site_symmetry_multiplicity
 _atom_site_fract_x
 _atom_site_fract_y
 _atom_site_fract_z
 _atom_site_occupancy
  Li  Li0  1  0.87380204  0.75025906  0.62379206  1
  Li  Li1  1  0.12619601  0.24974202  0.37620501  1
  Li  Li2  1  0.49999505  0.99999608  0.49999506  1
  Li  Li3  1  0.50000303  0.50000104  0.00000204  1
  Mn  Mn4  1  0.50000205  0.99999808  0.00000307  1
  Mn  Mn5  1  0.00000902  0.50000604  0.99999701  1
  O  O6  1  0.73029603  0.47801204  0.20796404  1
  O  O7  1  0.73078001  0.02277500  0.75342200  1
  O  O8  1  0.26920604  0.97720908  0.24657606  1
  O  O9  1  0.26970802  0.52199504  0.79204102  1
  O  O10  1  0.72969603  0.47130104  0.75656203  1
  O  O11  1  0.28508700  0.02764100  0.75764299  1
  O  O12  1  0.27030502  0.52869504  0.24343403  1
  O  O13  1  0.71491605  0.97237008  0.24236507  1
