# generated using pymatgen
data_SrHg3
_symmetry_space_group_name_H-M   'P 1'
_cell_length_a   6.79821014
_cell_length_b   6.79821014
_cell_length_c   10.87128067
_cell_angle_alpha   90.00000000
_cell_angle_beta   90.00000000
_cell_angle_gamma   101.55399323
_symmetry_Int_Tables_number   1
_chemical_formula_structural   SrHg3
_chemical_formula_sum   'Sr4 Hg12'
_cell_volume   492.24251318
_cell_formula_units_Z   4
loop_
 _symmetry_equiv_pos_site_id
 _symmetry_equiv_pos_as_xyz
  1  'x, y, z'
loop_
 _atom_site_type_symbol
 _atom_site_label
 _atom_site_symmetry_multiplicity
 _atom_site_fract_x
 _atom_site_fract_y
 _atom_site_fract_z
 _atom_site_occupancy
  Sr  Sr0  1  0.70285303  0.29714701  -0.00000000  1
  Sr  Sr1  1  0.70285303  0.29714701  0.50000002  1
  Sr  Sr2  1  0.29714704  0.70285302  -0.00000000  1
  Sr  Sr3  1  0.29714704  0.70285302  0.50000002  1
  Hg  Hg4  1  0.85800506  0.85800502  0.75000002  1
  Hg  Hg5  1  0.14199501  0.14199500  0.25000001  1
  Hg  Hg6  1  0.18550101  0.18550101  0.95009803  1
  Hg  Hg7  1  0.81449906  0.81449902  0.04990200  1
  Hg  Hg8  1  0.18550101  0.18550101  0.54990202  1
  Hg  Hg9  1  0.81449906  0.81449902  0.45009801  1
  Hg  Hg10  1  0.00735502  0.41455501  0.75000002  1
  Hg  Hg11  1  0.58544506  0.99264503  0.25000001  1
  Hg  Hg12  1  0.99264505  0.58544502  0.25000001  1
  Hg  Hg13  1  0.41455501  0.00735500  0.75000002  1
  Hg  Hg14  1  0.46492003  0.46492001  0.75000002  1
  Hg  Hg15  1  0.53508004  0.53508002  0.25000001  1
