# generated using pymatgen
data_SrInAu
_symmetry_space_group_name_H-M   'P 1'
_cell_length_a   4.60863781
_cell_length_b   7.74894381
_cell_length_c   8.92239857
_cell_angle_alpha   90.00000000
_cell_angle_beta   90.00000000
_cell_angle_gamma   90.00000000
_symmetry_Int_Tables_number   1
_chemical_formula_structural   SrInAu
_chemical_formula_sum   'Sr4 In4 Au4'
_cell_volume   318.63737046
_cell_formula_units_Z   4
loop_
 _symmetry_equiv_pos_site_id
 _symmetry_equiv_pos_as_xyz
  1  'x, y, z'
loop_
 _atom_site_type_symbol
 _atom_site_label
 _atom_site_symmetry_multiplicity
 _atom_site_fract_x
 _atom_site_fract_y
 _atom_site_fract_z
 _atom_site_occupancy
  Sr  Sr0  1  0.25000001  0.53315501  0.17812601  1
  Sr  Sr1  1  0.75000003  0.46684501  0.82187404  1
  Sr  Sr2  1  0.75000003  0.96684502  0.67812603  1
  Sr  Sr3  1  0.25000001  0.03315500  0.32187402  1
  In  In4  1  0.25000001  0.63915702  0.56018403  1
  In  In5  1  0.75000003  0.36084301  0.43981602  1
  In  In6  1  0.75000003  0.86084302  0.06018400  1
  In  In7  1  0.25000001  0.13915700  0.93981605  1
  Au  Au8  1  0.25000001  0.77186402  0.87556304  1
  Au  Au9  1  0.75000003  0.22813601  0.12443701  1
  Au  Au10  1  0.75000003  0.72813602  0.37556302  1
  Au  Au11  1  0.25000001  0.27186401  0.62443703  1
