# generated using pymatgen
data_Ba2SnBi5
_symmetry_space_group_name_H-M   'P 1'
_cell_length_a   5.26888800
_cell_length_b   7.79493618
_cell_length_c   7.79493618
_cell_angle_alpha   120.00000000
_cell_angle_beta   90.00000000
_cell_angle_gamma   90.00000000
_symmetry_Int_Tables_number   1
_chemical_formula_structural   Ba2SnBi5
_chemical_formula_sum   'Ba2 Sn1 Bi5'
_cell_volume   277.25202446
_cell_formula_units_Z   1
loop_
 _symmetry_equiv_pos_site_id
 _symmetry_equiv_pos_as_xyz
  1  'x, y, z'
loop_
 _atom_site_type_symbol
 _atom_site_label
 _atom_site_symmetry_multiplicity
 _atom_site_fract_x
 _atom_site_fract_y
 _atom_site_fract_z
 _atom_site_occupancy
  Ba  Ba0  1  0.25000000  0.66666666  0.33333336  1
  Ba  Ba1  1  0.75000000  0.33333333  0.66666669  1
  Bi  Bi2  1  0.75000000  0.85011799  0.14988103  1
  Bi  Bi3  1  0.75000000  0.29976300  0.14988101  1
  Sn  Sn4  1  0.75000000  0.85011799  0.70023604  1
  Bi  Bi5  1  0.25000000  0.14988200  0.85011902  1
  Bi  Bi6  1  0.25000000  0.70023699  0.85011904  1
  Bi  Bi7  1  0.25000000  0.14988200  0.29976401  1
