# generated using pymatgen
data_NdAl12
_symmetry_space_group_name_H-M   'P 1'
_cell_length_a   5.50754595
_cell_length_b   7.31630611
_cell_length_c   7.31630611
_cell_angle_alpha   82.00723267
_cell_angle_beta   67.88984680
_cell_angle_gamma   67.88984680
_symmetry_Int_Tables_number   1
_chemical_formula_structural   NdAl12
_chemical_formula_sum   'Nd1 Al12'
_cell_volume   253.04339959
_cell_formula_units_Z   1
loop_
 _symmetry_equiv_pos_site_id
 _symmetry_equiv_pos_as_xyz
  1  'x, y, z'
loop_
 _atom_site_type_symbol
 _atom_site_label
 _atom_site_symmetry_multiplicity
 _atom_site_fract_x
 _atom_site_fract_y
 _atom_site_fract_z
 _atom_site_occupancy
  Nd  Nd0  1  -0.00000002  0.99960798  0.00039203  1
  Al  Al1  1  -0.00000001  0.34428799  0.65571200  1
  Al  Al2  1  -0.00000001  0.66556998  0.33443001  1
  Al  Al3  1  0.65779500  0.35510899  0.32930100  1
  Al  Al4  1  0.34220499  0.67069898  0.64489101  1
  Al  Al5  1  0.50000000  0.22381499  0.77618499  1
  Al  Al6  1  0.69822499  0.78854998  0.81500000  1
  Al  Al7  1  0.30177500  0.18500000  0.21145100  1
  Al  Al8  1  0.00284598  0.99091298  0.49348002  1
  Al  Al9  1  0.51276099  0.99091398  0.49348002  1
  Al  Al10  1  0.48723900  0.50651999  0.00908602  1
  Al  Al11  1  0.99715400  0.50652099  0.00908601  1
  Al  Al12  1  0.49999999  0.77249298  0.22750702  1
