# generated using pymatgen
data_V(CuSe2)2
_symmetry_space_group_name_H-M   'P 1'
_cell_length_a   3.50079989
_cell_length_b   9.41967583
_cell_length_c   10.11270142
_cell_angle_alpha   113.25194550
_cell_angle_beta   90.00000000
_cell_angle_gamma   90.00000000
_symmetry_Int_Tables_number   1
_chemical_formula_structural   V(CuSe2)2
_chemical_formula_sum   'V2 Cu4 Se8'
_cell_volume   306.39447146
_cell_formula_units_Z   2
loop_
 _symmetry_equiv_pos_site_id
 _symmetry_equiv_pos_as_xyz
  1  'x, y, z'
loop_
 _atom_site_type_symbol
 _atom_site_label
 _atom_site_symmetry_multiplicity
 _atom_site_fract_x
 _atom_site_fract_y
 _atom_site_fract_z
 _atom_site_occupancy
  V  V0  1  -0.00000000  0.72104402  0.64100604  1
  V  V1  1  0.50000002  0.27694501  0.36800102  1
  Cu  Cu2  1  -0.00000000  0.45849902  0.07935602  1
  Cu  Cu3  1  0.50000002  0.54475302  0.90166404  1
  Cu  Cu4  1  0.50000002  0.95476003  0.76102506  1
  Cu  Cu5  1  -0.00000000  0.04410200  0.24672601  1
  Se  Se6  1  0.50000002  0.51340202  0.64751804  1
  Se  Se7  1  -0.00000000  0.48913402  0.36901603  1
  Se  Se8  1  0.50000002  0.83260703  0.50749404  1
  Se  Se9  1  -0.00000000  0.16376601  0.50057802  1
  Se  Se10  1  -0.00000000  0.73459603  0.91464905  1
  Se  Se11  1  0.50000002  0.24372201  0.08497601  1
  Se  Se12  1  -0.00000000  0.36908401  0.83219403  1
  Se  Se13  1  0.50000002  0.65358702  0.14579403  1
