# generated using pymatgen
data_Ce2Co7
_symmetry_space_group_name_H-M   'P 1'
_cell_length_a   4.87867785
_cell_length_b   4.87867785
_cell_length_c   12.69466877
_cell_angle_alpha   78.92144775
_cell_angle_beta   78.92144775
_cell_angle_gamma   60.00000000
_symmetry_Int_Tables_number   1
_chemical_formula_structural   Ce2Co7
_chemical_formula_sum   'Ce4 Co14'
_cell_volume   255.14892859
_cell_formula_units_Z   2
loop_
 _symmetry_equiv_pos_site_id
 _symmetry_equiv_pos_as_xyz
  1  'x, y, z'
loop_
 _atom_site_type_symbol
 _atom_site_label
 _atom_site_symmetry_multiplicity
 _atom_site_fract_x
 _atom_site_fract_y
 _atom_site_fract_z
 _atom_site_occupancy
  Ce  Ce0  1  0.05142300  0.05142300  0.84573098  1
  Ce  Ce1  1  0.94857705  0.94857701  0.15426898  1
  Ce  Ce2  1  0.14737601  0.14737600  0.55787199  1
  Ce  Ce3  1  0.85262404  0.85262401  0.44212798  1
  Co  Co4  1  0.50000003  0.50000001  0.49999998  1
  Co  Co5  1  0.27820001  0.27820000  0.16539999  1
  Co  Co6  1  0.72180004  0.72180001  0.83459997  1
  Co  Co7  1  0.38821902  0.38821901  0.83534298  1
  Co  Co8  1  0.61178103  0.61178101  0.16465699  1
  Co  Co9  1  0.50000002  0.00000000  -0.00000000  1
  Co  Co10  1  0.00000001  0.50000001  -0.00000000  1
  Co  Co11  1  0.50000003  0.50000001  -0.00000001  1
  Co  Co12  1  0.60890103  0.60890101  0.67248098  1
  Co  Co13  1  0.60890102  0.10971700  0.67248098  1
  Co  Co14  1  0.10971701  0.60890101  0.67248098  1
  Co  Co15  1  0.39109902  0.39109901  0.32751899  1
  Co  Co16  1  0.39109903  0.89028301  0.32751898  1
  Co  Co17  1  0.89028304  0.39109901  0.32751898  1
