# generated using pymatgen
data_Ca3Al9AgGe7
_symmetry_space_group_name_H-M   'P 1'
_cell_length_a   6.40281820
_cell_length_b   6.40281820
_cell_length_c   12.55333519
_cell_angle_alpha   104.77503967
_cell_angle_beta   104.77503967
_cell_angle_gamma   90.00000000
_symmetry_Int_Tables_number   1
_chemical_formula_structural   Ca3Al9AgGe7
_chemical_formula_sum   'Ca3 Al9 Ag1 Ge7'
_cell_volume   480.00124438
_cell_formula_units_Z   1
loop_
 _symmetry_equiv_pos_site_id
 _symmetry_equiv_pos_as_xyz
  1  'x, y, z'
loop_
 _atom_site_type_symbol
 _atom_site_label
 _atom_site_symmetry_multiplicity
 _atom_site_fract_x
 _atom_site_fract_y
 _atom_site_fract_z
 _atom_site_occupancy
  Al  Al0  1  0.13771997  0.99027196  0.62672896  1
  Ca  Ca1  1  0.63771997  0.13645699  0.62672997  1
  Ca  Ca2  1  0.88645696  0.23900899  0.12672897  1
  Ca  Ca3  1  0.38645698  0.38771998  0.12672898  1
  Al  Al4  1  0.61227997  0.25972799  0.87327096  1
  Ag  Ag5  1  0.11227999  0.11354300  0.87326997  1
  Al  Al6  1  0.86354296  0.01099100  0.37327097  1
  Al  Al7  1  0.36354297  0.86227996  0.37327096  1
  Al  Al8  1  0.98900895  0.49027198  0.62672895  1
  Al  Al9  1  0.48900897  0.63645697  0.62672996  1
  Al  Al10  1  0.74027295  0.73900997  0.12672996  1
  Al  Al11  1  0.24027297  0.88772096  0.12672997  1
  Al  Al12  1  0.76099095  0.75972797  0.87327094  1
  Ge  Ge13  1  0.26099098  0.61354297  0.87326996  1
  Ge  Ge14  1  0.00972699  0.51098998  0.37326998  1
  Ge  Ge15  1  0.50972697  0.36227898  0.37326997  1
  Ge  Ge16  1  0.74999995  0.74999997  0.49999995  1
  Ge  Ge17  1  0.24999998  0.24999999  0.49999997  1
  Ge  Ge18  1  -0.00000001  0.49999998  -0.00000001  1
  Ge  Ge19  1  0.49999998  0.00000000  -0.00000001  1
