# generated using pymatgen
data_La2In3BiO2
_symmetry_space_group_name_H-M   'P 1'
_cell_length_a   6.89937210
_cell_length_b   6.89937210
_cell_length_c   7.14483309
_cell_angle_alpha   90.00000000
_cell_angle_beta   90.00000000
_cell_angle_gamma   90.00000000
_symmetry_Int_Tables_number   1
_chemical_formula_structural   La2In3BiO2
_chemical_formula_sum   'La4 In6 Bi2 O4'
_cell_volume   340.10359609
_cell_formula_units_Z   2
loop_
 _symmetry_equiv_pos_site_id
 _symmetry_equiv_pos_as_xyz
  1  'x, y, z'
loop_
 _atom_site_type_symbol
 _atom_site_label
 _atom_site_symmetry_multiplicity
 _atom_site_fract_x
 _atom_site_fract_y
 _atom_site_fract_z
 _atom_site_occupancy
  La  La0  1  0.00000000  0.49999999  0.00000000  1
  La  La1  1  0.00000000  0.49999999  0.49999999  1
  La  La2  1  0.49999999  0.00000000  0.49999999  1
  La  La3  1  0.49999999  0.00000000  0.00000000  1
  In  In4  1  0.15416900  0.15416900  0.25588500  1
  In  In5  1  0.34583099  0.65416899  0.75588499  1
  In  In6  1  0.65416899  0.34583099  0.75588499  1
  In  In7  1  0.65416899  0.34583099  0.24411500  1
  In  In8  1  0.34583099  0.65416899  0.24411500  1
  In  In9  1  0.84583099  0.84583099  0.25588500  1
  Bi  Bi10  1  0.15416900  0.15416900  0.74411499  1
  Bi  Bi11  1  0.84583099  0.84583099  0.74411499  1
  O  O12  1  0.34896699  0.34896699  0.00000000  1
  O  O13  1  0.15103300  0.84896699  0.49999999  1
  O  O14  1  0.84896699  0.15103300  0.49999999  1
  O  O15  1  0.65103299  0.65103299  0.00000000  1
