# generated using pymatgen
data_LaBi(SeO)2
_symmetry_space_group_name_H-M   'P 1'
_cell_length_a   4.07297421
_cell_length_b   4.07297421
_cell_length_c   6.84349012
_cell_angle_alpha   90.00000000
_cell_angle_beta   90.00000000
_cell_angle_gamma   90.00000000
_symmetry_Int_Tables_number   1
_chemical_formula_structural   LaBi(SeO)2
_chemical_formula_sum   'La1 Bi1 Se2 O2'
_cell_volume   113.52747118
_cell_formula_units_Z   1
loop_
 _symmetry_equiv_pos_site_id
 _symmetry_equiv_pos_as_xyz
  1  'x, y, z'
loop_
 _atom_site_type_symbol
 _atom_site_label
 _atom_site_symmetry_multiplicity
 _atom_site_fract_x
 _atom_site_fract_y
 _atom_site_fract_z
 _atom_site_occupancy
  La  La0  1  0.00000000  0.49999997  0.82736099  1
  Bi  Bi1  1  0.49999997  0.00000000  0.17263900  1
  Se  Se2  1  0.49999997  0.00000000  0.62785099  1
  Se  Se3  1  0.00000000  0.49999997  0.37214899  1
  O  O4  1  0.00000000  0.00000000  0.00000000  1
  O  O5  1  0.49999997  0.49999997  0.00000000  1
