# generated using pymatgen
data_LiS
_symmetry_space_group_name_H-M   'P 1'
_cell_length_a   4.04552984
_cell_length_b   4.04552937
_cell_length_c   6.64924097
_cell_angle_alpha   90.00000000
_cell_angle_beta   90.00000000
_cell_angle_gamma   120.00000763
_symmetry_Int_Tables_number   1
_chemical_formula_structural   LiS
_chemical_formula_sum   'Li2 S2'
_cell_volume   94.24394076
_cell_formula_units_Z   2
loop_
 _symmetry_equiv_pos_site_id
 _symmetry_equiv_pos_as_xyz
  1  'x, y, z'
loop_
 _atom_site_type_symbol
 _atom_site_label
 _atom_site_symmetry_multiplicity
 _atom_site_fract_x
 _atom_site_fract_y
 _atom_site_fract_z
 _atom_site_occupancy
  Li  Li0  1  0.66666671  0.33333334  0.99924000  1
  Li  Li1  1  0.33333338  0.66666668  0.49924000  1
  S  S2  1  0.66666671  0.33333334  0.62476000  1
  S  S3  1  0.33333338  0.66666668  0.12476000  1
