# generated using pymatgen
data_Sc2B3Ir5
_symmetry_space_group_name_H-M   'P 1'
_cell_length_a   3.06262398
_cell_length_b   9.42529392
_cell_length_c   9.42529392
_cell_angle_alpha   90.00000000
_cell_angle_beta   90.00000000
_cell_angle_gamma   90.00000000
_symmetry_Int_Tables_number   1
_chemical_formula_structural   Sc2B3Ir5
_chemical_formula_sum   'Sc4 B6 Ir10'
_cell_volume   272.07177062
_cell_formula_units_Z   2
loop_
 _symmetry_equiv_pos_site_id
 _symmetry_equiv_pos_as_xyz
  1  'x, y, z'
loop_
 _atom_site_type_symbol
 _atom_site_label
 _atom_site_symmetry_multiplicity
 _atom_site_fract_x
 _atom_site_fract_y
 _atom_site_fract_z
 _atom_site_occupancy
  Sc  Sc0  1  0.00000000  0.67561901  0.17561900  1
  Sc  Sc1  1  0.00000000  0.32438100  0.82438101  1
  Sc  Sc2  1  1.00000001  0.17561900  0.32438100  1
  Sc  Sc3  1  0.00000000  0.82438101  0.67561901  1
  B  B4  1  0.00000000  0.00000000  0.00000000  1
  B  B5  1  0.00000000  0.50000000  0.50000000  1
  B  B6  1  0.00000000  0.12528300  0.62528301  1
  B  B7  1  -0.00000000  0.87471701  0.37471700  1
  B  B8  1  0.00000000  0.62528301  0.87471701  1
  B  B9  1  1.00000001  0.37471700  0.12528300  1
  Ir  Ir10  1  0.50000000  0.21637000  0.07076300  1
  Ir  Ir11  1  0.50000000  0.78363001  0.92923701  1
  Ir  Ir12  1  0.50000000  0.07076300  0.78363001  1
  Ir  Ir13  1  0.50000000  0.71637001  0.42923700  1
  Ir  Ir14  1  0.50000000  0.92923701  0.21637000  1
  Ir  Ir15  1  0.50000000  0.28363000  0.57076300  1
  Ir  Ir16  1  0.50000000  0.57076300  0.71637001  1
  Ir  Ir17  1  0.50000000  0.42923700  0.28363000  1
  Ir  Ir18  1  0.50000000  0.50000000  0.00000000  1
  Ir  Ir19  1  0.50000000  0.00000000  0.50000000  1
