# generated using pymatgen
data_SrI2
_symmetry_space_group_name_H-M   'P 1'
_cell_length_a   7.65183592
_cell_length_b   8.77113914
_cell_length_c   13.26638794
_cell_angle_alpha   100.88851929
_cell_angle_beta   106.76170349
_cell_angle_gamma   90.00000000
_symmetry_Int_Tables_number   1
_chemical_formula_structural   SrI2
_chemical_formula_sum   'Sr6 I12'
_cell_volume   835.79280930
_cell_formula_units_Z   6
loop_
 _symmetry_equiv_pos_site_id
 _symmetry_equiv_pos_as_xyz
  1  'x, y, z'
loop_
 _atom_site_type_symbol
 _atom_site_label
 _atom_site_symmetry_multiplicity
 _atom_site_fract_x
 _atom_site_fract_y
 _atom_site_fract_z
 _atom_site_occupancy
  Sr  Sr0  1  0.38807301  0.63975797  0.33379300  1
  Sr  Sr1  1  0.94572002  0.13975799  0.33379301  1
  Sr  Sr2  1  0.05428000  0.86024196  0.66620699  1
  Sr  Sr3  1  0.61192701  0.36024198  0.66620701  1
  Sr  Sr4  1  0.66954501  0.74999996  0.00000000  1
  Sr  Sr5  1  0.33045501  0.24999999  0.00000000  1
  I  I6  1  0.59684401  0.53274097  0.15229000  1
  I  I7  1  0.55544601  0.03274100  0.15229001  1
  I  I8  1  0.06155900  0.83203296  0.18185499  1
  I  I9  1  0.12029600  0.33203298  0.18185500  1
  I  I10  1  0.72972501  0.90774896  0.45229700  1
  I  I11  1  0.72257201  0.40774898  0.45229701  1
  I  I12  1  0.27742801  0.59225097  0.54770300  1
  I  I13  1  0.27027500  0.09225100  0.54770300  1
  I  I14  1  0.87970402  0.66796697  0.81814501  1
  I  I15  1  0.93844102  0.16796699  0.81814501  1
  I  I16  1  0.44455401  0.96725895  0.84771000  1
  I  I17  1  0.40315601  0.46725898  0.84771000  1
