# generated using pymatgen
data_WBr4ClF4
_symmetry_space_group_name_H-M   'P 1'
_cell_length_a   3.85151196
_cell_length_b   7.70130205
_cell_length_c   9.00657940
_cell_angle_alpha   90.00000000
_cell_angle_beta   90.00000000
_cell_angle_gamma   90.00000000
_symmetry_Int_Tables_number   1
_chemical_formula_structural   WBr4ClF4
_chemical_formula_sum   'W1 Br4 Cl1 F4'
_cell_volume   267.15006818
_cell_formula_units_Z   1
loop_
 _symmetry_equiv_pos_site_id
 _symmetry_equiv_pos_as_xyz
  1  'x, y, z'
loop_
 _atom_site_type_symbol
 _atom_site_label
 _atom_site_symmetry_multiplicity
 _atom_site_fract_x
 _atom_site_fract_y
 _atom_site_fract_z
 _atom_site_occupancy
  W  W0  1  0.00660800  0.74999999  -0.00000000  1
  Br  Br1  1  0.99339201  0.25000000  0.00000000  1
  Br  Br2  1  0.99719501  0.74999999  0.72237697  1
  Cl  Cl3  1  0.99719501  0.74999999  0.27762299  1
  Br  Br4  1  0.00280500  0.25000000  0.72237697  1
  Br  Br5  1  0.00280500  0.25000000  0.27762299  1
  F  F6  1  0.50109901  0.74999999  -0.00000000  1
  F  F7  1  0.00000000  0.50000000  0.00000000  1
  F  F8  1  0.49890101  0.25000000  0.00000000  1
  F  F9  1  0.00000000  0.00000000  0.00000000  1
