# generated using pymatgen
data_SrCuS3
_symmetry_space_group_name_H-M   'P 1'
_cell_length_a   3.82887006
_cell_length_b   7.88366318
_cell_length_c   13.14069462
_cell_angle_alpha   90.00000000
_cell_angle_beta   90.00000000
_cell_angle_gamma   90.00000000
_symmetry_Int_Tables_number   1
_chemical_formula_structural   SrCuS3
_chemical_formula_sum   'Sr4 Cu4 S12'
_cell_volume   396.65872502
_cell_formula_units_Z   4
loop_
 _symmetry_equiv_pos_site_id
 _symmetry_equiv_pos_as_xyz
  1  'x, y, z'
loop_
 _atom_site_type_symbol
 _atom_site_label
 _atom_site_symmetry_multiplicity
 _atom_site_fract_x
 _atom_site_fract_y
 _atom_site_fract_z
 _atom_site_occupancy
  Sr  Sr0  1  0.25000000  0.08690600  0.82849702  1
  Sr  Sr1  1  0.74999999  0.91309398  0.17150300  1
  Sr  Sr2  1  0.25000000  0.58690599  0.67150302  1
  Sr  Sr3  1  0.74999999  0.41309399  0.32849701  1
  Cu  Cu4  1  0.25000000  0.33842699  0.05247100  1
  Cu  Cu5  1  0.74999999  0.66157299  0.94752903  1
  Cu  Cu6  1  0.25000000  0.83842698  0.44752901  1
  Cu  Cu7  1  0.74999999  0.16157300  0.55247102  1
  S  S8  1  0.25000000  0.48881199  0.89570103  1
  S  S9  1  0.74999999  0.51118799  0.10429900  1
  S  S10  1  0.25000000  0.98881198  0.60429902  1
  S  S11  1  0.74999999  0.01118800  0.39570101  1
  S  S12  1  0.25000000  0.33664399  0.49464001  1
  S  S13  1  0.74999999  0.66335599  0.50536001  1
  S  S14  1  0.25000000  0.83664398  0.00536000  1
  S  S15  1  0.74999999  0.16335600  0.99464003  1
  S  S16  1  0.74999999  0.30424799  0.71294502  1
  S  S17  1  0.25000000  0.69575198  0.28705501  1
  S  S18  1  0.74999999  0.80424798  0.78705502  1
  S  S19  1  0.25000000  0.19575200  0.21294501  1
