# generated using pymatgen
data_Sc2AgI6
_symmetry_space_group_name_H-M   'P 1'
_cell_length_a   7.91870689
_cell_length_b   7.91870689
_cell_length_c   8.62888718
_cell_angle_alpha   62.68715286
_cell_angle_beta   62.68715286
_cell_angle_gamma   59.99999237
_symmetry_Int_Tables_number   1
_chemical_formula_structural   Sc2AgI6
_chemical_formula_sum   'Sc2 Ag1 I6'
_cell_volume   397.41296612
_cell_formula_units_Z   1
loop_
 _symmetry_equiv_pos_site_id
 _symmetry_equiv_pos_as_xyz
  1  'x, y, z'
loop_
 _atom_site_type_symbol
 _atom_site_label
 _atom_site_symmetry_multiplicity
 _atom_site_fract_x
 _atom_site_fract_y
 _atom_site_fract_z
 _atom_site_occupancy
  Sc  Sc0  1  0.49845498  0.49845500  0.50463497  1
  Sc  Sc1  1  0.68138298  0.68138300  0.95585096  1
  Ag  Ag2  1  0.99876097  0.99876100  0.00371695  1
  I  I3  1  0.76981799  0.09304700  0.75496797  1
  I  I4  1  0.09304699  0.38216700  0.75496798  1
  I  I5  1  0.38216698  0.76981800  0.75496797  1
  I  I6  1  0.23929498  0.90539900  0.23863097  1
  I  I7  1  0.90539898  0.61667500  0.23863096  1
  I  I8  1  0.61667499  0.23929500  0.23863098  1
