# generated using pymatgen
data_LiNiH3
_symmetry_space_group_name_H-M   'P 1'
_cell_length_a   3.18708801
_cell_length_b   4.52250910
_cell_length_c   4.52250910
_cell_angle_alpha   60.85793304
_cell_angle_beta   69.36837006
_cell_angle_gamma   69.36837006
_symmetry_Int_Tables_number   1
_chemical_formula_structural   LiNiH3
_chemical_formula_sum   'Li1 Ni1 H3'
_cell_volume   51.96347906
_cell_formula_units_Z   1
loop_
 _symmetry_equiv_pos_site_id
 _symmetry_equiv_pos_as_xyz
  1  'x, y, z'
loop_
 _atom_site_type_symbol
 _atom_site_label
 _atom_site_symmetry_multiplicity
 _atom_site_fract_x
 _atom_site_fract_y
 _atom_site_fract_z
 _atom_site_occupancy
  Li  Li0  1  0.00000000  0.00000000  0.00000000  1
  Ni  Ni1  1  0.50000003  0.70494797  0.29505198  1
  H  H2  1  0.50000001  0.29505199  0.70494798  1
  H  H3  1  0.20038201  0.29961799  0.29961798  1
  H  H4  1  0.79961802  0.70038197  0.70038198  1
