# generated using pymatgen
data_Sr2Ni5P3
_symmetry_space_group_name_H-M   'P 1'
_cell_length_a   3.89064097
_cell_length_b   3.89064097
_cell_length_c   13.30872059
_cell_angle_alpha   90.00000000
_cell_angle_beta   90.00000000
_cell_angle_gamma   90.00000000
_symmetry_Int_Tables_number   1
_chemical_formula_structural   Sr2Ni5P3
_chemical_formula_sum   'Sr2 Ni5 P3'
_cell_volume   201.45526392
_cell_formula_units_Z   1
loop_
 _symmetry_equiv_pos_site_id
 _symmetry_equiv_pos_as_xyz
  1  'x, y, z'
loop_
 _atom_site_type_symbol
 _atom_site_label
 _atom_site_symmetry_multiplicity
 _atom_site_fract_x
 _atom_site_fract_y
 _atom_site_fract_z
 _atom_site_occupancy
  Sr  Sr0  1  0.50000000  0.50000000  0.50000002  1
  Sr  Sr1  1  0.00000000  0.00000000  0.00000000  1
  Ni  Ni2  1  -0.00000000  0.50000000  0.25034901  1
  Ni  Ni3  1  0.50000000  0.00000000  0.74965102  1
  Ni  Ni4  1  0.50000000  0.00000000  0.25034901  1
  Ni  Ni5  1  -0.00000000  0.50000000  0.74965102  1
  Ni  Ni6  1  0.50000000  0.50000000  0.15206200  1
  P  P7  1  0.00000000  0.00000000  0.65112502  1
  P  P8  1  0.00000000  0.00000000  0.34887501  1
  P  P9  1  0.50000000  0.50000000  0.84793803  1
