# generated using pymatgen
data_Nb3AlFeO6
_symmetry_space_group_name_H-M   'P 1'
_cell_length_a   3.53699207
_cell_length_b   3.53699207
_cell_length_c   14.32262611
_cell_angle_alpha   90.00000000
_cell_angle_beta   90.00000000
_cell_angle_gamma   120.00000000
_symmetry_Int_Tables_number   1
_chemical_formula_structural   Nb3AlFeO6
_chemical_formula_sum   'Nb3 Al1 Fe1 O6'
_cell_volume   155.17489482
_cell_formula_units_Z   1
loop_
 _symmetry_equiv_pos_site_id
 _symmetry_equiv_pos_as_xyz
  1  'x, y, z'
loop_
 _atom_site_type_symbol
 _atom_site_label
 _atom_site_symmetry_multiplicity
 _atom_site_fract_x
 _atom_site_fract_y
 _atom_site_fract_z
 _atom_site_occupancy
  Al  Al0  1  0.66666666  0.33333333  0.13752800  1
  Nb  Nb1  1  0.66666666  0.33333333  0.49484400  1
  Nb  Nb2  1  0.00000000  0.00000000  0.30974700  1
  Nb  Nb3  1  0.00000000  0.00000000  0.96251299  1
  Fe  Fe4  1  0.00000000  0.00000000  0.68017999  1
  O  O5  1  0.66666666  0.33333333  0.27629900  1
  O  O6  1  0.66666666  0.33333333  0.64055399  1
  O  O7  1  0.66666666  0.33333333  0.00079700  1
  O  O8  1  0.00000000  0.00000000  0.13949000  1
  O  O9  1  0.00000000  0.00000000  0.45711900  1
  O  O10  1  0.00000000  0.00000000  0.82172899  1
