# generated using pymatgen
data_SrLa(SnO3)2
_symmetry_space_group_name_H-M   'P 1'
_cell_length_a   5.92833996
_cell_length_b   6.00442123
_cell_length_c   8.42530346
_cell_angle_alpha   90.14522552
_cell_angle_beta   89.88303375
_cell_angle_gamma   89.81555176
_symmetry_Int_Tables_number   1
_chemical_formula_structural   SrLa(SnO3)2
_chemical_formula_sum   'Sr2 La2 Sn4 O12'
_cell_volume   299.90606365
_cell_formula_units_Z   2
loop_
 _symmetry_equiv_pos_site_id
 _symmetry_equiv_pos_as_xyz
  1  'x, y, z'
loop_
 _atom_site_type_symbol
 _atom_site_label
 _atom_site_symmetry_multiplicity
 _atom_site_fract_x
 _atom_site_fract_y
 _atom_site_fract_z
 _atom_site_occupancy
  Sr  Sr0  1  0.99501264  0.03446389  0.25044287  1
  Sr  Sr1  1  0.00498739  0.96553614  0.74955716  1
  La  La2  1  0.51178804  0.54633605  0.25005705  1
  La  La3  1  0.48821198  0.45366399  0.74994298  1
  Sn  Sn4  1  0.50000001  0.00000000  0.00000001  1
  Sn  Sn5  1  -0.00000000  0.50000002  0.50000001  1
  Sn  Sn6  1  -0.00000000  0.50000002  0.00000001  1
  Sn  Sn7  1  0.50000001  0.00000000  0.50000001  1
  O  O8  1  0.21275326  0.21874169  0.95828549  1
  O  O9  1  0.30521197  0.70373424  0.55399902  1
  O  O10  1  0.78724677  0.78125835  0.04171454  1
  O  O11  1  0.69478806  0.29626580  0.44600102  1
  O  O12  1  0.29512279  0.69842462  0.94337184  1
  O  O13  1  0.21534232  0.21418954  0.53747609  1
  O  O14  1  0.70487724  0.30157542  0.05662819  1
  O  O15  1  0.78465771  0.78581050  0.46252394  1
  O  O16  1  0.43335923  0.94134309  0.25206081  1
  O  O17  1  0.10818314  0.49572470  0.24657128  1
  O  O18  1  0.56664080  0.05865694  0.74793922  1
  O  O19  1  0.89181689  0.50427534  0.75342875  1
