# generated using pymatgen
data_Nb7Pd9
_symmetry_space_group_name_H-M   'P 1'
_cell_length_a   4.74834919
_cell_length_b   5.82888317
_cell_length_c   10.16479397
_cell_angle_alpha   90.00000000
_cell_angle_beta   90.00000000
_cell_angle_gamma   90.00000000
_symmetry_Int_Tables_number   1
_chemical_formula_structural   Nb7Pd9
_chemical_formula_sum   'Nb7 Pd9'
_cell_volume   281.33682386
_cell_formula_units_Z   1
loop_
 _symmetry_equiv_pos_site_id
 _symmetry_equiv_pos_as_xyz
  1  'x, y, z'
loop_
 _atom_site_type_symbol
 _atom_site_label
 _atom_site_symmetry_multiplicity
 _atom_site_fract_x
 _atom_site_fract_y
 _atom_site_fract_z
 _atom_site_occupancy
  Nb  Nb0  1  0.49999998  0.00000000  0.16523100  1
  Nb  Nb1  1  0.49999998  0.49999999  0.66477300  1
  Nb  Nb2  1  0.49999998  0.74049198  0.41166800  1
  Nb  Nb3  1  0.49999998  0.24992599  0.92714600  1
  Nb  Nb4  1  0.49999998  0.25950799  0.41166800  1
  Pd  Pd5  1  0.49999998  0.75007398  0.92714600  1
  Nb  Nb6  1  0.00000000  0.49999999  0.33232500  1
  Nb  Nb7  1  0.00000000  0.00000000  0.83414400  1
  Pd  Pd8  1  0.00000000  0.74970398  0.08153200  1
  Pd  Pd9  1  0.00000000  0.25618099  0.58112600  1
  Pd  Pd10  1  0.00000000  0.25029599  0.08153200  1
  Pd  Pd11  1  0.00000000  0.74381898  0.58112600  1
  Pd  Pd12  1  0.49999998  0.49999999  0.16776600  1
  Pd  Pd13  1  0.49999998  0.00000000  0.66646800  1
  Pd  Pd14  1  0.00000000  0.00000000  0.33453000  1
  Pd  Pd15  1  0.00000000  0.49999999  0.83177300  1
