# generated using pymatgen
data_DyCoO3
_symmetry_space_group_name_H-M   'P 1'
_cell_length_a   5.23396206
_cell_length_b   5.70056677
_cell_length_c   7.35461998
_cell_angle_alpha   90.00000000
_cell_angle_beta   90.00000000
_cell_angle_gamma   90.00000000
_symmetry_Int_Tables_number   1
_chemical_formula_structural   DyCoO3
_chemical_formula_sum   'Dy4 Co4 O12'
_cell_volume   219.43648810
_cell_formula_units_Z   4
loop_
 _symmetry_equiv_pos_site_id
 _symmetry_equiv_pos_as_xyz
  1  'x, y, z'
loop_
 _atom_site_type_symbol
 _atom_site_label
 _atom_site_symmetry_multiplicity
 _atom_site_fract_x
 _atom_site_fract_y
 _atom_site_fract_z
 _atom_site_occupancy
  Dy  Dy0  1  0.52436399  0.58317502  0.25000000  1
  Dy  Dy1  1  0.97563599  0.08317500  0.25000000  1
  Dy  Dy2  1  0.47563599  0.41682502  0.75000000  1
  Dy  Dy3  1  0.02436400  0.91682504  0.75000000  1
  Co  Co4  1  0.00000000  0.50000002  0.00000000  1
  Co  Co5  1  0.49999999  0.00000000  0.50000000  1
  Co  Co6  1  0.00000000  0.50000002  0.50000000  1
  Co  Co7  1  0.49999999  0.00000000  0.00000000  1
  O  O8  1  0.39013500  0.96950204  0.25000000  1
  O  O9  1  0.10986500  0.46950202  0.25000000  1
  O  O10  1  0.60986499  0.03049800  0.75000000  1
  O  O11  1  0.89013499  0.53049802  0.75000000  1
  O  O12  1  0.80009599  0.81389303  0.05266300  1
  O  O13  1  0.69990399  0.31389301  0.44733700  1
  O  O14  1  0.19990400  0.18610701  0.55266300  1
  O  O15  1  0.30009600  0.68610703  0.94733700  1
  O  O16  1  0.19990400  0.18610701  0.94733700  1
  O  O17  1  0.30009600  0.68610703  0.55266300  1
  O  O18  1  0.80009599  0.81389303  0.44733700  1
  O  O19  1  0.69990399  0.31389301  0.05266300  1
