# generated using pymatgen
data_NaV2CuS3
_symmetry_space_group_name_H-M   'P 1'
_cell_length_a   3.42786789
_cell_length_b   5.61920357
_cell_length_c   8.33844757
_cell_angle_alpha   103.20668793
_cell_angle_beta   101.86145782
_cell_angle_gamma   90.00000000
_symmetry_Int_Tables_number   1
_chemical_formula_structural   NaV2CuS3
_chemical_formula_sum   'Na1 V2 Cu1 S3'
_cell_volume   152.84154658
_cell_formula_units_Z   1
loop_
 _symmetry_equiv_pos_site_id
 _symmetry_equiv_pos_as_xyz
  1  'x, y, z'
loop_
 _atom_site_type_symbol
 _atom_site_label
 _atom_site_symmetry_multiplicity
 _atom_site_fract_x
 _atom_site_fract_y
 _atom_site_fract_z
 _atom_site_occupancy
  Na  Na0  1  0.50000000  0.49999997  -0.00000002  1
  V  V1  1  0.24783200  0.20545499  0.49566401  1
  V  V2  1  0.75216800  0.79454496  0.50433599  1
  Cu  Cu3  1  0.65570102  0.02430400  0.31140201  1
  S  S4  1  0.34429899  0.97569595  0.68859800  1
  S  S5  1  0.17591999  0.53642597  0.35184000  1
  S  S6  1  0.82408001  0.46357398  0.64816001  1
