# generated using pymatgen
data_DySi
_symmetry_space_group_name_H-M   'P 1'
_cell_length_a   3.94558191
_cell_length_b   4.27398586
_cell_length_c   5.75727701
_cell_angle_alpha   111.78848267
_cell_angle_beta   90.00000000
_cell_angle_gamma   90.00000000
_symmetry_Int_Tables_number   1
_chemical_formula_structural   DySi
_chemical_formula_sum   'Dy2 Si2'
_cell_volume   90.15118868
_cell_formula_units_Z   2
loop_
 _symmetry_equiv_pos_site_id
 _symmetry_equiv_pos_as_xyz
  1  'x, y, z'
loop_
 _atom_site_type_symbol
 _atom_site_label
 _atom_site_symmetry_multiplicity
 _atom_site_fract_x
 _atom_site_fract_y
 _atom_site_fract_z
 _atom_site_occupancy
  Dy  Dy0  1  0.75000002  0.86206703  0.72413403  1
  Dy  Dy1  1  0.25000001  0.13793300  0.27586601  1
  Si  Si2  1  0.75000002  0.58625902  0.17251801  1
  Si  Si3  1  0.25000001  0.41374101  0.82748203  1
