# generated using pymatgen
data_LiNb3O8
_symmetry_space_group_name_H-M   'P 1'
_cell_length_a   5.20248032
_cell_length_b   5.28853130
_cell_length_c   6.29819965
_cell_angle_alpha   114.04621124
_cell_angle_beta   113.03294373
_cell_angle_gamma   90.00415039
_symmetry_Int_Tables_number   1
_chemical_formula_structural   LiNb3O8
_chemical_formula_sum   'Li1 Nb3 O8'
_cell_volume   142.98488788
_cell_formula_units_Z   1
loop_
 _symmetry_equiv_pos_site_id
 _symmetry_equiv_pos_as_xyz
  1  'x, y, z'
loop_
 _atom_site_type_symbol
 _atom_site_label
 _atom_site_symmetry_multiplicity
 _atom_site_fract_x
 _atom_site_fract_y
 _atom_site_fract_z
 _atom_site_occupancy
  Li  Li0  1  0.49783501  0.99660296  0.99498100  1
  Nb  Nb1  1  0.99939103  0.50072298  0.00068298  1
  Nb  Nb2  1  0.74172102  0.73745397  0.49684399  1
  Nb  Nb3  1  0.25254201  0.25752199  0.49650701  1
  O  O4  1  0.09496200  0.67829897  0.74152400  1
  O  O5  1  0.33229601  0.92037996  0.24381698  1
  O  O6  1  0.89553402  0.31736099  0.24687300  1
  O  O7  1  0.39772501  0.42423098  0.26039199  1
  O  O8  1  0.66355402  0.07312000  0.74443902  1
  O  O9  1  0.17518500  0.19168099  0.75942001  1
  O  O10  1  0.59806001  0.57650198  0.75236100  1
  O  O11  1  0.83922002  0.82151897  0.25395098  1
