# generated using pymatgen
data_CeGe3Ru
_symmetry_space_group_name_H-M   'P 1'
_cell_length_a   4.18689585
_cell_length_b   4.18689585
_cell_length_c   5.80884457
_cell_angle_alpha   111.12413025
_cell_angle_beta   111.12413025
_cell_angle_gamma   90.00000000
_symmetry_Int_Tables_number   1
_chemical_formula_structural   CeGe3Ru
_chemical_formula_sum   'Ce1 Ge3 Ru1'
_cell_volume   87.61125818
_cell_formula_units_Z   1
loop_
 _symmetry_equiv_pos_site_id
 _symmetry_equiv_pos_as_xyz
  1  'x, y, z'
loop_
 _atom_site_type_symbol
 _atom_site_label
 _atom_site_symmetry_multiplicity
 _atom_site_fract_x
 _atom_site_fract_y
 _atom_site_fract_z
 _atom_site_occupancy
  Ce  Ce0  1  0.42599598  0.42599600  0.85199194  1
  Ge  Ge1  1  0.15654197  0.65654200  0.31308395  1
  Ge  Ge2  1  0.65654200  0.15654200  0.31308395  1
  Ge  Ge3  1  0.00016100  0.00016100  0.00032200  1
  Ru  Ru4  1  0.76569897  0.76569900  0.53139791  1
