# generated using pymatgen
data_La2In7Ni3
_symmetry_space_group_name_H-M   'P 1'
_cell_length_a   4.51712370
_cell_length_b   7.31233788
_cell_length_c   8.68163681
_cell_angle_alpha   90.00000000
_cell_angle_beta   105.07919312
_cell_angle_gamma   90.00000000
_symmetry_Int_Tables_number   1
_chemical_formula_structural   La2In7Ni3
_chemical_formula_sum   'La2 In7 Ni3'
_cell_volume   276.88685476
_cell_formula_units_Z   1
loop_
 _symmetry_equiv_pos_site_id
 _symmetry_equiv_pos_as_xyz
  1  'x, y, z'
loop_
 _atom_site_type_symbol
 _atom_site_label
 _atom_site_symmetry_multiplicity
 _atom_site_fract_x
 _atom_site_fract_y
 _atom_site_fract_z
 _atom_site_occupancy
  La  La0  1  0.87580395  0.25000000  0.75160700  1
  La  La1  1  0.12419599  0.75000001  0.24839301  1
  In  In2  1  0.31178598  0.54733201  0.62357101  1
  In  In3  1  0.07342900  0.25000000  0.14685800  1
  In  In4  1  0.68821396  0.04733200  0.37642899  1
  In  In5  1  0.49999997  0.00000000  -0.00000001  1
  In  In6  1  0.92657094  0.75000001  0.85314200  1
  In  In7  1  0.68821396  0.45266801  0.37642899  1
  In  In8  1  0.31178598  0.95266802  0.62357101  1
  Ni  Ni9  1  0.49999997  0.50000001  -0.00000001  1
  Ni  Ni10  1  0.22609399  0.25000000  0.45218801  1
  Ni  Ni11  1  0.77390595  0.75000001  0.54781200  1
