# generated using pymatgen
data_Ce2In9SnGeRh5
_symmetry_space_group_name_H-M   'P 1'
_cell_length_a   7.81025648
_cell_length_b   7.81025648
_cell_length_c   7.81025648
_cell_angle_alpha   73.36070251
_cell_angle_beta   68.92092133
_cell_angle_gamma   110.73206329
_symmetry_Int_Tables_number   1
_chemical_formula_structural   Ce2In9SnGeRh5
_chemical_formula_sum   'Ce2 In9 Sn1 Ge1 Rh5'
_cell_volume   366.08196617
_cell_formula_units_Z   1
loop_
 _symmetry_equiv_pos_site_id
 _symmetry_equiv_pos_as_xyz
  1  'x, y, z'
loop_
 _atom_site_type_symbol
 _atom_site_label
 _atom_site_symmetry_multiplicity
 _atom_site_fract_x
 _atom_site_fract_y
 _atom_site_fract_z
 _atom_site_occupancy
  Ce  Ce0  1  0.21631798  0.98102801  0.23529001  1
  Ce  Ce1  1  0.78368200  0.01897200  0.76471004  1
  In  In2  1  0.78368199  0.54839200  0.23529003  1
  In  In3  1  0.21631799  0.45160800  0.76471002  1
  In  In4  1  0.29866999  0.68697600  0.01435401  1
  In  In5  1  0.70132999  0.31302400  0.98564604  1
  Sn  Sn6  1  0.70132999  0.68697700  0.61169403  1
  In  In7  1  0.29866999  0.31302300  0.38830601  1
  In  In8  1  0.47472000  0.19035500  0.71563403  1
  In  In9  1  0.52527999  0.80964601  0.28436602  1
  In  In10  1  0.90598900  0.19035500  0.28436504  1
  In  In11  1  0.09401099  0.80964601  0.71563501  1
  Rh  Rh12  1  -0.00000001  0.50000000  0.50000000  1
  Rh  Rh13  1  0.00000000  0.00000000  0.00000000  1
  Ge  Ge14  1  0.37012199  0.37012200  1.00000002  1
  Rh  Rh15  1  0.62987799  0.62987800  1.00000003  1
  Rh  Rh16  1  0.49999998  0.88176601  0.61823402  1
  Rh  Rh17  1  0.50000000  0.11823400  0.38176602  1
