# generated using pymatgen
data_NdSiRu2C
_symmetry_space_group_name_H-M   'P 1'
_cell_length_a   3.95567012
_cell_length_b   5.92686987
_cell_length_c   7.13804388
_cell_angle_alpha   90.00000000
_cell_angle_beta   90.00000000
_cell_angle_gamma   109.49389648
_symmetry_Int_Tables_number   1
_chemical_formula_structural   NdSiRu2C
_chemical_formula_sum   'Nd2 Si2 Ru4 C2'
_cell_volume   157.75662398
_cell_formula_units_Z   2
loop_
 _symmetry_equiv_pos_site_id
 _symmetry_equiv_pos_as_xyz
  1  'x, y, z'
loop_
 _atom_site_type_symbol
 _atom_site_label
 _atom_site_symmetry_multiplicity
 _atom_site_fract_x
 _atom_site_fract_y
 _atom_site_fract_z
 _atom_site_occupancy
  Nd  Nd0  1  0.44767089  0.89534197  0.75000001  1
  Nd  Nd1  1  0.55232897  0.10465800  0.25000000  1
  Si  Si2  1  0.72770193  0.45540399  0.75000001  1
  Si  Si3  1  0.27229794  0.54459598  0.25000000  1
  Ru  Ru4  1  0.16546496  0.33092999  0.94276102  1
  Ru  Ru5  1  0.83453491  0.66906998  0.05723900  1
  Ru  Ru6  1  0.83453491  0.66906998  0.44276101  1
  Ru  Ru7  1  0.16546496  0.33092999  0.55723901  1
  C  C8  1  0.00000000  0.00000000  0.00000000  1
  C  C9  1  0.00000000  0.00000000  0.50000001  1
