# generated using pymatgen
data_NaPa3O8
_symmetry_space_group_name_H-M   'P 1'
_cell_length_a   5.24350405
_cell_length_b   5.24350405
_cell_length_c   6.45181513
_cell_angle_alpha   113.97630310
_cell_angle_beta   113.97630310
_cell_angle_gamma   90.00000000
_symmetry_Int_Tables_number   1
_chemical_formula_structural   NaPa3O8
_chemical_formula_sum   'Na1 Pa3 O8'
_cell_volume   145.17101020
_cell_formula_units_Z   1
loop_
 _symmetry_equiv_pos_site_id
 _symmetry_equiv_pos_as_xyz
  1  'x, y, z'
loop_
 _atom_site_type_symbol
 _atom_site_label
 _atom_site_symmetry_multiplicity
 _atom_site_fract_x
 _atom_site_fract_y
 _atom_site_fract_z
 _atom_site_occupancy
  Na  Na0  1  0.00000000  0.00000000  0.00000000  1
  Pa  Pa1  1  0.74999995  0.24999999  0.49999992  1
  Pa  Pa2  1  0.49999994  0.49999997  -0.00000007  1
  Pa  Pa3  1  0.24999994  0.74999996  0.49999990  1
  O  O4  1  0.37499992  0.87681495  0.24999989  1
  O  O5  1  0.87499994  0.37318498  0.24999991  1
  O  O6  1  0.12318495  0.62499997  0.74999991  1
  O  O7  1  0.62681493  0.62499997  0.74999988  1
  O  O8  1  0.87499990  0.87681495  0.24999986  1
  O  O9  1  0.62681497  0.12499999  0.74999993  1
  O  O10  1  0.12318499  0.12499999  0.74999996  1
  O  O11  1  0.37499996  0.37318498  0.24999994  1
