# generated using pymatgen
data_NdNi3
_symmetry_space_group_name_H-M   'P 1'
_cell_length_a   5.48452806
_cell_length_b   5.48452854
_cell_length_c   7.96061087
_cell_angle_alpha   90.00000000
_cell_angle_beta   90.00000000
_cell_angle_gamma   120.00000000
_symmetry_Int_Tables_number   1
_chemical_formula_structural   NdNi3
_chemical_formula_sum   'Nd3 Ni9'
_cell_volume   207.37461409
_cell_formula_units_Z   3
loop_
 _symmetry_equiv_pos_site_id
 _symmetry_equiv_pos_as_xyz
  1  'x, y, z'
loop_
 _atom_site_type_symbol
 _atom_site_label
 _atom_site_symmetry_multiplicity
 _atom_site_fract_x
 _atom_site_fract_y
 _atom_site_fract_z
 _atom_site_occupancy
  Nd  Nd0  1  0.50000004  0.99999999  0.66666668  1
  Nd  Nd1  1  0.00000002  0.50000000  0.33333334  1
  Nd  Nd2  1  0.50000002  0.50000000  1.00000002  1
  Ni  Ni3  1  0.00000002  0.50000000  0.83333301  1
  Ni  Ni4  1  0.50000004  0.99999999  0.16666700  1
  Ni  Ni5  1  0.50000002  0.50000000  0.50000001  1
  Ni  Ni6  1  0.69643003  0.84821499  0.33333334  1
  Ni  Ni7  1  0.84821502  0.69642999  0.66666668  1
  Ni  Ni8  1  0.15178504  0.84821499  1.00000002  1
  Ni  Ni9  1  0.15178501  0.30357000  0.66666668  1
  Ni  Ni10  1  0.84821500  0.15178500  1.00000002  1
  Ni  Ni11  1  0.30357000  0.15178500  0.33333334  1
