# generated using pymatgen
data_Nd2Mg
_symmetry_space_group_name_H-M   'P 1'
_cell_length_a   3.75346208
_cell_length_b   7.04348612
_cell_length_c   7.56166792
_cell_angle_alpha   105.39333344
_cell_angle_beta   90.00000000
_cell_angle_gamma   105.45307922
_symmetry_Int_Tables_number   1
_chemical_formula_structural   Nd2Mg
_chemical_formula_sum   'Nd4 Mg2'
_cell_volume   185.23313089
_cell_formula_units_Z   2
loop_
 _symmetry_equiv_pos_site_id
 _symmetry_equiv_pos_as_xyz
  1  'x, y, z'
loop_
 _atom_site_type_symbol
 _atom_site_label
 _atom_site_symmetry_multiplicity
 _atom_site_fract_x
 _atom_site_fract_y
 _atom_site_fract_z
 _atom_site_occupancy
  Nd  Nd0  1  0.15251599  0.30503200  0.56907597  1
  Nd  Nd1  1  0.84748396  0.69496800  0.43092396  1
  Nd  Nd2  1  0.16518299  0.33036600  0.08886599  1
  Nd  Nd3  1  0.83481696  0.66963400  0.91113395  1
  Mg  Mg4  1  0.50480499  0.00961000  0.76633698  1
  Mg  Mg5  1  0.49519496  0.99039001  0.23366296  1
