# generated using pymatgen
data_NdInRh
_symmetry_space_group_name_H-M   'P 1'
_cell_length_a   4.55689287
_cell_length_b   7.33507013
_cell_length_c   7.80542278
_cell_angle_alpha   90.00000000
_cell_angle_beta   90.00000000
_cell_angle_gamma   90.00000000
_symmetry_Int_Tables_number   1
_chemical_formula_structural   NdInRh
_chemical_formula_sum   'Nd4 In4 Rh4'
_cell_volume   260.89726189
_cell_formula_units_Z   4
loop_
 _symmetry_equiv_pos_site_id
 _symmetry_equiv_pos_as_xyz
  1  'x, y, z'
loop_
 _atom_site_type_symbol
 _atom_site_label
 _atom_site_symmetry_multiplicity
 _atom_site_fract_x
 _atom_site_fract_y
 _atom_site_fract_z
 _atom_site_occupancy
  Nd  Nd0  1  0.25000001  0.01424800  0.31717801  1
  Nd  Nd1  1  0.25000001  0.51424799  0.18282201  1
  Nd  Nd2  1  0.75000002  0.98575198  0.68282202  1
  Nd  Nd3  1  0.75000002  0.48575199  0.81717802  1
  In  In4  1  0.75000002  0.84520498  0.06827600  1
  In  In5  1  0.25000001  0.15479500  0.93172403  1
  In  In6  1  0.25000001  0.65479499  0.56827602  1
  In  In7  1  0.75000002  0.34520499  0.43172401  1
  Rh  Rh8  1  0.25000001  0.79159199  0.88755902  1
  Rh  Rh9  1  0.75000002  0.20840800  0.11244100  1
  Rh  Rh10  1  0.75000002  0.70840799  0.38755901  1
  Rh  Rh11  1  0.25000001  0.29159199  0.61244102  1
