# generated using pymatgen
data_Sr5Sb3
_symmetry_space_group_name_H-M   'P 1'
_cell_length_a   9.04801559
_cell_length_b   9.04801559
_cell_length_c   10.80752659
_cell_angle_alpha   114.74610138
_cell_angle_beta   114.74610138
_cell_angle_gamma   90.00000000
_symmetry_Int_Tables_number   1
_chemical_formula_structural   Sr5Sb3
_chemical_formula_sum   'Sr10 Sb6'
_cell_volume   713.08252984
_cell_formula_units_Z   2
loop_
 _symmetry_equiv_pos_site_id
 _symmetry_equiv_pos_as_xyz
  1  'x, y, z'
loop_
 _atom_site_type_symbol
 _atom_site_label
 _atom_site_symmetry_multiplicity
 _atom_site_fract_x
 _atom_site_fract_y
 _atom_site_fract_z
 _atom_site_occupancy
  Sr  Sr0  1  0.17823102  0.03575700  0.71398804  1
  Sr  Sr1  1  0.46424306  0.32176903  0.28601206  1
  Sr  Sr2  1  0.00000000  0.00000000  0.00000000  1
  Sr  Sr3  1  0.50000007  0.50000004  0.00000007  1
  Sr  Sr4  1  0.53575709  0.67823106  0.71398811  1
  Sr  Sr5  1  0.03575704  0.53575705  0.71398808  1
  Sr  Sr6  1  0.67823106  0.17823102  0.71398808  1
  Sr  Sr7  1  0.96424310  0.46424304  0.28601210  1
  Sr  Sr8  1  0.32176908  0.82176907  0.28601210  1
  Sr  Sr9  1  0.82176913  0.96424308  0.28601214  1
  Sb  Sb10  1  0.75000011  0.75000007  0.50000012  1
  Sb  Sb11  1  0.25000004  0.25000002  0.50000005  1
  Sb  Sb12  1  0.11527703  0.38472303  1.00000008  1
  Sb  Sb13  1  0.61527705  0.11527701  0.00000004  1
  Sb  Sb14  1  0.38472309  0.88472308  0.00000010  1
  Sb  Sb15  1  0.88472311  0.61527705  0.00000010  1
