# generated using pymatgen
data_LiNiO2
_symmetry_space_group_name_H-M   'P 1'
_cell_length_a   5.73501778
_cell_length_b   5.79090214
_cell_length_c   5.75433016
_cell_angle_alpha   119.79130554
_cell_angle_beta   90.00000000
_cell_angle_gamma   119.68128204
_symmetry_Int_Tables_number   1
_chemical_formula_structural   LiNiO2
_chemical_formula_sum   'Li4 Ni4 O8'
_cell_volume   136.20281487
_cell_formula_units_Z   4
loop_
 _symmetry_equiv_pos_site_id
 _symmetry_equiv_pos_as_xyz
  1  'x, y, z'
loop_
 _atom_site_type_symbol
 _atom_site_label
 _atom_site_symmetry_multiplicity
 _atom_site_fract_x
 _atom_site_fract_y
 _atom_site_fract_z
 _atom_site_occupancy
  Li  Li0  1  0.50000005  0.50000003  0.99999999  1
  Li  Li1  1  0.50000002  0.00000000  0.49999999  1
  Li  Li2  1  0.50000002  0.00000000  0.00000000  1
  Li  Li3  1  1.00000007  0.50000003  0.99999999  1
  Ni  Ni4  1  1.00000007  0.50000003  0.50000000  1
  Ni  Ni5  1  0.50000005  0.50000003  0.50000000  1
  Ni  Ni6  1  0.00000000  0.00000000  0.49999999  1
  Ni  Ni7  1  0.00000000  0.00000000  0.00000000  1
  O  O8  1  0.25016504  0.50033003  0.27181101  1
  O  O9  1  0.21563807  0.96766606  0.73383301  1
  O  O10  1  0.24797201  0.03233400  0.26616699  1
  O  O11  1  0.74983506  0.49967003  0.27148101  1
  O  O12  1  0.25016504  0.50033003  0.72851900  1
  O  O13  1  0.75202810  0.96766606  0.73383301  1
  O  O14  1  0.78436203  0.03233400  0.26616699  1
  O  O15  1  0.74983506  0.49967003  0.72818900  1
