# generated using pymatgen
data_Te7W3Se2
_symmetry_space_group_name_H-M   'P 1'
_cell_length_a   3.55708003
_cell_length_b   3.55707955
_cell_length_c   40.13918304
_cell_angle_alpha   90.00000000
_cell_angle_beta   90.00000000
_cell_angle_gamma   120.00000763
_symmetry_Int_Tables_number   1
_chemical_formula_structural   Te7W3Se2
_chemical_formula_sum   'Te7 W3 Se2'
_cell_volume   439.83151258
_cell_formula_units_Z   1
loop_
 _symmetry_equiv_pos_site_id
 _symmetry_equiv_pos_as_xyz
  1  'x, y, z'
loop_
 _atom_site_type_symbol
 _atom_site_label
 _atom_site_symmetry_multiplicity
 _atom_site_fract_x
 _atom_site_fract_y
 _atom_site_fract_z
 _atom_site_occupancy
  Te  Te0  1  0.66666668  0.33333333  0.04868100  1
  Te  Te1  1  0.66666668  0.33333333  0.67294802  1
  Te  Te2  1  0.33333336  0.66666666  0.32705201  1
  Te  Te3  1  0.33333336  0.66666666  0.95131902  1
  Te  Te4  1  0.33333336  0.66666666  0.23654201  1
  Te  Te5  1  0.33333336  0.66666666  0.86080402  1
  W  W6  1  0.66666668  0.33333333  0.13919600  1
  Te  Te7  1  0.66666668  0.33333333  0.76345802  1
  Se  Se8  1  0.66666668  0.33333333  0.28179401  1
  W  W9  1  0.66666668  0.33333333  0.90608902  1
  W  W10  1  0.33333336  0.66666666  0.09391100  1
  Se  Se11  1  0.33333336  0.66666666  0.71820602  1
