# generated using pymatgen
data_ScSiIr
_symmetry_space_group_name_H-M   'P 1'
_cell_length_a   3.90952992
_cell_length_b   6.67872286
_cell_length_c   7.67576981
_cell_angle_alpha   90.00000000
_cell_angle_beta   90.00000000
_cell_angle_gamma   90.00000000
_symmetry_Int_Tables_number   1
_chemical_formula_structural   ScSiIr
_chemical_formula_sum   'Sc4 Si4 Ir4'
_cell_volume   200.41946839
_cell_formula_units_Z   4
loop_
 _symmetry_equiv_pos_site_id
 _symmetry_equiv_pos_as_xyz
  1  'x, y, z'
loop_
 _atom_site_type_symbol
 _atom_site_label
 _atom_site_symmetry_multiplicity
 _atom_site_fract_x
 _atom_site_fract_y
 _atom_site_fract_z
 _atom_site_occupancy
  Sc  Sc0  1  0.25000000  0.02583200  0.32006301  1
  Sc  Sc1  1  0.25000000  0.52583201  0.17993700  1
  Sc  Sc2  1  0.75000001  0.97416802  0.67993702  1
  Sc  Sc3  1  0.75000001  0.47416801  0.82006302  1
  Si  Si4  1  0.25000000  0.26310201  0.62265902  1
  Si  Si5  1  0.25000000  0.76310202  0.87734102  1
  Si  Si6  1  0.75000001  0.73689802  0.37734101  1
  Si  Si7  1  0.75000001  0.23689801  0.12265900  1
  Ir  Ir8  1  0.25000000  0.14372800  0.93836002  1
  Ir  Ir9  1  0.25000000  0.64372801  0.56164001  1
  Ir  Ir10  1  0.75000001  0.85627202  0.06164000  1
  Ir  Ir11  1  0.75000001  0.35627201  0.43836001  1
