# generated using pymatgen
data_BIr
_symmetry_space_group_name_H-M   'P 1'
_cell_length_a   4.75556993
_cell_length_b   7.51940823
_cell_length_c   7.51940870
_cell_angle_alpha   120.00000000
_cell_angle_beta   90.00000000
_cell_angle_gamma   90.00000000
_symmetry_Int_Tables_number   1
_chemical_formula_structural   BIr
_chemical_formula_sum   'B10 Ir10'
_cell_volume   232.86303757
_cell_formula_units_Z   10
loop_
 _symmetry_equiv_pos_site_id
 _symmetry_equiv_pos_as_xyz
  1  'x, y, z'
loop_
 _atom_site_type_symbol
 _atom_site_label
 _atom_site_symmetry_multiplicity
 _atom_site_fract_x
 _atom_site_fract_y
 _atom_site_fract_z
 _atom_site_occupancy
  B  B0  1  0.16696600  0.81061900  0.62123803  1
  B  B1  1  0.66696601  0.62123800  0.81061902  1
  B  B2  1  0.66696601  0.18938100  0.81061899  1
  B  B3  1  0.16696600  0.81061900  0.18938104  1
  B  B4  1  0.16696600  0.37876200  0.18938102  1
  B  B5  1  0.66696601  0.18938100  0.37876200  1
  B  B6  1  0.75741401  0.87814800  0.75629603  1
  B  B7  1  0.25741400  0.75629700  0.87814902  1
  B  B8  1  0.25741400  0.12185200  0.87814899  1
  B  B9  1  0.75741401  0.87814800  0.12185104  1
  Ir  Ir10  1  0.75741401  0.24370300  0.12185101  1
  Ir  Ir11  1  0.25741400  0.12185200  0.24370400  1
  Ir  Ir12  1  0.92778801  0.66666666  0.33333336  1
  Ir  Ir13  1  0.42778801  0.33333333  0.66666667  1
  Ir  Ir14  1  0.42902501  0.54331900  0.08663803  1
  Ir  Ir15  1  0.92902501  0.08663800  0.54331899  1
  Ir  Ir16  1  0.92902501  0.45668100  0.54331901  1
  Ir  Ir17  1  0.42902501  0.54331900  0.45668102  1
  Ir  Ir18  1  0.42902501  0.91336199  0.45668104  1
  Ir  Ir19  1  0.92902501  0.45668100  0.91336201  1
