# generated using pymatgen
data_LiBe3
_symmetry_space_group_name_H-M   'P 1'
_cell_length_a   2.28128004
_cell_length_b   3.74681401
_cell_length_c   3.74681401
_cell_angle_alpha   90.00000000
_cell_angle_beta   90.00000000
_cell_angle_gamma   90.00000000
_symmetry_Int_Tables_number   1
_chemical_formula_structural   LiBe3
_chemical_formula_sum   'Li1 Be3'
_cell_volume   32.02601276
_cell_formula_units_Z   1
loop_
 _symmetry_equiv_pos_site_id
 _symmetry_equiv_pos_as_xyz
  1  'x, y, z'
loop_
 _atom_site_type_symbol
 _atom_site_label
 _atom_site_symmetry_multiplicity
 _atom_site_fract_x
 _atom_site_fract_y
 _atom_site_fract_z
 _atom_site_occupancy
  Li  Li0  1  0.00000000  0.29740800  0.29740800  1
  Be  Be1  1  0.00000000  0.70259200  0.70259200  1
  Be  Be2  1  0.49999999  0.20259200  0.79740800  1
  Be  Be3  1  0.49999999  0.79740800  0.20259200  1
