# generated using pymatgen
data_BeNbCo
_symmetry_space_group_name_H-M   'P 1'
_cell_length_a   3.98274589
_cell_length_b   4.11054754
_cell_length_c   3.98274589
_cell_angle_alpha   118.97673798
_cell_angle_beta   90.00000000
_cell_angle_gamma   118.97673798
_symmetry_Int_Tables_number   1
_chemical_formula_structural   BeNbCo
_chemical_formula_sum   'Be1 Nb1 Co1'
_cell_volume   47.49541055
_cell_formula_units_Z   1
loop_
 _symmetry_equiv_pos_site_id
 _symmetry_equiv_pos_as_xyz
  1  'x, y, z'
loop_
 _atom_site_type_symbol
 _atom_site_label
 _atom_site_symmetry_multiplicity
 _atom_site_fract_x
 _atom_site_fract_y
 _atom_site_fract_z
 _atom_site_occupancy
  Nb  Nb0  1  0.00000000  0.00000000  0.00000000  1
  Be  Be1  1  0.75000005  0.50000001  0.25000004  1
  Co  Co2  1  0.25000004  0.50000001  0.75000005  1
