# generated using pymatgen
data_La5Sn8Bi
_symmetry_space_group_name_H-M   'P 1'
_cell_length_a   4.56876612
_cell_length_b   6.42683411
_cell_length_c   16.03025818
_cell_angle_alpha   90.00000000
_cell_angle_beta   90.00000000
_cell_angle_gamma   110.82069397
_symmetry_Int_Tables_number   1
_chemical_formula_structural   La5Sn8Bi
_chemical_formula_sum   'La5 Sn8 Bi1'
_cell_volume   439.95428159
_cell_formula_units_Z   1
loop_
 _symmetry_equiv_pos_site_id
 _symmetry_equiv_pos_as_xyz
  1  'x, y, z'
loop_
 _atom_site_type_symbol
 _atom_site_label
 _atom_site_symmetry_multiplicity
 _atom_site_fract_x
 _atom_site_fract_y
 _atom_site_fract_z
 _atom_site_occupancy
  La  La0  1  0.32820005  0.65640001  0.90244305  1
  La  La1  1  0.04271501  0.08543000  0.75000004  1
  La  La2  1  0.32820005  0.65640001  0.59755703  1
  La  La3  1  0.67180001  0.34360001  0.40244302  1
  La  La4  1  0.95728505  0.91457002  0.25000001  1
  Bi  Bi5  1  0.67180001  0.34360001  0.09755700  1
  Sn  Sn6  1  0.00000000  0.00000000  0.00000000  1
  Sn  Sn7  1  0.61632300  0.23264601  0.89297605  1
  Sn  Sn8  1  0.77279003  0.54558001  0.75000004  1
  Sn  Sn9  1  0.61632300  0.23264601  0.60702403  1
  Sn  Sn10  1  0.00000000  0.00000000  0.50000003  1
  Sn  Sn11  1  0.38367705  0.76735402  0.39297602  1
  Sn  Sn12  1  0.22721003  0.45442001  0.25000001  1
  Sn  Sn13  1  0.38367705  0.76735402  0.10702401  1
