# generated using pymatgen
data_Rb4TlIO4
_symmetry_space_group_name_H-M   'P 1'
_cell_length_a   3.86003590
_cell_length_b   8.14897728
_cell_length_c   9.60384274
_cell_angle_alpha   70.96212006
_cell_angle_beta   78.40671539
_cell_angle_gamma   76.29978943
_symmetry_Int_Tables_number   1
_chemical_formula_structural   Rb4TlIO4
_chemical_formula_sum   'Rb4 Tl1 I1 O4'
_cell_volume   274.91535836
_cell_formula_units_Z   1
loop_
 _symmetry_equiv_pos_site_id
 _symmetry_equiv_pos_as_xyz
  1  'x, y, z'
loop_
 _atom_site_type_symbol
 _atom_site_label
 _atom_site_symmetry_multiplicity
 _atom_site_fract_x
 _atom_site_fract_y
 _atom_site_fract_z
 _atom_site_occupancy
  Rb  Rb0  1  0.86228807  0.98509505  0.29032898  1
  Rb  Rb1  1  0.13771200  0.01490500  0.70967099  1
  Rb  Rb2  1  0.58486105  0.78197004  0.04830799  1
  Rb  Rb3  1  0.41513902  0.21803001  0.95169199  1
  O  O4  1  0.04288403  0.65280503  0.26142699  1
  Tl  Tl5  1  0.95711604  0.34719502  0.73857299  1
  I  I6  1  0.22394104  0.66974104  0.88237698  1
  O  O7  1  0.77605904  0.33025902  0.11762299  1
  O  O8  1  0.66187003  0.18288201  0.49337799  1
  O  O9  1  0.33813005  0.81711804  0.50662198  1
