# generated using pymatgen
data_Dy3In5
_symmetry_space_group_name_H-M   'P 1'
_cell_length_a   6.52464008
_cell_length_b   6.52464008
_cell_length_c   10.57268620
_cell_angle_alpha   90.00000000
_cell_angle_beta   90.00000000
_cell_angle_gamma   104.46990967
_symmetry_Int_Tables_number   1
_chemical_formula_structural   Dy3In5
_chemical_formula_sum   'Dy6 In10'
_cell_volume   435.81178997
_cell_formula_units_Z   2
loop_
 _symmetry_equiv_pos_site_id
 _symmetry_equiv_pos_as_xyz
  1  'x, y, z'
loop_
 _atom_site_type_symbol
 _atom_site_label
 _atom_site_symmetry_multiplicity
 _atom_site_fract_x
 _atom_site_fract_y
 _atom_site_fract_z
 _atom_site_occupancy
  Dy  Dy0  1  0.61621400  0.61621401  0.74999999  1
  Dy  Dy1  1  0.38378600  0.38378601  0.25000000  1
  Dy  Dy2  1  0.20600299  0.79399702  0.49999999  1
  Dy  Dy3  1  0.20600299  0.79399702  -0.00000000  1
  Dy  Dy4  1  0.79399702  0.20600300  0.49999999  1
  Dy  Dy5  1  0.79399702  0.20600300  -0.00000000  1
  In  In6  1  0.99958500  0.99958502  0.74999999  1
  In  In7  1  0.00041500  0.00041500  0.25000000  1
  In  In8  1  0.30116900  0.30116901  0.95596798  1
  In  In9  1  0.69883100  0.69883102  0.04403200  1
  In  In10  1  0.30116900  0.30116901  0.54403199  1
  In  In11  1  0.69883100  0.69883102  0.45596799  1
  In  In12  1  0.51339101  0.05830700  0.74999999  1
  In  In13  1  0.94169301  0.48660901  0.25000000  1
  In  In14  1  0.48660899  0.94169302  0.25000000  1
  In  In15  1  0.05830699  0.51339101  0.74999999  1
