# generated using pymatgen
data_CuSe
_symmetry_space_group_name_H-M   'P 1'
_cell_length_a   6.78674221
_cell_length_b   7.19842720
_cell_length_c   8.00196266
_cell_angle_alpha   90.00000000
_cell_angle_beta   90.00000000
_cell_angle_gamma   90.00000000
_symmetry_Int_Tables_number   1
_chemical_formula_structural   CuSe
_chemical_formula_sum   'Cu8 Se8'
_cell_volume   390.92684145
_cell_formula_units_Z   8
loop_
 _symmetry_equiv_pos_site_id
 _symmetry_equiv_pos_as_xyz
  1  'x, y, z'
loop_
 _atom_site_type_symbol
 _atom_site_label
 _atom_site_symmetry_multiplicity
 _atom_site_fract_x
 _atom_site_fract_y
 _atom_site_fract_z
 _atom_site_occupancy
  Cu  Cu0  1  0.50519698  0.34582799  0.00000000  1
  Cu  Cu1  1  0.00519700  0.65417198  0.50000002  1
  Cu  Cu2  1  0.51735098  0.82752898  0.75177803  1
  Cu  Cu3  1  0.01735100  0.17247100  0.74822203  1
  Cu  Cu4  1  0.01735100  0.17247100  0.25177801  1
  Cu  Cu5  1  0.51735098  0.82752898  0.24822201  1
  Cu  Cu6  1  0.00115400  0.66104098  0.00000000  1
  Cu  Cu7  1  0.50115398  0.33895899  0.50000002  1
  Se  Se8  1  0.85987497  0.34858499  -0.00000000  1
  Se  Se9  1  0.35987499  0.65141498  0.50000002  1
  Se  Se10  1  0.89432897  0.82866398  0.74641503  1
  Se  Se11  1  0.39432899  0.17133600  0.75358503  1
  Se  Se12  1  0.39432899  0.17133600  0.24641501  1
  Se  Se13  1  0.89432897  0.82866398  0.25358501  1
  Se  Se14  1  0.36291399  0.65119098  0.00000000  1
  Se  Se15  1  0.86291397  0.34880899  0.50000002  1
