# generated using pymatgen
data_La(CoGe)2
_symmetry_space_group_name_H-M   'P 1'
_cell_length_a   4.19294024
_cell_length_b   4.19294024
_cell_length_c   5.94197655
_cell_angle_alpha   110.66011810
_cell_angle_beta   110.66011810
_cell_angle_gamma   90.00000000
_symmetry_Int_Tables_number   1
_chemical_formula_structural   La(CoGe)2
_chemical_formula_sum   'La1 Co2 Ge2'
_cell_volume   90.53097635
_cell_formula_units_Z   1
loop_
 _symmetry_equiv_pos_site_id
 _symmetry_equiv_pos_as_xyz
  1  'x, y, z'
loop_
 _atom_site_type_symbol
 _atom_site_label
 _atom_site_symmetry_multiplicity
 _atom_site_fract_x
 _atom_site_fract_y
 _atom_site_fract_z
 _atom_site_occupancy
  La  La0  1  0.00000000  0.00000000  0.00000000  1
  Co  Co1  1  0.24999994  0.74999994  0.49999994  1
  Co  Co2  1  0.74999993  0.24999998  0.49999995  1
  Ge  Ge3  1  0.64017492  0.64017495  0.28034993  1
  Ge  Ge4  1  0.35982495  0.35982497  0.71964996  1
