# generated using pymatgen
data_Mn2O3F
_symmetry_space_group_name_H-M   'P 1'
_cell_length_a   5.45439386
_cell_length_b   5.45439386
_cell_length_c   7.24299717
_cell_angle_alpha   71.21801758
_cell_angle_beta   71.21801758
_cell_angle_gamma   70.82505798
_symmetry_Int_Tables_number   1
_chemical_formula_structural   Mn2O3F
_chemical_formula_sum   'Mn6 O9 F3'
_cell_volume   186.97205067
_cell_formula_units_Z   3
loop_
 _symmetry_equiv_pos_site_id
 _symmetry_equiv_pos_as_xyz
  1  'x, y, z'
loop_
 _atom_site_type_symbol
 _atom_site_label
 _atom_site_symmetry_multiplicity
 _atom_site_fract_x
 _atom_site_fract_y
 _atom_site_fract_z
 _atom_site_occupancy
  Mn  Mn0  1  0.67411797  0.67411802  0.84445498  1
  Mn  Mn1  1  0.32777299  0.32777301  0.66892999  1
  Mn  Mn2  1  0.65619197  0.65619202  0.32045899  1
  Mn  Mn3  1  0.33092499  0.33092501  0.16289000  1
  Mn  Mn4  1  0.00387400  0.00387400  0.50843899  1
  Mn  Mn5  1  0.00472100  0.00472100  0.99128098  1
  O  O6  1  0.63867501  0.02721500  0.66689698  1
  O  O7  1  0.97054200  0.36238501  0.33495199  1
  O  O8  1  0.23119699  0.23119701  0.96121498  1
  O  O9  1  0.10325300  0.10325300  0.70521099  1
  O  O10  1  0.77250497  0.77250503  0.03355100  1
  O  O11  1  0.43087598  0.43087601  0.37230099  1
  O  O12  1  0.36238495  0.97054203  0.33495200  1
  O  O13  1  0.02721496  0.63867502  0.66689699  1
  F  F14  1  0.69599599  0.30758901  0.99951398  1
  O  O15  1  0.30758896  0.69599602  0.99951398  1
  F  F16  1  0.89536696  0.89536703  0.29593199  1
  F  F17  1  0.56679798  0.56679802  0.63261199  1
