# generated using pymatgen
data_Sr2MnF6
_symmetry_space_group_name_H-M   'P 1'
_cell_length_a   5.96205902
_cell_length_b   6.72815323
_cell_length_c   6.72815323
_cell_angle_alpha   90.00000000
_cell_angle_beta   90.00000000
_cell_angle_gamma   90.00000000
_symmetry_Int_Tables_number   1
_chemical_formula_structural   Sr2MnF6
_chemical_formula_sum   'Sr4 Mn2 F12'
_cell_volume   269.89076124
_cell_formula_units_Z   2
loop_
 _symmetry_equiv_pos_site_id
 _symmetry_equiv_pos_as_xyz
  1  'x, y, z'
loop_
 _atom_site_type_symbol
 _atom_site_label
 _atom_site_symmetry_multiplicity
 _atom_site_fract_x
 _atom_site_fract_y
 _atom_site_fract_z
 _atom_site_occupancy
  Sr  Sr0  1  0.00000000  0.49999998  0.49999998  1
  Sr  Sr1  1  0.00000000  0.00000000  0.00000000  1
  Sr  Sr2  1  0.50000000  0.67374998  0.17374999  1
  Sr  Sr3  1  0.50000000  0.17374999  0.32624999  1
  Mn  Mn4  1  0.50000000  0.82624997  0.67374998  1
  Mn  Mn5  1  0.50000000  0.32624999  0.82624997  1
  F  F6  1  0.00000000  0.00000000  0.49999998  1
  F  F7  1  0.00000000  0.49999998  -0.00000000  1
  F  F8  1  0.50000000  0.49999998  0.49999998  1
  F  F9  1  0.50000000  0.00000000  -0.00000000  1
  F  F10  1  0.25490300  0.14048700  0.64048698  1
  F  F11  1  0.25490300  0.85951297  0.35951299  1
  F  F12  1  0.25490300  0.35951299  0.14048700  1
  F  F13  1  0.25490300  0.64048698  0.85951297  1
  F  F14  1  0.74509700  0.14048700  0.64048698  1
  F  F15  1  0.74509700  0.64048698  0.85951297  1
  F  F16  1  0.74509700  0.85951297  0.35951299  1
  F  F17  1  0.74509700  0.35951299  0.14048700  1
