# generated using pymatgen
data_DyBe2Co2Ru
_symmetry_space_group_name_H-M   'P 1'
_cell_length_a   3.89239502
_cell_length_b   5.01839781
_cell_length_c   5.01839876
_cell_angle_alpha   60.00000381
_cell_angle_beta   90.00000000
_cell_angle_gamma   90.00000000
_symmetry_Int_Tables_number   1
_chemical_formula_structural   DyBe2Co2Ru
_chemical_formula_sum   'Dy1 Be2 Co2 Ru1'
_cell_volume   84.89415869
_cell_formula_units_Z   1
loop_
 _symmetry_equiv_pos_site_id
 _symmetry_equiv_pos_as_xyz
  1  'x, y, z'
loop_
 _atom_site_type_symbol
 _atom_site_label
 _atom_site_symmetry_multiplicity
 _atom_site_fract_x
 _atom_site_fract_y
 _atom_site_fract_z
 _atom_site_occupancy
  Dy  Dy0  1  0.00000000  0.33333335  0.33333332  1
  Be  Be1  1  -0.00000000  0.66666670  0.66666665  1
  Be  Be2  1  0.00000000  0.00000000  0.00000000  1
  Co  Co3  1  0.50000000  0.32730602  0.83634699  1
  Ru  Ru4  1  0.50000000  0.83634704  0.83634698  1
  Co  Co5  1  0.50000000  0.83634704  0.32730598  1
