# generated using pymatgen
data_BaAl5Ge2
_symmetry_space_group_name_H-M   'P 1'
_cell_length_a   4.62569809
_cell_length_b   4.62569809
_cell_length_c   8.61785698
_cell_angle_alpha   90.00000000
_cell_angle_beta   90.00000000
_cell_angle_gamma   90.00000000
_symmetry_Int_Tables_number   1
_chemical_formula_structural   BaAl5Ge2
_chemical_formula_sum   'Ba1 Al5 Ge2'
_cell_volume   184.39699949
_cell_formula_units_Z   1
loop_
 _symmetry_equiv_pos_site_id
 _symmetry_equiv_pos_as_xyz
  1  'x, y, z'
loop_
 _atom_site_type_symbol
 _atom_site_label
 _atom_site_symmetry_multiplicity
 _atom_site_fract_x
 _atom_site_fract_y
 _atom_site_fract_z
 _atom_site_occupancy
  Ba  Ba0  1  0.00000000  0.00000000  0.00000000  1
  Al  Al1  1  0.49999999  0.00000000  0.68240100  1
  Al  Al2  1  0.00000000  0.49999999  0.68240100  1
  Al  Al3  1  0.49999999  0.00000000  0.31759900  1
  Al  Al4  1  0.00000000  0.49999999  0.31759900  1
  Al  Al5  1  0.00000000  0.00000000  0.50000000  1
  Ge  Ge6  1  0.49999999  0.49999999  0.85723700  1
  Ge  Ge7  1  0.49999999  0.49999999  0.14276300  1
