# generated using pymatgen
data_La(SiPt)2
_symmetry_space_group_name_H-M   'P 1'
_cell_length_a   4.26978207
_cell_length_b   4.26978207
_cell_length_c   5.80797720
_cell_angle_alpha   111.56639099
_cell_angle_beta   111.56639099
_cell_angle_gamma   90.00000000
_symmetry_Int_Tables_number   1
_chemical_formula_structural   La(SiPt)2
_chemical_formula_sum   'La1 Si2 Pt2'
_cell_volume   90.45439773
_cell_formula_units_Z   1
loop_
 _symmetry_equiv_pos_site_id
 _symmetry_equiv_pos_as_xyz
  1  'x, y, z'
loop_
 _atom_site_type_symbol
 _atom_site_label
 _atom_site_symmetry_multiplicity
 _atom_site_fract_x
 _atom_site_fract_y
 _atom_site_fract_z
 _atom_site_occupancy
  La  La0  1  0.00000000  0.00000000  0.00000000  1
  Si  Si1  1  0.36981399  0.36981399  0.73962796  1
  Si  Si2  1  0.63018598  0.63018599  0.26037197  1
  Pt  Pt3  1  0.74999998  0.24999999  0.49999997  1
  Pt  Pt4  1  0.24999998  0.74999998  0.49999997  1
