# generated using pymatgen
data_NaLaCrCuO5
_symmetry_space_group_name_H-M   'P 1'
_cell_length_a   3.97308731
_cell_length_b   3.99225783
_cell_length_c   7.74381065
_cell_angle_alpha   89.85973358
_cell_angle_beta   89.82823944
_cell_angle_gamma   89.67442322
_symmetry_Int_Tables_number   1
_chemical_formula_structural   NaLaCrCuO5
_chemical_formula_sum   'Na1 La1 Cr1 Cu1 O5'
_cell_volume   122.82624349
_cell_formula_units_Z   1
loop_
 _symmetry_equiv_pos_site_id
 _symmetry_equiv_pos_as_xyz
  1  'x, y, z'
loop_
 _atom_site_type_symbol
 _atom_site_label
 _atom_site_symmetry_multiplicity
 _atom_site_fract_x
 _atom_site_fract_y
 _atom_site_fract_z
 _atom_site_occupancy
  Na  Na0  1  0.00065500  0.00081900  0.98901897  1
  La  La1  1  0.99954104  0.99942701  0.50324198  1
  Cr  Cr2  1  0.50067802  0.50048600  0.24982399  1
  Cu  Cu3  1  0.50018502  0.49999300  0.73807098  1
  O  O4  1  0.50000800  0.00099900  0.70160697  1
  O  O5  1  0.49978805  0.99927101  0.30466900  1
  O  O6  1  0.00131902  0.50009300  0.70202899  1
  O  O7  1  0.99915602  0.49975600  0.30483498  1
  O  O8  1  0.49866902  0.49915600  0.00670400  1
