# generated using pymatgen
data_Ce(SiPt)2
_symmetry_space_group_name_H-M   'P 1'
_cell_length_a   4.12699795
_cell_length_b   4.12699795
_cell_length_c   5.91528273
_cell_angle_alpha   110.41650391
_cell_angle_beta   110.41650391
_cell_angle_gamma   90.00000000
_symmetry_Int_Tables_number   1
_chemical_formula_structural   Ce(SiPt)2
_chemical_formula_sum   'Ce1 Si2 Pt2'
_cell_volume   87.63598858
_cell_formula_units_Z   1
loop_
 _symmetry_equiv_pos_site_id
 _symmetry_equiv_pos_as_xyz
  1  'x, y, z'
loop_
 _atom_site_type_symbol
 _atom_site_label
 _atom_site_symmetry_multiplicity
 _atom_site_fract_x
 _atom_site_fract_y
 _atom_site_fract_z
 _atom_site_occupancy
  Ce  Ce0  1  0.00000000  0.00000000  0.00000000  1
  Si  Si1  1  0.37946402  0.37946401  0.75892802  1
  Si  Si2  1  0.62053603  0.62053602  0.24107203  1
  Pt  Pt3  1  0.75000002  0.25000001  0.50000002  1
  Pt  Pt4  1  0.25000002  0.75000002  0.50000002  1
