# generated using pymatgen
data_Sr2TiCu2RuO9
_symmetry_space_group_name_H-M   'P 1'
_cell_length_a   3.92825794
_cell_length_b   3.92825794
_cell_length_c   11.78460217
_cell_angle_alpha   90.00000000
_cell_angle_beta   90.00000000
_cell_angle_gamma   90.00000000
_symmetry_Int_Tables_number   1
_chemical_formula_structural   Sr2TiCu2RuO9
_chemical_formula_sum   'Sr2 Ti1 Cu2 Ru1 O9'
_cell_volume   181.85067620
_cell_formula_units_Z   1
loop_
 _symmetry_equiv_pos_site_id
 _symmetry_equiv_pos_as_xyz
  1  'x, y, z'
loop_
 _atom_site_type_symbol
 _atom_site_label
 _atom_site_symmetry_multiplicity
 _atom_site_fract_x
 _atom_site_fract_y
 _atom_site_fract_z
 _atom_site_occupancy
  Sr  Sr0  1  0.50000001  0.50000001  0.66678899  1
  Sr  Sr1  1  0.50000001  0.50000001  0.33321100  1
  Ti  Ti2  1  0.50000001  0.50000001  0.00000000  1
  Ru  Ru3  1  0.00000000  0.00000000  0.16573000  1
  Cu  Cu4  1  0.00000000  0.00000000  0.83426999  1
  Cu  Cu5  1  0.00000000  0.00000000  0.49999999  1
  O  O6  1  0.50000001  0.00000000  0.83439099  1
  O  O7  1  0.50000001  0.00000000  0.49999999  1
  O  O8  1  0.50000001  0.00000000  0.16560900  1
  O  O9  1  0.00000000  0.50000001  0.83439099  1
  O  O10  1  0.00000000  0.50000001  0.49999999  1
  O  O11  1  0.00000000  0.50000001  0.16560900  1
  O  O12  1  0.00000000  0.00000000  0.00000000  1
  O  O13  1  0.00000000  0.00000000  0.66681199  1
  O  O14  1  0.00000000  0.00000000  0.33318800  1
