# generated using pymatgen
data_SmYFe17
_symmetry_space_group_name_H-M   'P 1'
_cell_length_a   6.40080595
_cell_length_b   6.40080595
_cell_length_c   6.40080690
_cell_angle_alpha   82.28631592
_cell_angle_beta   82.28631592
_cell_angle_gamma   82.28632355
_symmetry_Int_Tables_number   1
_chemical_formula_structural   SmYFe17
_chemical_formula_sum   'Sm1 Y1 Fe17'
_cell_volume   255.70905851
_cell_formula_units_Z   1
loop_
 _symmetry_equiv_pos_site_id
 _symmetry_equiv_pos_as_xyz
  1  'x, y, z'
loop_
 _atom_site_type_symbol
 _atom_site_label
 _atom_site_symmetry_multiplicity
 _atom_site_fract_x
 _atom_site_fract_y
 _atom_site_fract_z
 _atom_site_occupancy
  Sm  Sm0  1  0.34248400  0.34248401  0.34248399  1
  Y  Y1  1  0.65751599  0.65751603  0.65751598  1
  Fe  Fe2  1  0.91393299  0.91393304  0.91393297  1
  Fe  Fe3  1  0.08606700  0.08606700  0.08606700  1
  Fe  Fe4  1  0.66144099  0.66144103  0.15547999  1
  Fe  Fe5  1  0.66144102  0.15548001  0.66144098  1
  Fe  Fe6  1  0.00000000  0.00000000  0.49999999  1
  Fe  Fe7  1  0.50000002  0.00000000  -0.00000000  1
  Fe  Fe8  1  -0.00000002  0.50000002  0.00000000  1
  Fe  Fe9  1  0.70190601  0.29809401  -0.00000000  1
  Fe  Fe10  1  -0.00000003  0.70190603  0.29809399  1
  Fe  Fe11  1  0.29809401  0.00000000  0.70190598  1
  Fe  Fe12  1  0.29809398  0.70190603  -0.00000000  1
  Fe  Fe13  1  -0.00000001  0.29809401  0.70190598  1
  Fe  Fe14  1  0.70190598  1.00000004  0.29809399  1
  Fe  Fe15  1  0.33855897  0.84452003  0.33855899  1
  Fe  Fe16  1  0.33855900  0.33855901  0.84451997  1
  Fe  Fe17  1  0.84452001  0.33855901  0.33855899  1
  Fe  Fe18  1  0.15547997  0.66144103  0.66144098  1
