# generated using pymatgen
data_MgHg3
_symmetry_space_group_name_H-M   'P 1'
_cell_length_a   5.19008303
_cell_length_b   6.65270996
_cell_length_c   6.65270996
_cell_angle_alpha   60.00000000
_cell_angle_beta   90.00000000
_cell_angle_gamma   90.00000000
_symmetry_Int_Tables_number   1
_chemical_formula_structural   MgHg3
_chemical_formula_sum   'Mg2 Hg6'
_cell_volume   198.93084016
_cell_formula_units_Z   2
loop_
 _symmetry_equiv_pos_site_id
 _symmetry_equiv_pos_as_xyz
  1  'x, y, z'
loop_
 _atom_site_type_symbol
 _atom_site_label
 _atom_site_symmetry_multiplicity
 _atom_site_fract_x
 _atom_site_fract_y
 _atom_site_fract_z
 _atom_site_occupancy
  Mg  Mg0  1  0.75000000  0.66666667  0.66666667  1
  Mg  Mg1  1  0.25000000  0.33333334  0.33333334  1
  Hg  Hg2  1  0.75000000  0.67293101  0.16353400  1
  Hg  Hg3  1  0.75000000  0.16353500  0.67293001  1
  Hg  Hg4  1  0.75000000  0.16353500  0.16353400  1
  Hg  Hg5  1  0.25000000  0.83646501  0.83646601  1
  Hg  Hg6  1  0.25000000  0.83646501  0.32707000  1
  Hg  Hg7  1  0.25000000  0.32706900  0.83646602  1
