# generated using pymatgen
data_NaBiO6
_symmetry_space_group_name_H-M   'P 1'
_cell_length_a   3.81935191
_cell_length_b   4.88958120
_cell_length_c   6.12002563
_cell_angle_alpha   99.99858856
_cell_angle_beta   108.18204498
_cell_angle_gamma   90.00000000
_symmetry_Int_Tables_number   1
_chemical_formula_structural   NaBiO6
_chemical_formula_sum   'Na1 Bi1 O6'
_cell_volume   106.75646657
_cell_formula_units_Z   1
loop_
 _symmetry_equiv_pos_site_id
 _symmetry_equiv_pos_as_xyz
  1  'x, y, z'
loop_
 _atom_site_type_symbol
 _atom_site_label
 _atom_site_symmetry_multiplicity
 _atom_site_fract_x
 _atom_site_fract_y
 _atom_site_fract_z
 _atom_site_occupancy
  Na  Na0  1  0.57071400  0.28663999  0.14142798  1
  Bi  Bi1  1  0.99834199  0.99860398  0.99668397  1
  O  O2  1  0.79658000  0.66958499  0.59315998  1
  O  O3  1  0.20500100  0.33154499  0.41000200  1
  O  O4  1  0.99903700  0.50078599  0.99807398  1
  O  O5  1  0.43145899  0.71269799  0.86291799  1
  O  O6  1  0.81410800  0.17775100  0.62821598  1
  O  O7  1  0.18475799  0.82238998  0.36951599  1
