# generated using pymatgen
data_HfNbAl3C2N
_symmetry_space_group_name_H-M   'P 1'
_cell_length_a   3.53702593
_cell_length_b   3.53702664
_cell_length_c   11.77167034
_cell_angle_alpha   90.00000000
_cell_angle_beta   90.00000000
_cell_angle_gamma   119.99999237
_symmetry_Int_Tables_number   1
_chemical_formula_structural   HfNbAl3C2N
_chemical_formula_sum   'Hf1 Nb1 Al3 C2 N1'
_cell_volume   127.53968243
_cell_formula_units_Z   1
loop_
 _symmetry_equiv_pos_site_id
 _symmetry_equiv_pos_as_xyz
  1  'x, y, z'
loop_
 _atom_site_type_symbol
 _atom_site_label
 _atom_site_symmetry_multiplicity
 _atom_site_fract_x
 _atom_site_fract_y
 _atom_site_fract_z
 _atom_site_occupancy
  Al  Al0  1  0.00000000  0.00000000  0.00000000  1
  Hf  Hf1  1  0.00000000  0.00000000  0.49999999  1
  Al  Al2  1  0.33333331  0.66666663  0.24999999  1
  Al  Al3  1  0.66666666  0.33333332  0.74999998  1
  C  C4  1  0.33333331  0.66666663  0.09566800  1
  Nb  Nb5  1  0.66666666  0.33333332  0.59566798  1
  N  N6  1  0.33333331  0.66666663  0.40433199  1
  C  C7  1  0.66666666  0.33333332  0.90433197  1
