# generated using pymatgen
data_Nb2Cr2Cu2S13
_symmetry_space_group_name_H-M   'P 1'
_cell_length_a   5.76659584
_cell_length_b   5.76659966
_cell_length_c   12.79380798
_cell_angle_alpha   85.68248749
_cell_angle_beta   81.34020996
_cell_angle_gamma   60.00002289
_symmetry_Int_Tables_number   1
_chemical_formula_structural   Nb2Cr2Cu2S13
_chemical_formula_sum   'Nb2 Cr2 Cu2 S13'
_cell_volume   364.24231155
_cell_formula_units_Z   1
loop_
 _symmetry_equiv_pos_site_id
 _symmetry_equiv_pos_as_xyz
  1  'x, y, z'
loop_
 _atom_site_type_symbol
 _atom_site_label
 _atom_site_symmetry_multiplicity
 _atom_site_fract_x
 _atom_site_fract_y
 _atom_site_fract_z
 _atom_site_occupancy
  Cr  Cr0  1  0.91596303  0.00000000  0.25195700  1
  Nb  Nb1  1  0.24984602  0.33340400  0.25026099  1
  Nb  Nb2  1  0.58325004  0.66659601  0.25026099  1
  Cr  Cr3  1  0.41675002  0.33340400  0.74973899  1
  Cu  Cu4  1  0.75015404  0.66659601  0.74973899  1
  Cu  Cu5  1  0.08403700  0.00000000  0.74804300  1
  S  S6  1  0.00000000  0.00000000  0.00000000  1
  S  S7  1  0.70880402  0.00000000  0.87637400  1
  S  S8  1  0.04116301  0.33243300  0.87639199  1
  S  S9  1  0.37359603  0.66756701  0.87639199  1
  S  S10  1  0.62640403  0.33243300  0.12360799  1
  S  S11  1  0.95883705  0.66756701  0.12360799  1
  S  S12  1  0.29119604  1.00000001  0.12362598  1
  S  S13  1  0.79010105  1.00000001  0.62594098  1
  S  S14  1  0.12478901  0.33471200  0.62596899  1
  S  S15  1  0.45950103  0.66528801  0.62596899  1
  S  S16  1  0.54049903  0.33471200  0.37403099  1
  S  S17  1  0.87521105  0.66528801  0.37403099  1
  S  S18  1  0.20989901  0.00000000  0.37405900  1
