# generated using pymatgen
data_LiNiO2
_symmetry_space_group_name_H-M   'P 1'
_cell_length_a   5.05863380
_cell_length_b   5.16175365
_cell_length_c   5.76682472
_cell_angle_alpha   90.02754974
_cell_angle_beta   106.60475159
_cell_angle_gamma   98.79496002
_symmetry_Int_Tables_number   1
_chemical_formula_structural   LiNiO2
_chemical_formula_sum   'Li4 Ni4 O8'
_cell_volume   142.44870473
_cell_formula_units_Z   4
loop_
 _symmetry_equiv_pos_site_id
 _symmetry_equiv_pos_as_xyz
  1  'x, y, z'
loop_
 _atom_site_type_symbol
 _atom_site_label
 _atom_site_symmetry_multiplicity
 _atom_site_fract_x
 _atom_site_fract_y
 _atom_site_fract_z
 _atom_site_occupancy
  Li  Li0  1  0.50554799  0.24873501  0.87267196  1
  Li  Li1  1  0.49445297  0.75127103  0.12733194  1
  Li  Li2  1  0.48641297  0.75965803  0.61775094  1
  Li  Li3  1  0.51358799  0.24034301  0.38224696  1
  Ni  Ni4  1  0.00000100  0.00000100  0.49999800  1
  Ni  Ni5  1  0.99998996  0.99999503  0.00001391  1
  Ni  Ni6  1  0.99998498  0.49953802  0.25259793  1
  Ni  Ni7  1  0.00001598  0.50045602  0.74739698  1
  O  O8  1  0.21904797  0.85134103  0.81454496  1
  O  O9  1  0.23152899  0.39550801  0.05799797  1
  O  O10  1  0.22865299  0.39915001  0.55727297  1
  O  O11  1  0.22042197  0.85247703  0.29593795  1
  O  O12  1  0.76846998  0.60449002  0.94199893  1
  O  O13  1  0.78095600  0.14865901  0.18544995  1
  O  O14  1  0.77957700  0.14752601  0.70405595  1
  O  O15  1  0.77134998  0.60085102  0.44273193  1
