# generated using pymatgen
data_Dy4Si5Ir3
_symmetry_space_group_name_H-M   'P 1'
_cell_length_a   4.31523418
_cell_length_b   7.02064514
_cell_length_c   7.46906281
_cell_angle_alpha   90.00000000
_cell_angle_beta   90.00000000
_cell_angle_gamma   90.00000000
_symmetry_Int_Tables_number   1
_chemical_formula_structural   Dy4Si5Ir3
_chemical_formula_sum   'Dy4 Si5 Ir3'
_cell_volume   226.28069449
_cell_formula_units_Z   1
loop_
 _symmetry_equiv_pos_site_id
 _symmetry_equiv_pos_as_xyz
  1  'x, y, z'
loop_
 _atom_site_type_symbol
 _atom_site_label
 _atom_site_symmetry_multiplicity
 _atom_site_fract_x
 _atom_site_fract_y
 _atom_site_fract_z
 _atom_site_occupancy
  Dy  Dy0  1  0.24999999  0.99773298  0.29812001  1
  Dy  Dy1  1  0.24999999  0.49773299  0.20188001  1
  Dy  Dy2  1  0.74999997  0.00226700  0.70188002  1
  Dy  Dy3  1  0.74999997  0.50226699  0.79812002  1
  Si  Si4  1  0.24999999  0.31345899  0.58741302  1
  Si  Si5  1  0.24999999  0.81345898  0.91258702  1
  Si  Si6  1  0.74999997  0.68654099  0.41258701  1
  Si  Si7  1  0.74999997  0.18654100  0.08741300  1
  Ir  Ir8  1  0.24999999  0.19922500  0.91506702  1
  Si  Si9  1  0.24999999  0.69922499  0.58493302  1
  Ir  Ir10  1  0.74999997  0.80077498  0.08493300  1
  Ir  Ir11  1  0.74999997  0.30077499  0.41506701  1
