# generated using pymatgen
data_Sr2MnCoO5
_symmetry_space_group_name_H-M   'P 1'
_cell_length_a   3.83927894
_cell_length_b   7.86964083
_cell_length_c   8.89314556
_cell_angle_alpha   63.73676300
_cell_angle_beta   89.99510193
_cell_angle_gamma   89.99015045
_symmetry_Int_Tables_number   1
_chemical_formula_structural   Sr2MnCoO5
_chemical_formula_sum   'Sr4 Mn2 Co2 O10'
_cell_volume   240.95797394
_cell_formula_units_Z   2
loop_
 _symmetry_equiv_pos_site_id
 _symmetry_equiv_pos_as_xyz
  1  'x, y, z'
loop_
 _atom_site_type_symbol
 _atom_site_label
 _atom_site_symmetry_multiplicity
 _atom_site_fract_x
 _atom_site_fract_y
 _atom_site_fract_z
 _atom_site_occupancy
  Sr  Sr0  1  0.00000300  0.49660101  0.00695400  1
  Sr  Sr1  1  0.00000899  0.99643702  0.00694200  1
  Sr  Sr2  1  0.00001600  0.72988202  0.54031101  1
  Sr  Sr3  1  0.00000800  0.22985901  0.54028701  1
  Mn  Mn4  1  0.50000101  0.10187800  0.29617501  1
  Mn  Mn5  1  0.49997501  0.60245901  0.29497901  1
  Co  Co6  1  0.49999201  0.37352901  0.75305902  1
  Co  Co7  1  0.49998300  0.87371602  0.75287202  1
  O  O8  1  0.50000901  0.22308701  0.05373901  1
  O  O9  1  0.50000300  0.72361702  0.05272301  1
  O  O10  1  0.00001200  0.07930900  0.34130800  1
  O  O11  1  0.00000200  0.58033701  0.33918101  1
  O  O12  1  0.50000400  0.80941002  0.38057102  1
  O  O13  1  0.50000601  0.30987801  0.38055801  1
  O  O14  1  0.99999101  0.89761702  0.70478603  1
  O  O15  1  0.99999902  0.39864701  0.70271102  1
  O  O16  1  0.49998201  0.63128601  0.73852502  1
  O  O17  1  0.50001601  0.13036200  0.73848402  1
