# generated using pymatgen
data_Li7TiO6
_symmetry_space_group_name_H-M   'P 1'
_cell_length_a   6.39299536
_cell_length_b   6.39299536
_cell_length_c   6.39299536
_cell_angle_alpha   61.16445160
_cell_angle_beta   61.16445160
_cell_angle_gamma   61.16444778
_symmetry_Int_Tables_number   1
_chemical_formula_structural   Li7TiO6
_chemical_formula_sum   'Li7 Ti1 O6'
_cell_volume   189.59639446
_cell_formula_units_Z   1
loop_
 _symmetry_equiv_pos_site_id
 _symmetry_equiv_pos_as_xyz
  1  'x, y, z'
loop_
 _atom_site_type_symbol
 _atom_site_label
 _atom_site_symmetry_multiplicity
 _atom_site_fract_x
 _atom_site_fract_y
 _atom_site_fract_z
 _atom_site_occupancy
  Li  Li0  1  0.88581798  0.29352000  0.50335799  1
  Li  Li1  1  0.51740899  0.04278300  0.75014301  1
  Li  Li2  1  0.75014298  0.51740899  0.04278297  1
  Li  Li3  1  0.34438799  0.34438800  0.34438800  1
  Li  Li4  1  0.50335798  0.88581799  0.29351998  1
  Li  Li5  1  0.29351999  0.50335799  0.88581801  1
  Li  Li6  1  0.04278299  0.75014299  0.51740900  1
  Ti  Ti7  1  0.99904598  0.99904599  0.99904599  1
  O  O8  1  0.78680999  0.11012500  0.32249399  1
  O  O9  1  0.66217999  0.18720800  0.92477601  1
  O  O10  1  0.92477598  0.66217999  0.18720797  1
  O  O11  1  0.11012500  0.32249400  0.78681002  1
  O  O12  1  0.32249399  0.78680999  0.11012498  1
  O  O13  1  0.18720799  0.92477599  0.66218000  1
