# generated using pymatgen
data_ZrCo2Sn
_symmetry_space_group_name_H-M   'P 1'
_cell_length_a   5.31827593
_cell_length_b   5.31827497
_cell_length_c   8.07317066
_cell_angle_alpha   90.00000000
_cell_angle_beta   90.00000000
_cell_angle_gamma   120.00000763
_symmetry_Int_Tables_number   1
_chemical_formula_structural   ZrCo2Sn
_chemical_formula_sum   'Zr3 Co6 Sn3'
_cell_volume   197.74995164
_cell_formula_units_Z   3
loop_
 _symmetry_equiv_pos_site_id
 _symmetry_equiv_pos_as_xyz
  1  'x, y, z'
loop_
 _atom_site_type_symbol
 _atom_site_label
 _atom_site_symmetry_multiplicity
 _atom_site_fract_x
 _atom_site_fract_y
 _atom_site_fract_z
 _atom_site_occupancy
  Zr  Zr0  1  0.66666669  0.33333334  0.55986702  1
  Zr  Zr1  1  0.33333336  0.66666668  0.44013302  1
  Zr  Zr2  1  0.33333336  0.66666668  0.05986700  1
  Co  Co3  1  0.66666669  0.33333334  0.94013304  1
  Co  Co4  1  0.00000000  0.00000000  0.50000002  1
  Co  Co5  1  0.00000000  0.00000000  0.00000000  1
  Co  Co6  1  0.16893501  0.33787001  0.75000003  1
  Co  Co7  1  0.16893503  0.83106502  0.75000003  1
  Sn  Sn8  1  0.66213004  0.83106502  0.75000003  1
  Co  Co9  1  0.83106503  0.66213002  0.25000001  1
  Sn  Sn10  1  0.83106502  0.16893500  0.25000001  1
  Sn  Sn11  1  0.33787001  0.16893500  0.25000001  1
