# generated using pymatgen
data_Ce2Ge7
_symmetry_space_group_name_H-M   'P 1'
_cell_length_a   4.12196112
_cell_length_b   4.15852880
_cell_length_c   11.29665756
_cell_angle_alpha   90.00000000
_cell_angle_beta   100.51200867
_cell_angle_gamma   90.00000000
_symmetry_Int_Tables_number   1
_chemical_formula_structural   Ce2Ge7
_chemical_formula_sum   'Ce2 Ge7'
_cell_volume   190.38942023
_cell_formula_units_Z   1
loop_
 _symmetry_equiv_pos_site_id
 _symmetry_equiv_pos_as_xyz
  1  'x, y, z'
loop_
 _atom_site_type_symbol
 _atom_site_label
 _atom_site_symmetry_multiplicity
 _atom_site_fract_x
 _atom_site_fract_y
 _atom_site_fract_z
 _atom_site_occupancy
  Ce  Ce0  1  0.78013497  0.50000002  0.56026897  1
  Ce  Ce1  1  0.11400900  0.50000002  0.22801799  1
  Ge  Ge2  1  0.49495998  0.50000002  0.98991998  1
  Ge  Ge3  1  0.38243098  0.50000002  0.76486198  1
  Ge  Ge4  1  0.99410896  0.00000000  0.98821696  1
  Ge  Ge5  1  0.88121996  0.00000000  0.76244097  1
  Ge  Ge6  1  0.66757797  0.00000000  0.33515698  1
  Ge  Ge7  1  0.23485799  0.00000000  0.46971599  1
  Ge  Ge8  1  0.55769998  0.00000000  0.11539999  1
