# generated using pymatgen
data_LuSiIr
_symmetry_space_group_name_H-M   'P 1'
_cell_length_a   4.16707516
_cell_length_b   6.54527903
_cell_length_c   7.47194099
_cell_angle_alpha   90.00000000
_cell_angle_beta   90.00000000
_cell_angle_gamma   90.00000000
_symmetry_Int_Tables_number   1
_chemical_formula_structural   LuSiIr
_chemical_formula_sum   'Lu4 Si4 Ir4'
_cell_volume   203.79472208
_cell_formula_units_Z   4
loop_
 _symmetry_equiv_pos_site_id
 _symmetry_equiv_pos_as_xyz
  1  'x, y, z'
loop_
 _atom_site_type_symbol
 _atom_site_label
 _atom_site_symmetry_multiplicity
 _atom_site_fract_x
 _atom_site_fract_y
 _atom_site_fract_z
 _atom_site_occupancy
  Lu  Lu0  1  0.24999999  0.01137000  0.30366900  1
  Lu  Lu1  1  0.24999999  0.51137000  0.19633100  1
  Lu  Lu2  1  0.74999997  0.98863000  0.69633100  1
  Lu  Lu3  1  0.74999997  0.48863000  0.80366900  1
  Si  Si4  1  0.24999999  0.27659600  0.61285300  1
  Si  Si5  1  0.24999999  0.77659600  0.88714700  1
  Si  Si6  1  0.74999997  0.72340400  0.38714700  1
  Si  Si7  1  0.74999997  0.22340400  0.11285300  1
  Ir  Ir8  1  0.24999999  0.15740200  0.93751000  1
  Ir  Ir9  1  0.24999999  0.65740200  0.56249000  1
  Ir  Ir10  1  0.74999997  0.84259800  0.06249000  1
  Ir  Ir11  1  0.74999997  0.34259800  0.43751000  1
