# generated using pymatgen
data_LiCuF3
_symmetry_space_group_name_H-M   'P 1'
_cell_length_a   4.43005991
_cell_length_b   5.69315100
_cell_length_c   5.69315100
_cell_angle_alpha   90.00000000
_cell_angle_beta   90.00000000
_cell_angle_gamma   90.00000000
_symmetry_Int_Tables_number   1
_chemical_formula_structural   LiCuF3
_chemical_formula_sum   'Li2 Cu2 F6'
_cell_volume   143.58696126
_cell_formula_units_Z   2
loop_
 _symmetry_equiv_pos_site_id
 _symmetry_equiv_pos_as_xyz
  1  'x, y, z'
loop_
 _atom_site_type_symbol
 _atom_site_label
 _atom_site_symmetry_multiplicity
 _atom_site_fract_x
 _atom_site_fract_y
 _atom_site_fract_z
 _atom_site_occupancy
  Li  Li0  1  0.54647401  0.50000000  0.50000000  1
  Li  Li1  1  0.53759501  0.00000000  0.00000000  1
  Cu  Cu2  1  0.98460002  0.50000000  -0.00000000  1
  Cu  Cu3  1  0.98460002  0.00000000  0.50000000  1
  F  F4  1  0.63644101  0.75865700  0.24134300  1
  F  F5  1  0.63644101  0.24134300  0.24134300  1
  F  F6  1  0.63644101  0.75865700  0.75865700  1
  F  F7  1  0.63644101  0.24134300  0.75865700  1
  F  F8  1  0.14198100  0.00000000  0.00000000  1
  F  F9  1  0.09798700  0.50000000  0.50000000  1
