# generated using pymatgen
data_NaCuF4
_symmetry_space_group_name_H-M   'P 1'
_cell_length_a   5.49042416
_cell_length_b   5.49050379
_cell_length_c   6.21765089
_cell_angle_alpha   89.99999237
_cell_angle_beta   116.19524384
_cell_angle_gamma   89.99998474
_symmetry_Int_Tables_number   1
_chemical_formula_structural   NaCuF4
_chemical_formula_sum   'Na2 Cu2 F8'
_cell_volume   168.18206529
_cell_formula_units_Z   2
loop_
 _symmetry_equiv_pos_site_id
 _symmetry_equiv_pos_as_xyz
  1  'x, y, z'
loop_
 _atom_site_type_symbol
 _atom_site_label
 _atom_site_symmetry_multiplicity
 _atom_site_fract_x
 _atom_site_fract_y
 _atom_site_fract_z
 _atom_site_occupancy
  Na  Na0  1  0.50000700  0.50000402  0.00000600  1
  Na  Na1  1  0.99999900  0.00000600  0.99999901  1
  Cu  Cu2  1  0.49999900  0.74999303  0.49999898  1
  Cu  Cu3  1  0.99999900  0.24999401  0.49999901  1
  F  F4  1  0.32755100  0.74999903  0.15510498  1
  F  F5  1  0.82755000  0.25000101  0.15510501  1
  F  F6  1  0.67244800  0.74999903  0.84489398  1
  F  F7  1  0.17245000  0.25000101  0.84489398  1
  F  F8  1  0.23893300  0.00000000  0.47786900  1
  F  F9  1  0.73893200  0.50000102  0.47786899  1
  F  F10  1  0.26106700  0.50000002  0.52213098  1
  F  F11  1  0.76106600  0.00000100  0.52213001  1
