# generated using pymatgen
data_AgS
_symmetry_space_group_name_H-M   'P 1'
_cell_length_a   4.79578018
_cell_length_b   6.64543295
_cell_length_c   7.39353991
_cell_angle_alpha   102.00952148
_cell_angle_beta   108.92452240
_cell_angle_gamma   90.00000000
_symmetry_Int_Tables_number   1
_chemical_formula_structural   AgS
_chemical_formula_sum   'Ag3 S3'
_cell_volume   217.43649325
_cell_formula_units_Z   3
loop_
 _symmetry_equiv_pos_site_id
 _symmetry_equiv_pos_as_xyz
  1  'x, y, z'
loop_
 _atom_site_type_symbol
 _atom_site_label
 _atom_site_symmetry_multiplicity
 _atom_site_fract_x
 _atom_site_fract_y
 _atom_site_fract_z
 _atom_site_occupancy
  Ag  Ag0  1  0.49999998  0.50000001  0.00000001  1
  Ag  Ag1  1  0.49999998  0.00000000  -0.00000001  1
  Ag  Ag2  1  0.52717798  0.19307100  0.75470698  1
  S  S3  1  0.77247097  0.30692901  0.24529300  1
  S  S4  1  0.47282199  0.80692901  0.24529302  1
  S  S5  1  0.22752900  0.69307101  0.75470701  1
