# generated using pymatgen
data_LiVPO5
_symmetry_space_group_name_H-M   'P 1'
_cell_length_a   5.20330477
_cell_length_b   5.35509872
_cell_length_c   7.28399706
_cell_angle_alpha   106.97999573
_cell_angle_beta   108.37660217
_cell_angle_gamma   98.10905457
_symmetry_Int_Tables_number   1
_chemical_formula_structural   LiVPO5
_chemical_formula_sum   'Li2 V2 P2 O10'
_cell_volume   178.03588254
_cell_formula_units_Z   2
loop_
 _symmetry_equiv_pos_site_id
 _symmetry_equiv_pos_as_xyz
  1  'x, y, z'
loop_
 _atom_site_type_symbol
 _atom_site_label
 _atom_site_symmetry_multiplicity
 _atom_site_fract_x
 _atom_site_fract_y
 _atom_site_fract_z
 _atom_site_occupancy
  Li  Li0  1  0.27182098  0.61549197  0.18953697  1
  Li  Li1  1  0.72817901  0.38450798  0.81046299  1
  V  V2  1  0.00000000  0.00000000  0.00000000  1
  V  V3  1  0.00000000  0.00000000  0.50000000  1
  P  P4  1  0.32224598  0.64259797  0.76128398  1
  P  P5  1  0.67775401  0.35740198  0.23871599  1
  O  O6  1  0.30727499  0.34021099  0.65735299  1
  O  O7  1  0.69272499  0.65978897  0.34264697  1
  O  O8  1  0.36915600  0.24548299  0.08267599  1
  O  O9  1  0.74574202  0.21279999  0.39415999  1
  O  O10  1  0.63084398  0.75451697  0.91732397  1
  O  O11  1  0.25425797  0.78719997  0.60583997  1
  O  O12  1  0.12275197  0.66608097  0.88596098  1
  O  O13  1  0.87724802  0.33391899  0.11403899  1
  O  O14  1  0.12595795  0.93227496  0.26316896  1
  O  O15  1  0.87404203  0.06772500  0.73683100  1
