# generated using pymatgen
data_LiMg
_symmetry_space_group_name_H-M   'P 1'
_cell_length_a   3.21827602
_cell_length_b   5.17881012
_cell_length_c   8.49379921
_cell_angle_alpha   90.00000000
_cell_angle_beta   100.92060089
_cell_angle_gamma   90.00000000
_symmetry_Int_Tables_number   1
_chemical_formula_structural   LiMg
_chemical_formula_sum   'Li3 Mg3'
_cell_volume   139.00115103
_cell_formula_units_Z   3
loop_
 _symmetry_equiv_pos_site_id
 _symmetry_equiv_pos_as_xyz
  1  'x, y, z'
loop_
 _atom_site_type_symbol
 _atom_site_label
 _atom_site_symmetry_multiplicity
 _atom_site_fract_x
 _atom_site_fract_y
 _atom_site_fract_z
 _atom_site_occupancy
  Li  Li0  1  0.00060700  0.00000000  0.00121400  1
  Li  Li1  1  0.33372999  0.00000000  0.66745999  1
  Mg  Mg2  1  0.66540799  0.00000000  0.33081598  1
  Li  Li3  1  0.44538699  0.49999999  0.89077399  1
  Mg  Mg4  1  0.11080800  0.49999999  0.22161600  1
  Mg  Mg5  1  0.77739799  0.49999999  0.55479598  1
