# generated using pymatgen
data_Be3Ru
_symmetry_space_group_name_H-M   'P 1'
_cell_length_a   3.17981410
_cell_length_b   3.17981410
_cell_length_c   4.37612534
_cell_angle_alpha   111.30384827
_cell_angle_beta   111.30384827
_cell_angle_gamma   90.00000000
_symmetry_Int_Tables_number   1
_chemical_formula_structural   Be3Ru
_chemical_formula_sum   'Be3 Ru1'
_cell_volume   37.96067594
_cell_formula_units_Z   1
loop_
 _symmetry_equiv_pos_site_id
 _symmetry_equiv_pos_as_xyz
  1  'x, y, z'
loop_
 _atom_site_type_symbol
 _atom_site_label
 _atom_site_symmetry_multiplicity
 _atom_site_fract_x
 _atom_site_fract_y
 _atom_site_fract_z
 _atom_site_occupancy
  Be  Be0  1  0.74999995  0.24999999  0.49999999  1
  Be  Be1  1  0.24999996  0.74999996  0.49999998  1
  Be  Be2  1  0.49999996  0.49999997  -0.00000004  1
  Ru  Ru3  1  0.00000000  0.00000000  0.00000000  1
