# generated using pymatgen
data_Al2Si(PO4)3
_symmetry_space_group_name_H-M   'P 1'
_cell_length_a   5.05499220
_cell_length_b   5.05499172
_cell_length_c   11.16223240
_cell_angle_alpha   90.00000000
_cell_angle_beta   90.00000000
_cell_angle_gamma   120.00000000
_symmetry_Int_Tables_number   1
_chemical_formula_structural   Al2Si(PO4)3
_chemical_formula_sum   'Al2 Si1 P3 O12'
_cell_volume   247.01460406
_cell_formula_units_Z   1
loop_
 _symmetry_equiv_pos_site_id
 _symmetry_equiv_pos_as_xyz
  1  'x, y, z'
loop_
 _atom_site_type_symbol
 _atom_site_label
 _atom_site_symmetry_multiplicity
 _atom_site_fract_x
 _atom_site_fract_y
 _atom_site_fract_z
 _atom_site_occupancy
  Al  Al0  1  0.52701595  0.52701597  0.66666664  1
  Al  Al1  1  -0.00000003  0.47298397  0.33333332  1
  Si  Si2  1  0.47298398  0.00000000  0.99999996  1
  P  P3  1  0.52639795  0.52639797  0.16666699  1
  P  P4  1  -0.00000003  0.47360197  0.83333297  1
  P  P5  1  0.47360198  0.00000000  0.49999998  1
  O  O6  1  0.75344596  0.17100899  0.88849797  1
  O  O7  1  0.41756297  0.24655399  0.55516498  1
  O  O8  1  0.82899094  0.58243697  0.22183099  1
  O  O9  1  0.17100895  0.75344596  0.44483498  1
  O  O10  1  0.24655397  0.41756298  0.77816897  1
  O  O11  1  0.58243693  0.82899095  0.11150200  1
  O  O12  1  0.58251293  0.86258895  0.59824098  1
  O  O13  1  0.28007597  0.41748698  0.26490799  1
  O  O14  1  0.13741095  0.71992396  0.93157397  1
  O  O15  1  0.86258893  0.58251297  0.73509197  1
  O  O16  1  0.41748697  0.28007598  0.06842600  1
  O  O17  1  0.71992396  0.13741099  0.40175899  1
