# generated using pymatgen
data_La2CuGe6Pt5
_symmetry_space_group_name_H-M   'P 1'
_cell_length_a   4.29482079
_cell_length_b   4.29482079
_cell_length_c   14.47291088
_cell_angle_alpha   90.00000000
_cell_angle_beta   90.00000000
_cell_angle_gamma   90.00000000
_symmetry_Int_Tables_number   1
_chemical_formula_structural   La2CuGe6Pt5
_chemical_formula_sum   'La2 Cu1 Ge6 Pt5'
_cell_volume   266.95986895
_cell_formula_units_Z   1
loop_
 _symmetry_equiv_pos_site_id
 _symmetry_equiv_pos_as_xyz
  1  'x, y, z'
loop_
 _atom_site_type_symbol
 _atom_site_label
 _atom_site_symmetry_multiplicity
 _atom_site_fract_x
 _atom_site_fract_y
 _atom_site_fract_z
 _atom_site_occupancy
  La  La0  1  0.00000000  0.00000000  0.00578800  1
  La  La1  1  0.50000002  0.00000000  0.81283001  1
  Cu  Cu2  1  0.00000000  0.50000002  0.81283001  1
  Ge  Ge3  1  0.50000002  0.00000000  0.18974300  1
  Ge  Ge4  1  0.00000000  0.50000002  0.18974300  1
  Ge  Ge5  1  0.50000002  0.00000000  0.60322100  1
  Ge  Ge6  1  0.00000000  0.50000002  0.60322100  1
  Ge  Ge7  1  0.50000002  0.00000000  0.39617200  1
  Pt  Pt8  1  0.00000000  0.50000002  0.39617200  1
  Ge  Ge9  1  0.50000002  0.50000002  0.08279100  1
  Pt  Pt10  1  0.50000002  0.50000002  0.49929100  1
  Pt  Pt11  1  0.00000000  0.00000000  0.70575701  1
  Pt  Pt12  1  0.00000000  0.00000000  0.29021200  1
  Pt  Pt13  1  0.50000002  0.50000002  0.91223001  1
