# generated using pymatgen
data_Zr4NF9
_symmetry_space_group_name_H-M   'P 1'
_cell_length_a   3.70354104
_cell_length_b   6.80921936
_cell_length_c   9.51822281
_cell_angle_alpha   90.00000000
_cell_angle_beta   90.00000000
_cell_angle_gamma   92.72227478
_symmetry_Int_Tables_number   1
_chemical_formula_structural   Zr4NF9
_chemical_formula_sum   'Zr4 N1 F9'
_cell_volume   239.76178850
_cell_formula_units_Z   1
loop_
 _symmetry_equiv_pos_site_id
 _symmetry_equiv_pos_as_xyz
  1  'x, y, z'
loop_
 _atom_site_type_symbol
 _atom_site_label
 _atom_site_symmetry_multiplicity
 _atom_site_fract_x
 _atom_site_fract_y
 _atom_site_fract_z
 _atom_site_occupancy
  Zr  Zr0  1  1.00000010  0.99999999  0.50000001  1
  Zr  Zr1  1  0.50000005  0.50000000  -0.00000000  1
  Zr  Zr2  1  0.57130499  0.00193700  0.17933300  1
  Zr  Zr3  1  0.42869510  0.99806299  0.82066702  1
  F  F4  1  0.07130505  0.50193700  0.32066701  1
  F  F5  1  0.92869504  0.49806300  0.67933301  1
  F  F6  1  0.86671402  0.31409200  0.42215301  1
  N  N7  1  0.13328607  0.68590799  0.57784701  1
  F  F8  1  0.36671408  0.81409199  0.07784700  1
  F  F9  1  0.63328601  0.18590800  0.92215302  1
  F  F10  1  0.99663203  0.41874200  0.14386000  1
  F  F11  1  0.00336806  0.58125799  0.85614002  1
  F  F12  1  0.49663209  0.91874199  0.35614001  1
  F  F13  1  0.50336800  0.08125800  0.64386001  1
