# generated using pymatgen
data_U2Fe4Ge3
_symmetry_space_group_name_H-M   'P 1'
_cell_length_a   4.15060186
_cell_length_b   4.15060186
_cell_length_c   10.16489124
_cell_angle_alpha   101.78054047
_cell_angle_beta   101.78054047
_cell_angle_gamma   90.00000000
_symmetry_Int_Tables_number   1
_chemical_formula_structural   U2Fe4Ge3
_chemical_formula_sum   'U2 Fe4 Ge3'
_cell_volume   167.65749782
_cell_formula_units_Z   1
loop_
 _symmetry_equiv_pos_site_id
 _symmetry_equiv_pos_as_xyz
  1  'x, y, z'
loop_
 _atom_site_type_symbol
 _atom_site_label
 _atom_site_symmetry_multiplicity
 _atom_site_fract_x
 _atom_site_fract_y
 _atom_site_fract_z
 _atom_site_occupancy
  U  U0  1  0.81401900  0.81401902  0.62803795  1
  U  U1  1  0.18598100  0.18598100  0.37196198  1
  Fe  Fe2  1  0.43269499  0.93269502  0.86538995  1
  Fe  Fe3  1  0.93269501  0.43269501  0.86538995  1
  Fe  Fe4  1  0.06730499  0.56730501  0.13460998  1
  Fe  Fe5  1  0.56730501  0.06730500  0.13460998  1
  Ge  Ge6  1  0.00000000  0.00000000  0.00000000  1
  Ge  Ge7  1  0.66227400  0.66227402  0.32454797  1
  Ge  Ge8  1  0.33772600  0.33772601  0.67545197  1
