# generated using pymatgen
data_Sr7Bi3Sb10
_symmetry_space_group_name_H-M   'P 1'
_cell_length_a   6.72637510
_cell_length_b   6.72637510
_cell_length_c   18.11404991
_cell_angle_alpha   90.00000000
_cell_angle_beta   90.00000000
_cell_angle_gamma   90.00000000
_symmetry_Int_Tables_number   1
_chemical_formula_structural   Sr7Bi3Sb10
_chemical_formula_sum   'Sr7 Bi3 Sb10'
_cell_volume   819.55428458
_cell_formula_units_Z   1
loop_
 _symmetry_equiv_pos_site_id
 _symmetry_equiv_pos_as_xyz
  1  'x, y, z'
loop_
 _atom_site_type_symbol
 _atom_site_label
 _atom_site_symmetry_multiplicity
 _atom_site_fract_x
 _atom_site_fract_y
 _atom_site_fract_z
 _atom_site_occupancy
  Sr  Sr0  1  0.34134499  0.91438699  0.13714600  1
  Sr  Sr1  1  0.65865499  0.08561300  0.63714600  1
  Sr  Sr2  1  0.41438699  0.15865500  0.38714600  1
  Sr  Sr3  1  0.58561299  0.84134499  0.88714600  1
  Sr  Sr4  1  0.08561300  0.65865499  0.36285400  1
  Sr  Sr5  1  0.91438699  0.34134499  0.86285400  1
  Bi  Bi6  1  0.15865500  0.41438699  0.61285400  1
  Sr  Sr7  1  0.84134499  0.58561299  0.11285400  1
  Bi  Bi8  1  0.82770699  0.17229300  0.25000000  1
  Bi  Bi9  1  0.17229300  0.82770699  0.75000000  1
  Sb  Sb10  1  0.67229299  0.67229299  0.50000000  1
  Sb  Sb11  1  0.32770699  0.32770699  -0.00000000  1
  Sb  Sb12  1  0.33057099  0.41195899  0.20228900  1
  Sb  Sb13  1  0.66942899  0.58804099  0.70228900  1
  Sb  Sb14  1  0.91195899  0.16942900  0.45228900  1
  Sb  Sb15  1  0.08804100  0.83057099  0.95228900  1
  Sb  Sb16  1  0.58804099  0.66942899  0.29771100  1
  Sb  Sb17  1  0.41195899  0.33057099  0.79771100  1
  Sb  Sb18  1  0.16942900  0.91195899  0.54771100  1
  Sb  Sb19  1  0.83057099  0.08804100  0.04771100  1
