# generated using pymatgen
data_Na3P2H3O8
_symmetry_space_group_name_H-M   'P 1'
_cell_length_a   5.98007202
_cell_length_b   6.05275679
_cell_length_c   8.24781704
_cell_angle_alpha   90.00000000
_cell_angle_beta   90.00000000
_cell_angle_gamma   118.09468079
_symmetry_Int_Tables_number   1
_chemical_formula_structural   Na3P2H3O8
_chemical_formula_sum   'Na3 P2 H3 O8'
_cell_volume   263.36085975
_cell_formula_units_Z   1
loop_
 _symmetry_equiv_pos_site_id
 _symmetry_equiv_pos_as_xyz
  1  'x, y, z'
loop_
 _atom_site_type_symbol
 _atom_site_label
 _atom_site_symmetry_multiplicity
 _atom_site_fract_x
 _atom_site_fract_y
 _atom_site_fract_z
 _atom_site_occupancy
  Na  Na0  1  0.63520498  0.29003200  0.76940500  1
  Na  Na1  1  0.36479496  0.70996800  0.26940500  1
  Na  Na2  1  0.98426994  0.99035099  0.51774000  1
  P  P3  1  0.01573000  0.00964900  0.01774000  1
  P  P4  1  0.30539696  0.62037800  0.75435400  1
  H  H5  1  0.69460298  0.37962200  0.25435400  1
  H  H6  1  0.48557197  0.54086700  0.98838500  1
  H  H7  1  0.51442797  0.45913300  0.48838500  1
  O  O8  1  0.15750195  0.78869600  0.76157500  1
  O  O9  1  0.84249798  0.21130400  0.26157500  1
  O  O10  1  0.11485198  0.31734200  0.76184900  1
  O  O11  1  0.88514796  0.68265800  0.26184900  1
  O  O12  1  0.50675696  0.69205600  0.60210600  1
  O  O13  1  0.49324298  0.30794400  0.10210600  1
  O  O14  1  0.49220396  0.68951300  0.92758400  1
  O  O15  1  0.50779598  0.31048700  0.42758400  1
