# generated using pymatgen
data_CsTl(MoSe)2
_symmetry_space_group_name_H-M   'P 1'
_cell_length_a   4.17631388
_cell_length_b   8.86229324
_cell_length_c   8.86229324
_cell_angle_alpha   90.00000000
_cell_angle_beta   90.00000000
_cell_angle_gamma   90.00000000
_symmetry_Int_Tables_number   1
_chemical_formula_structural   CsTl(MoSe)2
_chemical_formula_sum   'Cs1 Tl1 Mo2 Se2'
_cell_volume   328.00870062
_cell_formula_units_Z   1
loop_
 _symmetry_equiv_pos_site_id
 _symmetry_equiv_pos_as_xyz
  1  'x, y, z'
loop_
 _atom_site_type_symbol
 _atom_site_label
 _atom_site_symmetry_multiplicity
 _atom_site_fract_x
 _atom_site_fract_y
 _atom_site_fract_z
 _atom_site_occupancy
  Cs  Cs0  1  0.00000000  0.00000000  0.00000000  1
  Tl  Tl1  1  0.50000001  0.49999999  0.49999999  1
  Mo  Mo2  1  1.00000003  0.32770699  0.32770699  1
  Mo  Mo3  1  1.00000003  0.67229298  0.67229298  1
  Se  Se4  1  0.50000001  0.17229300  0.82770698  1
  Se  Se5  1  0.50000001  0.82770698  0.17229300  1
