# generated using pymatgen
data_Na3TaTiV4O9
_symmetry_space_group_name_H-M   'P 1'
_cell_length_a   5.87011766
_cell_length_b   6.60865402
_cell_length_c   8.41706753
_cell_angle_alpha   66.88520813
_cell_angle_beta   78.96159363
_cell_angle_gamma   90.00000000
_symmetry_Int_Tables_number   1
_chemical_formula_structural   Na3TaTiV4O9
_chemical_formula_sum   'Na3 Ta1 Ti1 V4 O9'
_cell_volume   293.73482820
_cell_formula_units_Z   1
loop_
 _symmetry_equiv_pos_site_id
 _symmetry_equiv_pos_as_xyz
  1  'x, y, z'
loop_
 _atom_site_type_symbol
 _atom_site_label
 _atom_site_symmetry_multiplicity
 _atom_site_fract_x
 _atom_site_fract_y
 _atom_site_fract_z
 _atom_site_occupancy
  Na  Na0  1  0.99565999  0.25150900  0.76572108  1
  Na  Na1  1  0.50434000  0.01723000  0.23427903  1
  Ti  Ti2  1  0.00433997  0.74849099  0.23427903  1
  Na  Na3  1  0.49565996  0.98276998  0.76572108  1
  Ta  Ta4  1  0.08762697  0.80932799  0.61154505  1
  V  V5  1  0.41237298  0.42087299  0.38845504  1
  V  V6  1  0.24999998  0.48180299  0.00000003  1
  V  V7  1  0.74999998  0.51819699  0.00000005  1
  O  O8  1  0.91237299  0.19067200  0.38845506  1
  V  V9  1  0.58762698  0.57912699  0.61154506  1
  O  O10  1  0.20755299  0.14144300  0.47995603  1
  O  O11  1  0.29244698  0.62139899  0.52004405  1
  O  O12  1  0.79244697  0.85855698  0.52004408  1
  O  O13  1  0.70755298  0.37860099  0.47995606  1
  O  O14  1  0.45710398  0.59379699  0.12758504  1
  O  O15  1  0.04289597  0.72138199  0.87241505  1
  O  O16  1  0.95710399  0.27861799  0.12758505  1
  O  O17  1  0.54289598  0.40620299  0.87241506  1
