# generated using pymatgen
data_CoCuS4
_symmetry_space_group_name_H-M   'P 1'
_cell_length_a   5.69570780
_cell_length_b   5.69570780
_cell_length_c   5.69570780
_cell_angle_alpha   90.00000000
_cell_angle_beta   90.00000000
_cell_angle_gamma   90.00000000
_symmetry_Int_Tables_number   1
_chemical_formula_structural   CoCuS4
_chemical_formula_sum   'Co2 Cu2 S8'
_cell_volume   184.77495403
_cell_formula_units_Z   2
loop_
 _symmetry_equiv_pos_site_id
 _symmetry_equiv_pos_as_xyz
  1  'x, y, z'
loop_
 _atom_site_type_symbol
 _atom_site_label
 _atom_site_symmetry_multiplicity
 _atom_site_fract_x
 _atom_site_fract_y
 _atom_site_fract_z
 _atom_site_occupancy
  Co  Co0  1  0.10997100  0.89002903  0.39002901  1
  Cu  Cu1  1  0.89002903  0.39002901  0.10997100  1
  Co  Co2  1  0.39002901  0.10997100  0.89002903  1
  Cu  Cu3  1  0.60997102  0.60997102  0.60997102  1
  S  S4  1  0.50583902  0.49416102  0.99416104  1
  S  S5  1  0.49416102  0.99416104  0.50583902  1
  S  S6  1  0.99416104  0.50583902  0.49416102  1
  S  S7  1  0.00583900  0.00583900  0.00583900  1
  S  S8  1  0.89028503  0.10971500  0.60971502  1
  S  S9  1  0.10971500  0.60971502  0.89028503  1
  S  S10  1  0.60971502  0.89028503  0.10971500  1
  S  S11  1  0.39028501  0.39028501  0.39028501  1
