# generated using pymatgen
data_NaTiO3
_symmetry_space_group_name_H-M   'P 1'
_cell_length_a   5.57893991
_cell_length_b   5.57893991
_cell_length_c   5.57894039
_cell_angle_alpha   60.50393295
_cell_angle_beta   60.50393295
_cell_angle_gamma   60.50392914
_symmetry_Int_Tables_number   1
_chemical_formula_structural   NaTiO3
_chemical_formula_sum   'Na2 Ti2 O6'
_cell_volume   124.18184456
_cell_formula_units_Z   2
loop_
 _symmetry_equiv_pos_site_id
 _symmetry_equiv_pos_as_xyz
  1  'x, y, z'
loop_
 _atom_site_type_symbol
 _atom_site_label
 _atom_site_symmetry_multiplicity
 _atom_site_fract_x
 _atom_site_fract_y
 _atom_site_fract_z
 _atom_site_occupancy
  Na  Na0  1  0.24999999  0.25000000  0.25000002  1
  Na  Na1  1  0.74999996  0.74999999  0.75000007  1
  Ti  Ti2  1  0.00000000  0.00000000  0.00000000  1
  Ti  Ti3  1  0.49999997  0.50000000  0.50000005  1
  O  O4  1  0.74999998  0.29665000  0.20335004  1
  O  O5  1  0.24999997  0.70334999  0.79665005  1
  O  O6  1  0.79664998  0.25000000  0.70335005  1
  O  O7  1  0.29664999  0.20335000  0.75000002  1
  O  O8  1  0.70334996  0.79664999  0.25000007  1
  O  O9  1  0.20334997  0.74999999  0.29665005  1
