# generated using pymatgen
data_LiZn2S3
_symmetry_space_group_name_H-M   'P 1'
_cell_length_a   6.69348192
_cell_length_b   6.69386721
_cell_length_c   6.72320843
_cell_angle_alpha   80.30268860
_cell_angle_beta   70.31153870
_cell_angle_gamma   60.00190353
_symmetry_Int_Tables_number   1
_chemical_formula_structural   LiZn2S3
_chemical_formula_sum   'Li2 Zn4 S6'
_cell_volume   245.63076857
_cell_formula_units_Z   2
loop_
 _symmetry_equiv_pos_site_id
 _symmetry_equiv_pos_as_xyz
  1  'x, y, z'
loop_
 _atom_site_type_symbol
 _atom_site_label
 _atom_site_symmetry_multiplicity
 _atom_site_fract_x
 _atom_site_fract_y
 _atom_site_fract_z
 _atom_site_occupancy
  Li  Li0  1  0.60479902  0.83699796  0.98644803  1
  Li  Li1  1  0.75869801  0.50394098  0.48798302  1
  Zn  Zn2  1  0.44179701  0.16300199  0.48644801  1
  Zn  Zn3  1  0.26263901  0.49605898  0.98798302  1
  Zn  Zn4  1  0.09395101  0.81483897  0.50437402  1
  Zn  Zn5  1  0.90879001  0.18516099  0.00437401  1
  S  S6  1  0.06069400  0.18304499  0.60334101  1
  S  S7  1  0.24373901  0.81695497  0.10334101  1
  S  S8  1  0.88391501  0.52287298  0.12407702  1
  S  S9  1  0.40678801  0.47712698  0.62407702  1
  S  S10  1  0.52972001  0.16935199  0.12277601  1
  S  S11  1  0.69907202  0.83064796  0.62277602  1
