# generated using pymatgen
data_Al
_symmetry_space_group_name_H-M   'P 1'
_cell_length_a   5.06435061
_cell_length_b   5.06435061
_cell_length_c   5.06435061
_cell_angle_alpha   104.61667633
_cell_angle_beta   104.61667633
_cell_angle_gamma   119.68939209
_symmetry_Int_Tables_number   1
_chemical_formula_structural   Al
_chemical_formula_sum   Al6
_cell_volume   97.56670224
_cell_formula_units_Z   6
loop_
 _symmetry_equiv_pos_site_id
 _symmetry_equiv_pos_as_xyz
  1  'x, y, z'
loop_
 _atom_site_type_symbol
 _atom_site_label
 _atom_site_symmetry_multiplicity
 _atom_site_fract_x
 _atom_site_fract_y
 _atom_site_fract_z
 _atom_site_occupancy
  Al  Al0  1  0.33669097  0.16330998  0.49999995  1
  Al  Al1  1  0.66330886  0.83668990  0.49999986  1
  Al  Al2  1  0.16330890  0.66330892  0.82661790  1
  Al  Al3  1  0.83669093  0.33669096  0.17338191  1
  Al  Al4  1  0.24999996  0.24999997  0.99999994  1
  Al  Al5  1  0.74999987  0.74999991  0.99999985  1
