# generated using pymatgen
data_DyCoO3
_symmetry_space_group_name_H-M   'P 1'
_cell_length_a   5.29659891
_cell_length_b   5.67528105
_cell_length_c   7.47778988
_cell_angle_alpha   89.99718475
_cell_angle_beta   90.00616455
_cell_angle_gamma   89.98722076
_symmetry_Int_Tables_number   1
_chemical_formula_structural   DyCoO3
_chemical_formula_sum   'Dy4 Co4 O12'
_cell_volume   224.78001918
_cell_formula_units_Z   4
loop_
 _symmetry_equiv_pos_site_id
 _symmetry_equiv_pos_as_xyz
  1  'x, y, z'
loop_
 _atom_site_type_symbol
 _atom_site_label
 _atom_site_symmetry_multiplicity
 _atom_site_fract_x
 _atom_site_fract_y
 _atom_site_fract_z
 _atom_site_occupancy
  Dy  Dy0  1  0.02122296  0.92247900  0.74994900  1
  Dy  Dy1  1  0.47883499  0.42248700  0.74999702  1
  Dy  Dy2  1  0.52116499  0.57751300  0.25000301  1
  Dy  Dy3  1  0.97877702  0.07752100  0.25005103  1
  Co  Co4  1  -0.00000002  0.50000000  0.50000000  1
  Co  Co5  1  0.50000001  0.00000000  0.00000001  1
  Co  Co6  1  0.50000001  0.00000000  0.50000002  1
  Co  Co7  1  -0.00000002  0.50000000  -0.00000001  1
  O  O8  1  0.60987301  0.03162000  0.74993103  1
  O  O9  1  0.10979698  0.46843000  0.24997400  1
  O  O10  1  0.39012697  0.96838000  0.25006900  1
  O  O11  1  0.89020300  0.53157000  0.75002603  1
  O  O12  1  0.80563399  0.80893900  0.05363101  1
  O  O13  1  0.30567698  0.69107200  0.94636901  1
  O  O14  1  0.30572098  0.69107200  0.55363501  1
  O  O15  1  0.80572499  0.80891800  0.44638902  1
  O  O16  1  0.19427500  0.19108200  0.55361101  1
  O  O17  1  0.69427900  0.30892800  0.44636502  1
  O  O18  1  0.69432300  0.30892800  0.05363201  1
  O  O19  1  0.19436500  0.19106100  0.94636902  1
