# generated using pymatgen
data_LiCo3(CuO3)4
_symmetry_space_group_name_H-M   'P 1'
_cell_length_a   6.42016697
_cell_length_b   6.42016697
_cell_length_c   6.42016697
_cell_angle_alpha   109.47122192
_cell_angle_beta   109.47122192
_cell_angle_gamma   109.47122192
_symmetry_Int_Tables_number   1
_chemical_formula_structural   LiCo3(CuO3)4
_chemical_formula_sum   'Li1 Co3 Cu4 O12'
_cell_volume   203.71220857
_cell_formula_units_Z   1
loop_
 _symmetry_equiv_pos_site_id
 _symmetry_equiv_pos_as_xyz
  1  'x, y, z'
loop_
 _atom_site_type_symbol
 _atom_site_label
 _atom_site_symmetry_multiplicity
 _atom_site_fract_x
 _atom_site_fract_y
 _atom_site_fract_z
 _atom_site_occupancy
  Li  Li0  1  0.00000000  0.00000000  0.00000000  1
  Co  Co1  1  0.50000005  1.00000001  0.00000007  1
  Co  Co2  1  0.00000000  0.00000000  0.49999998  1
  Co  Co3  1  0.00000003  0.50000000  0.00000003  1
  Cu  Cu4  1  0.50000002  0.50000000  0.50000002  1
  Cu  Cu5  1  0.00000003  0.50000000  0.50000001  1
  Cu  Cu6  1  0.50000002  0.50000000  0.00000004  1
  Cu  Cu7  1  0.49999999  0.00000000  0.49999999  1
  O  O8  1  0.47283300  0.16983400  0.30299901  1
  O  O9  1  0.52716704  0.83016600  0.69700103  1
  O  O10  1  0.13316505  0.83016600  0.30299904  1
  O  O11  1  0.86683499  0.16983400  0.69700101  1
  O  O12  1  0.16983404  0.69700100  0.86683501  1
  O  O13  1  0.83016600  0.30299900  0.13316503  1
  O  O14  1  0.83016602  0.69700100  0.52716704  1
  O  O15  1  0.16983401  0.30299900  0.47283300  1
  O  O16  1  0.30299900  0.13316500  0.83016599  1
  O  O17  1  0.69700104  0.86683500  0.16983406  1
  O  O18  1  0.69700102  0.52716700  0.83016602  1
  O  O19  1  0.30299902  0.47283300  0.16983403  1
