# generated using pymatgen
data_CuNi2As2Pt7
_symmetry_space_group_name_H-M   'P 1'
_cell_length_a   3.91292000
_cell_length_b   7.90809393
_cell_length_c   7.90809393
_cell_angle_alpha   120.00000000
_cell_angle_beta   90.00000000
_cell_angle_gamma   90.00000000
_symmetry_Int_Tables_number   1
_chemical_formula_structural   CuNi2As2Pt7
_chemical_formula_sum   'Cu1 Ni2 As2 Pt7'
_cell_volume   211.92160693
_cell_formula_units_Z   1
loop_
 _symmetry_equiv_pos_site_id
 _symmetry_equiv_pos_as_xyz
  1  'x, y, z'
loop_
 _atom_site_type_symbol
 _atom_site_label
 _atom_site_symmetry_multiplicity
 _atom_site_fract_x
 _atom_site_fract_y
 _atom_site_fract_z
 _atom_site_occupancy
  Cu  Cu0  1  0.00000000  0.00000000  0.00000000  1
  Ni  Ni1  1  -0.00000000  0.50000000  0.49999998  1
  Ni  Ni2  1  -0.00000000  0.50000000  -0.00000001  1
  As  As3  1  1.00000000  0.00000000  0.49999999  1
  Pt  Pt4  1  0.50000000  0.78582100  0.21417998  1
  Pt  Pt5  1  0.50000000  0.21417900  0.42835799  1
  Pt  Pt6  1  0.50000000  0.57164100  0.78581997  1
  Pt  Pt7  1  0.50000000  0.42835900  0.21417999  1
  As  As8  1  0.50000000  0.78582100  0.57164197  1
  Pt  Pt9  1  0.50000000  0.21417900  0.78581998  1
  Pt  Pt10  1  1.00000000  0.66666667  0.33333331  1
  Pt  Pt11  1  -0.00000000  0.33333333  0.66666664  1
