# generated using pymatgen
data_Sc4Co5Ge11
_symmetry_space_group_name_H-M   'P 1'
_cell_length_a   3.26776004
_cell_length_b   4.85179710
_cell_length_c   22.15817070
_cell_angle_alpha   90.00000000
_cell_angle_beta   90.00000000
_cell_angle_gamma   109.67945862
_symmetry_Int_Tables_number   1
_chemical_formula_structural   Sc4Co5Ge11
_chemical_formula_sum   'Sc4 Co5 Ge11'
_cell_volume   330.78754334
_cell_formula_units_Z   1
loop_
 _symmetry_equiv_pos_site_id
 _symmetry_equiv_pos_as_xyz
  1  'x, y, z'
loop_
 _atom_site_type_symbol
 _atom_site_label
 _atom_site_symmetry_multiplicity
 _atom_site_fract_x
 _atom_site_fract_y
 _atom_site_fract_z
 _atom_site_occupancy
  Sc  Sc0  1  0.51881999  0.03764000  0.75000001  1
  Sc  Sc1  1  0.48118000  0.96235997  0.25000000  1
  Sc  Sc2  1  0.07348300  0.14696600  0.94069401  1
  Sc  Sc3  1  0.92651699  0.85303398  0.05930600  1
  Co  Co4  1  0.92651699  0.85303398  0.44069401  1
  Co  Co5  1  0.07348300  0.14696600  0.55930601  1
  Co  Co6  1  0.23630500  0.47260999  0.75000001  1
  Co  Co7  1  0.76369499  0.52738998  0.25000000  1
  Ge  Ge8  1  0.35410100  0.70820198  0.96803101  1
  Co  Co9  1  0.64589899  0.29179799  0.03196900  1
  Ge  Ge10  1  0.64589899  0.29179799  0.46803101  1
  Ge  Ge11  1  0.35410100  0.70820198  0.53196901  1
  Ge  Ge12  1  0.05910600  0.11821200  0.16218100  1
  Ge  Ge13  1  0.94089399  0.88178797  0.83781901  1
  Ge  Ge14  1  0.94089399  0.88178797  0.66218101  1
  Ge  Ge15  1  0.05910600  0.11821200  0.33781900  1
  Ge  Ge16  1  0.32386300  0.64772598  0.13632300  1
  Ge  Ge17  1  0.67613699  0.35227399  0.86367701  1
  Ge  Ge18  1  0.67613699  0.35227399  0.63632301  1
  Ge  Ge19  1  0.32386300  0.64772598  0.36367700  1
