# generated using pymatgen
data_InCo3OsRu3
_symmetry_space_group_name_H-M   'P 1'
_cell_length_a   5.54872370
_cell_length_b   5.54872370
_cell_length_c   5.54872370
_cell_angle_alpha   60.00000000
_cell_angle_beta   60.00000000
_cell_angle_gamma   60.00000000
_symmetry_Int_Tables_number   1
_chemical_formula_structural   InCo3OsRu3
_chemical_formula_sum   'In1 Co3 Ru3 Os1'
_cell_volume   120.79926735
_cell_formula_units_Z   1
loop_
 _symmetry_equiv_pos_site_id
 _symmetry_equiv_pos_as_xyz
  1  'x, y, z'
loop_
 _atom_site_type_symbol
 _atom_site_label
 _atom_site_symmetry_multiplicity
 _atom_site_fract_x
 _atom_site_fract_y
 _atom_site_fract_z
 _atom_site_occupancy
  In  In0  1  0.00000000  0.00000000  0.00000000  1
  Co  Co1  1  0.49999998  0.49999998  0.49999998  1
  Co  Co2  1  0.49999998  0.49999998  -0.00000000  1
  Co  Co3  1  0.99999996  0.49999998  0.49999998  1
  Ru  Ru4  1  0.00000000  0.49999998  -0.00000000  1
  Ru  Ru5  1  0.00000000  0.99999996  0.49999998  1
  Ru  Ru6  1  0.49999998  0.00000000  -0.00000000  1
  Os  Os7  1  0.49999998  0.99999996  0.49999998  1
