# generated using pymatgen
data_Li2Fe3(NiO4)2
_symmetry_space_group_name_H-M   'P 1'
_cell_length_a   5.71255255
_cell_length_b   5.71283579
_cell_length_c   5.75451565
_cell_angle_alpha   90.33926392
_cell_angle_beta   119.65472412
_cell_angle_gamma   119.38848877
_symmetry_Int_Tables_number   1
_chemical_formula_structural   Li2Fe3(NiO4)2
_chemical_formula_sum   'Li2 Fe3 Ni2 O8'
_cell_volume   134.30838866
_cell_formula_units_Z   1
loop_
 _symmetry_equiv_pos_site_id
 _symmetry_equiv_pos_as_xyz
  1  'x, y, z'
loop_
 _atom_site_type_symbol
 _atom_site_label
 _atom_site_symmetry_multiplicity
 _atom_site_fract_x
 _atom_site_fract_y
 _atom_site_fract_z
 _atom_site_occupancy
  Li  Li0  1  0.50000003  0.50000002  1.00000000  1
  Li  Li1  1  0.00000002  1.00000005  0.49999998  1
  Fe  Fe2  1  0.50000003  0.50000002  0.49999999  1
  Fe  Fe3  1  0.00000000  0.00000000  0.00000000  1
  Fe  Fe4  1  0.00000001  0.50000002  -0.00000001  1
  Ni  Ni5  1  0.50000002  0.00000000  1.00000002  1
  Ni  Ni6  1  0.50000004  1.00000005  0.49999998  1
  O  O7  1  0.46362502  0.20820901  0.23420200  1
  O  O8  1  0.00881202  0.75873504  0.22591998  1
  O  O9  1  0.47263203  0.75403604  0.24075298  1
  O  O10  1  0.97592704  0.23649001  0.20997500  1
  O  O11  1  0.02407302  0.76351004  0.79002499  1
  O  O12  1  0.52736803  0.24596401  0.75924701  1
  O  O13  1  0.99118804  0.24126501  0.77408001  1
  O  O14  1  0.53637504  0.79179104  0.76579799  1
