# generated using pymatgen
data_Sr4La2BCO6
_symmetry_space_group_name_H-M   'P 1'
_cell_length_a   5.67828798
_cell_length_b   5.86054897
_cell_length_c   6.32642317
_cell_angle_alpha   90.00000000
_cell_angle_beta   90.00000000
_cell_angle_gamma   90.00000000
_symmetry_Int_Tables_number   1
_chemical_formula_structural   Sr4La2BCO6
_chemical_formula_sum   'Sr4 La2 B1 C1 O6'
_cell_volume   210.52998143
_cell_formula_units_Z   1
loop_
 _symmetry_equiv_pos_site_id
 _symmetry_equiv_pos_as_xyz
  1  'x, y, z'
loop_
 _atom_site_type_symbol
 _atom_site_label
 _atom_site_symmetry_multiplicity
 _atom_site_fract_x
 _atom_site_fract_y
 _atom_site_fract_z
 _atom_site_occupancy
  Sr  Sr0  1  0.87334900  0.50000000  0.49999999  1
  Sr  Sr1  1  0.12665100  0.00000000  0.00000000  1
  Sr  Sr2  1  0.36000000  0.50000000  0.76860698  1
  Sr  Sr3  1  0.36000000  0.50000000  0.23139299  1
  La  La4  1  0.64000000  0.00000000  0.73139298  1
  La  La5  1  0.64000000  0.00000000  0.26860699  1
  B  B6  1  0.78118400  0.50000000  0.00000000  1
  C  C7  1  0.21881600  0.00000000  0.49999999  1
  O  O8  1  0.65124700  0.29455500  0.00000000  1
  O  O9  1  0.34875300  0.20544500  0.49999999  1
  O  O10  1  0.02637300  0.50000000  -0.00000000  1
  O  O11  1  0.97362700  0.00000000  0.49999999  1
  O  O12  1  0.34875300  0.79455500  0.49999999  1
  O  O13  1  0.65124700  0.70544500  0.00000000  1
