# generated using pymatgen
data_SrWO3
_symmetry_space_group_name_H-M   'P 1'
_cell_length_a   5.77452421
_cell_length_b   5.79524326
_cell_length_c   8.06741810
_cell_angle_alpha   90.00000000
_cell_angle_beta   90.00000000
_cell_angle_gamma   89.61593628
_symmetry_Int_Tables_number   1
_chemical_formula_structural   SrWO3
_chemical_formula_sum   'Sr4 W4 O12'
_cell_volume   269.96824633
_cell_formula_units_Z   4
loop_
 _symmetry_equiv_pos_site_id
 _symmetry_equiv_pos_as_xyz
  1  'x, y, z'
loop_
 _atom_site_type_symbol
 _atom_site_label
 _atom_site_symmetry_multiplicity
 _atom_site_fract_x
 _atom_site_fract_y
 _atom_site_fract_z
 _atom_site_occupancy
  Sr  Sr0  1  0.99566992  0.99514299  0.75300499  1
  Sr  Sr1  1  0.49455396  0.49428299  0.75112299  1
  Sr  Sr2  1  0.50544596  0.50571699  0.25112300  1
  Sr  Sr3  1  0.00433000  0.00485700  0.25300500  1
  W  W4  1  0.99583294  0.51642099  0.50150499  1
  W  W5  1  0.00416698  0.48357899  0.00150500  1
  W  W6  1  0.50463498  0.01643300  0.00202900  1
  W  W7  1  0.49536494  0.98356699  0.50202899  1
  O  O8  1  0.76360696  0.23377300  0.99998199  1
  O  O9  1  0.73657294  0.73371099  0.52543699  1
  O  O10  1  0.26342698  0.26628900  0.02543700  1
  O  O11  1  0.23639296  0.76622699  0.49998199  1
  O  O12  1  0.77726696  0.22855600  0.49838899  1
  O  O13  1  0.47436698  0.03073600  0.74909799  1
  O  O14  1  0.97054294  0.52675899  0.24927400  1
  O  O15  1  0.72330394  0.72949099  0.97015699  1
  O  O16  1  0.27669598  0.27050900  0.47015699  1
  O  O17  1  0.52563294  0.96926399  0.24909800  1
  O  O18  1  0.02945698  0.47324099  0.74927399  1
  O  O19  1  0.22273296  0.77144399  0.99838899  1
