# generated using pymatgen
data_LiMn5S8
_symmetry_space_group_name_H-M   'P 1'
_cell_length_a   7.47187185
_cell_length_b   7.47187185
_cell_length_c   7.47187138
_cell_angle_alpha   60.77567291
_cell_angle_beta   60.77567291
_cell_angle_gamma   60.77567291
_symmetry_Int_Tables_number   1
_chemical_formula_structural   LiMn5S8
_chemical_formula_sum   'Li1 Mn5 S8'
_cell_volume   300.12826668
_cell_formula_units_Z   1
loop_
 _symmetry_equiv_pos_site_id
 _symmetry_equiv_pos_as_xyz
  1  'x, y, z'
loop_
 _atom_site_type_symbol
 _atom_site_label
 _atom_site_symmetry_multiplicity
 _atom_site_fract_x
 _atom_site_fract_y
 _atom_site_fract_z
 _atom_site_occupancy
  Li  Li0  1  0.00000000  0.00000000  0.00000000  1
  Mn  Mn1  1  0.61607901  0.61607898  0.61607897  1
  Mn  Mn2  1  0.38392101  0.38392099  0.38392098  1
  Mn  Mn3  1  0.49999999  0.00000000  -0.00000001  1
  Mn  Mn4  1  0.00000000  0.00000000  0.50000000  1
  Mn  Mn5  1  0.00000002  0.49999998  0.99999998  1
  S  S6  1  0.79254099  0.21980699  0.21980698  1
  S  S7  1  0.24596501  0.24596499  0.24596499  1
  S  S8  1  0.78019299  0.20745899  0.78019298  1
  S  S9  1  0.78019302  0.78019297  0.20745896  1
  S  S10  1  0.20745903  0.78019297  0.78019297  1
  S  S11  1  0.75403502  0.75403497  0.75403496  1
  S  S12  1  0.21980703  0.79254097  0.21980697  1
  S  S13  1  0.21980701  0.21980699  0.79254099  1
