# generated using pymatgen
data_La(CoSi)2
_symmetry_space_group_name_H-M   'P 1'
_cell_length_a   3.84542990
_cell_length_b   3.84542990
_cell_length_c   5.90295839
_cell_angle_alpha   109.00923920
_cell_angle_beta   109.00923920
_cell_angle_gamma   90.00000000
_symmetry_Int_Tables_number   1
_chemical_formula_structural   La(CoSi)2
_chemical_formula_sum   'La1 Co2 Si2'
_cell_volume   77.47665429
_cell_formula_units_Z   1
loop_
 _symmetry_equiv_pos_site_id
 _symmetry_equiv_pos_as_xyz
  1  'x, y, z'
loop_
 _atom_site_type_symbol
 _atom_site_label
 _atom_site_symmetry_multiplicity
 _atom_site_fract_x
 _atom_site_fract_y
 _atom_site_fract_z
 _atom_site_occupancy
  La  La0  1  0.00000000  0.00000000  0.00000000  1
  Co  Co1  1  0.75000004  0.25000001  0.50000001  1
  Co  Co2  1  0.25000003  0.75000003  0.50000001  1
  Si  Si3  1  0.64238904  0.64238903  0.28477803  1
  Si  Si4  1  0.35761102  0.35761101  0.71522200  1
