# generated using pymatgen
data_BaHBrO
_symmetry_space_group_name_H-M   'P 1'
_cell_length_a   4.46309185
_cell_length_b   7.48101377
_cell_length_c   9.38150311
_cell_angle_alpha   90.00000000
_cell_angle_beta   90.00000000
_cell_angle_gamma   90.00000000
_symmetry_Int_Tables_number   1
_chemical_formula_structural   BaHBrO
_chemical_formula_sum   'Ba4 H4 Br4 O4'
_cell_volume   313.23386246
_cell_formula_units_Z   4
loop_
 _symmetry_equiv_pos_site_id
 _symmetry_equiv_pos_as_xyz
  1  'x, y, z'
loop_
 _atom_site_type_symbol
 _atom_site_label
 _atom_site_symmetry_multiplicity
 _atom_site_fract_x
 _atom_site_fract_y
 _atom_site_fract_z
 _atom_site_occupancy
  Ba  Ba0  1  0.25000001  0.19094401  0.88778599  1
  Ba  Ba1  1  0.75000003  0.80905602  0.11221400  1
  Ba  Ba2  1  0.25000001  0.69094402  0.61221399  1
  Ba  Ba3  1  0.75000003  0.30905601  0.38778600  1
  H  H4  1  0.75000003  0.28096101  0.06868100  1
  H  H5  1  0.25000001  0.71903902  0.93131899  1
  H  H6  1  0.25000001  0.21903901  0.56868099  1
  H  H7  1  0.75000003  0.78096102  0.43131900  1
  Br  Br8  1  0.75000003  0.02000800  0.66420299  1
  Br  Br9  1  0.25000001  0.97999203  0.33579700  1
  Br  Br10  1  0.25000001  0.47999201  0.16420300  1
  Br  Br11  1  0.75000003  0.52000802  0.83579699  1
  O  O12  1  0.75000003  0.15216800  0.05242700  1
  O  O13  1  0.25000001  0.34783201  0.55242699  1
  O  O14  1  0.75000003  0.65216802  0.44757299  1
  O  O15  1  0.25000001  0.84783203  0.94757299  1
