# generated using pymatgen
data_LiLa3Sb3WO12
_symmetry_space_group_name_H-M   'P 1'
_cell_length_a   5.45152092
_cell_length_b   5.84090710
_cell_length_c   7.78462791
_cell_angle_alpha   90.00000000
_cell_angle_beta   90.56316376
_cell_angle_gamma   90.00000000
_symmetry_Int_Tables_number   1
_chemical_formula_structural   LiLa3Sb3WO12
_chemical_formula_sum   'Li1 La3 Sb3 W1 O12'
_cell_volume   247.86480345
_cell_formula_units_Z   1
loop_
 _symmetry_equiv_pos_site_id
 _symmetry_equiv_pos_as_xyz
  1  'x, y, z'
loop_
 _atom_site_type_symbol
 _atom_site_label
 _atom_site_symmetry_multiplicity
 _atom_site_fract_x
 _atom_site_fract_y
 _atom_site_fract_z
 _atom_site_occupancy
  La  La0  1  0.00000000  0.00000000  0.00000000  1
  Li  Li1  1  0.50000001  0.49999999  0.50000002  1
  La  La2  1  0.48139601  0.92629398  0.25172902  1
  La  La3  1  0.01860400  0.42629399  0.24827100  1
  Sb  Sb4  1  0.98139601  0.57370599  0.75172904  1
  Sb  Sb5  1  0.51860401  0.07370600  0.74827103  1
  W  W6  1  0.50000001  0.49999999  0.00000002  1
  Sb  Sb7  1  0.00000000  0.00000000  0.50000001  1
  O  O8  1  0.17946700  0.71122999  0.44691701  1
  O  O9  1  0.32053300  0.21123000  0.05308301  1
  O  O10  1  0.82053301  0.28877000  0.55308304  1
  O  O11  1  0.67946701  0.78876999  0.94691704  1
  O  O12  1  0.09879100  0.97037598  0.74583001  1
  O  O13  1  0.40120901  0.47037599  0.75417002  1
  O  O14  1  0.20016800  0.68747899  0.04846501  1
  O  O15  1  0.29983200  0.18747900  0.45153502  1
  O  O16  1  0.79983201  0.31252099  0.95153504  1
  O  O17  1  0.70016801  0.81252099  0.54846503  1
  O  O18  1  0.59879101  0.52962399  0.24583002  1
  O  O19  1  0.90120901  0.02962400  0.25417003  1
