# generated using pymatgen
data_V4O5F7
_symmetry_space_group_name_H-M   'P 1'
_cell_length_a   5.19544697
_cell_length_b   5.25158358
_cell_length_c   9.25417328
_cell_angle_alpha   75.13362122
_cell_angle_beta   73.74078369
_cell_angle_gamma   60.63482285
_symmetry_Int_Tables_number   1
_chemical_formula_structural   V4O5F7
_chemical_formula_sum   'V4 O5 F7'
_cell_volume   209.09292798
_cell_formula_units_Z   1
loop_
 _symmetry_equiv_pos_site_id
 _symmetry_equiv_pos_as_xyz
  1  'x, y, z'
loop_
 _atom_site_type_symbol
 _atom_site_label
 _atom_site_symmetry_multiplicity
 _atom_site_fract_x
 _atom_site_fract_y
 _atom_site_fract_z
 _atom_site_occupancy
  V  V0  1  0.95335902  0.01691100  0.00169698  1
  V  V1  1  0.72276405  0.75228498  0.76140497  1
  V  V2  1  0.54541803  0.48661699  0.50110298  1
  V  V3  1  0.24717902  0.27147599  0.26222999  1
  O  O4  1  0.39357705  0.80019098  0.87478797  1
  O  O5  1  0.82584506  0.94484398  0.87518196  1
  O  O6  1  0.29375603  0.43959799  0.37704898  1
  O  O7  1  0.70222504  0.54896899  0.61648297  1
  O  O8  1  0.63127102  0.19105700  0.12185898  1
  F  F9  1  0.85267303  0.31186499  0.37211498  1
  F  F10  1  0.12755004  0.69895998  0.62078898  1
  F  F11  1  0.04264103  0.62687998  0.12019898  1
  F  F12  1  0.44842205  0.86826098  0.37407296  1
  F  F13  1  0.20169601  0.04382300  0.12132900  1
  F  F14  1  0.54104702  0.13092700  0.62279899  1
  F  F15  1  0.97057703  0.36733599  0.87689897  1
