# generated using pymatgen
data_Mn3CoCuSnS8
_symmetry_space_group_name_H-M   'P 1'
_cell_length_a   7.19935417
_cell_length_b   7.24834156
_cell_length_c   7.24834156
_cell_angle_alpha   60.68282318
_cell_angle_beta   60.22331619
_cell_angle_gamma   60.22331619
_symmetry_Int_Tables_number   1
_chemical_formula_structural   Mn3CoCuSnS8
_chemical_formula_sum   'Mn3 Co1 Cu1 Sn1 S8'
_cell_volume   269.72418522
_cell_formula_units_Z   1
loop_
 _symmetry_equiv_pos_site_id
 _symmetry_equiv_pos_as_xyz
  1  'x, y, z'
loop_
 _atom_site_type_symbol
 _atom_site_label
 _atom_site_symmetry_multiplicity
 _atom_site_fract_x
 _atom_site_fract_y
 _atom_site_fract_z
 _atom_site_occupancy
  Mn  Mn0  1  0.49999999  0.50000002  -0.00000003  1
  Mn  Mn1  1  0.99999999  0.50000002  -0.00000005  1
  Mn  Mn2  1  0.62945399  0.12054601  0.62054599  1
  Co  Co3  1  0.37054598  0.87945404  0.37945397  1
  Sn  Sn4  1  0.00000000  0.00000000  0.00000000  1
  Cu  Cu5  1  0.99999999  0.50000002  0.49999997  1
  S  S6  1  0.23915799  0.26306401  0.76306401  1
  S  S7  1  0.73471399  0.26306401  0.76306399  1
  S  S8  1  0.74856998  0.72815804  0.77470198  1
  S  S9  1  0.74856999  0.27470201  0.22815797  1
  S  S10  1  0.76084198  0.73693604  0.23693596  1
  S  S11  1  0.26528599  0.73693604  0.23693598  1
  S  S12  1  0.25142999  0.27184201  0.22529799  1
  S  S13  1  0.25142999  0.72529804  0.77184199  1
