# generated using pymatgen
data_Cs3LaTl3Ag2I11
_symmetry_space_group_name_H-M   'P 1'
_cell_length_a   4.29260015
_cell_length_b   14.38930607
_cell_length_c   14.38930607
_cell_angle_alpha   120.00000000
_cell_angle_beta   90.00000000
_cell_angle_gamma   90.00000000
_symmetry_Int_Tables_number   1
_chemical_formula_structural   Cs3LaTl3Ag2I11
_chemical_formula_sum   'Cs3 La1 Tl3 Ag2 I11'
_cell_volume   769.71645204
_cell_formula_units_Z   1
loop_
 _symmetry_equiv_pos_site_id
 _symmetry_equiv_pos_as_xyz
  1  'x, y, z'
loop_
 _atom_site_type_symbol
 _atom_site_label
 _atom_site_symmetry_multiplicity
 _atom_site_fract_x
 _atom_site_fract_y
 _atom_site_fract_z
 _atom_site_occupancy
  Cs  Cs0  1  -0.00000000  0.33333333  0.66666669  1
  Cs  Cs1  1  -0.00000000  0.66666667  0.33333335  1
  Cs  Cs2  1  0.99999996  0.28310300  1.00000003  1
  Tl  Tl3  1  -0.00000000  0.71689700  0.71689703  1
  La  La4  1  0.99999996  1.00000000  0.28310303  1
  Tl  Tl5  1  0.49999998  0.67599500  0.00000001  1
  Tl  Tl6  1  0.49999998  0.32400500  0.32400501  1
  Ag  Ag7  1  0.49999998  0.00000000  0.67599502  1
  Ag  Ag8  1  -0.00000000  0.81324500  1.00000004  1
  I  I9  1  -0.00000000  0.18675500  0.18675501  1
  I  I10  1  -0.00000000  1.00000000  0.81324504  1
  I  I11  1  -0.00000000  0.54126600  1.00000003  1
  I  I12  1  -0.00000000  0.45873400  0.45873402  1
  I  I13  1  0.99999996  1.00000000  0.54126603  1
  I  I14  1  0.49999998  0.21116300  0.43926901  1
  I  I15  1  0.49999998  0.22810600  0.78883702  1
  I  I16  1  0.49999998  0.78883700  0.22810602  1
  I  I17  1  0.49999998  0.56073100  0.77189403  1
  I  I18  1  0.49999998  0.77189400  0.56073103  1
  I  I19  1  0.49999998  0.43926900  0.21116301  1
