# generated using pymatgen
data_UNi2
_symmetry_space_group_name_H-M   'P 1'
_cell_length_a   4.88838005
_cell_length_b   5.10127497
_cell_length_c   5.10127497
_cell_angle_alpha   60.88334656
_cell_angle_beta   61.37119675
_cell_angle_gamma   61.37119675
_symmetry_Int_Tables_number   1
_chemical_formula_structural   UNi2
_chemical_formula_sum   'U2 Ni4'
_cell_volume   92.39227821
_cell_formula_units_Z   2
loop_
 _symmetry_equiv_pos_site_id
 _symmetry_equiv_pos_as_xyz
  1  'x, y, z'
loop_
 _atom_site_type_symbol
 _atom_site_label
 _atom_site_symmetry_multiplicity
 _atom_site_fract_x
 _atom_site_fract_y
 _atom_site_fract_z
 _atom_site_occupancy
  U  U0  1  0.87830200  0.37169801  0.87169800  1
  U  U1  1  0.12169799  0.62830202  0.12830200  1
  Ni  Ni2  1  1.00000000  0.00000000  0.49999999  1
  Ni  Ni3  1  0.50000000  0.00000000  0.50000000  1
  Ni  Ni4  1  0.49999999  0.50000002  0.50000000  1
  Ni  Ni5  1  0.49999998  1.00000004  -0.00000002  1
