# generated using pymatgen
data_NaLiTi2F8
_symmetry_space_group_name_H-M   'P 1'
_cell_length_a   5.41032600
_cell_length_b   5.47213602
_cell_length_c   6.51901531
_cell_angle_alpha   110.76044464
_cell_angle_beta   114.51711273
_cell_angle_gamma   90.00000000
_symmetry_Int_Tables_number   1
_chemical_formula_structural   NaLiTi2F8
_chemical_formula_sum   'Na1 Li1 Ti2 F8'
_cell_volume   161.72631803
_cell_formula_units_Z   1
loop_
 _symmetry_equiv_pos_site_id
 _symmetry_equiv_pos_as_xyz
  1  'x, y, z'
loop_
 _atom_site_type_symbol
 _atom_site_label
 _atom_site_symmetry_multiplicity
 _atom_site_fract_x
 _atom_site_fract_y
 _atom_site_fract_z
 _atom_site_occupancy
  Li  Li0  1  0.25059603  0.75000000  0.00000004  1
  Na  Na1  1  0.74940402  0.25000000  0.00000004  1
  Ti  Ti2  1  0.00000004  1.00000000  0.50000004  1
  Ti  Ti3  1  0.50000003  0.50000000  0.50000005  1
  F  F4  1  0.66313501  0.02278100  0.21460003  1
  F  F5  1  0.88819803  0.35794300  0.71139906  1
  F  F6  1  0.33686504  0.97721900  0.78540006  1
  F  F7  1  0.82320105  0.85794300  0.71139908  1
  F  F8  1  0.11180203  0.64205700  0.28860103  1
  F  F9  1  0.55146503  0.52278100  0.21460005  1
  F  F10  1  0.17679901  0.14205700  0.28860102  1
  F  F11  1  0.44853503  0.47721900  0.78540005  1
