# generated using pymatgen
data_BiSbWO4
_symmetry_space_group_name_H-M   'P 1'
_cell_length_a   4.01307392
_cell_length_b   6.57018423
_cell_length_c   6.62703419
_cell_angle_alpha   61.55298996
_cell_angle_beta   72.37531281
_cell_angle_gamma   72.21774292
_symmetry_Int_Tables_number   1
_chemical_formula_structural   BiSbWO4
_chemical_formula_sum   'Bi1 Sb1 W1 O4'
_cell_volume   143.68969047
_cell_formula_units_Z   1
loop_
 _symmetry_equiv_pos_site_id
 _symmetry_equiv_pos_as_xyz
  1  'x, y, z'
loop_
 _atom_site_type_symbol
 _atom_site_label
 _atom_site_symmetry_multiplicity
 _atom_site_fract_x
 _atom_site_fract_y
 _atom_site_fract_z
 _atom_site_occupancy
  Sb  Sb0  1  0.00000000  0.00000000  0.00000000  1
  Bi  Bi1  1  0.25232601  0.73647197  0.75887602  1
  W  W2  1  0.74767402  0.26352799  0.24112399  1
  O  O3  1  0.12522800  0.53318998  0.21635400  1
  O  O4  1  0.62869402  0.03923900  0.70337301  1
  O  O5  1  0.37130601  0.96076097  0.29662700  1
  O  O6  1  0.87477203  0.46680998  0.78364601  1
