# generated using pymatgen
data_Fe2Se3
_symmetry_space_group_name_H-M   'P 1'
_cell_length_a   4.01631069
_cell_length_b   4.03157043
_cell_length_c   7.02745390
_cell_angle_alpha   106.23744965
_cell_angle_beta   106.33019257
_cell_angle_gamma   90.01466370
_symmetry_Int_Tables_number   1
_chemical_formula_structural   Fe2Se3
_chemical_formula_sum   'Fe2 Se3'
_cell_volume   104.45757794
_cell_formula_units_Z   1
loop_
 _symmetry_equiv_pos_site_id
 _symmetry_equiv_pos_as_xyz
  1  'x, y, z'
loop_
 _atom_site_type_symbol
 _atom_site_label
 _atom_site_symmetry_multiplicity
 _atom_site_fract_x
 _atom_site_fract_y
 _atom_site_fract_z
 _atom_site_occupancy
  Fe  Fe0  1  0.65823496  0.65590604  0.30937601  1
  Fe  Fe1  1  0.35109098  0.34052602  0.69522802  1
  Se  Se2  1  0.99644699  0.00828800  0.00112200  1
  Se  Se3  1  0.75095898  0.25137401  0.50230301  1
  Se  Se4  1  0.25110396  0.75129604  0.50102002  1
