# generated using pymatgen
data_SrH
_symmetry_space_group_name_H-M   'P 1'
_cell_length_a   4.57392883
_cell_length_b   4.61708403
_cell_length_c   9.90514565
_cell_angle_alpha   76.52241516
_cell_angle_beta   90.00000000
_cell_angle_gamma   90.00000000
_symmetry_Int_Tables_number   1
_chemical_formula_structural   SrH
_chemical_formula_sum   'Sr4 H4'
_cell_volume   203.41843939
_cell_formula_units_Z   4
loop_
 _symmetry_equiv_pos_site_id
 _symmetry_equiv_pos_as_xyz
  1  'x, y, z'
loop_
 _atom_site_type_symbol
 _atom_site_label
 _atom_site_symmetry_multiplicity
 _atom_site_fract_x
 _atom_site_fract_y
 _atom_site_fract_z
 _atom_site_occupancy
  Sr  Sr0  1  0.75000003  0.67683800  0.64632402  1
  Sr  Sr1  1  0.25000001  0.32316200  0.35367601  1
  Sr  Sr2  1  0.75000003  0.89456800  0.21086400  1
  Sr  Sr3  1  0.25000001  0.10543100  0.78913703  1
  H  H4  1  0.75000003  0.54405600  0.91188803  1
  H  H5  1  0.25000001  0.45594400  0.08811200  1
  H  H6  1  0.75000003  0.24859100  0.50281802  1
  H  H7  1  0.25000001  0.75140900  0.49718201  1
