# generated using pymatgen
data_NaMn3(BiO6)2
_symmetry_space_group_name_H-M   'P 1'
_cell_length_a   7.54496098
_cell_length_b   7.54496098
_cell_length_c   7.54496098
_cell_angle_alpha   89.45465851
_cell_angle_beta   60.20707703
_cell_angle_gamma   119.57848358
_symmetry_Int_Tables_number   1
_chemical_formula_structural   NaMn3(BiO6)2
_chemical_formula_sum   'Na1 Mn3 Bi2 O12'
_cell_volume   305.13434922
_cell_formula_units_Z   1
loop_
 _symmetry_equiv_pos_site_id
 _symmetry_equiv_pos_as_xyz
  1  'x, y, z'
loop_
 _atom_site_type_symbol
 _atom_site_label
 _atom_site_symmetry_multiplicity
 _atom_site_fract_x
 _atom_site_fract_y
 _atom_site_fract_z
 _atom_site_occupancy
  Na  Na0  1  0.00000000  0.00000000  0.00000000  1
  Mn  Mn1  1  0.49999994  0.49999997  0.00000003  1
  Mn  Mn2  1  0.99999994  0.49999997  0.50000004  1
  Mn  Mn3  1  0.49999999  0.00000000  0.50000000  1
  Bi  Bi4  1  0.99999994  0.49999997  0.00000004  1
  Bi  Bi5  1  0.49999994  0.49999997  0.50000003  1
  O  O6  1  0.24999995  0.43800498  0.81199502  1
  O  O7  1  0.24999991  0.80887195  0.44112804  1
  O  O8  1  0.62010491  0.81005795  0.43683005  1
  O  O9  1  0.87989494  0.44306497  0.81004703  1
  O  O10  1  0.25311195  0.44306497  0.43683002  1
  O  O11  1  0.24688791  0.81005795  0.81004704  1
  O  O12  1  0.74999993  0.56199497  0.18800504  1
  O  O13  1  0.74999997  0.19112799  0.55887202  1
  O  O14  1  0.37989498  0.18994199  0.56317001  1
  O  O15  1  0.12010494  0.55693497  0.18995303  1
  O  O16  1  0.74688793  0.55693497  0.56317003  1
  O  O17  1  0.75311197  0.18994199  0.18995302  1
