# generated using pymatgen
data_TiCrNiN
_symmetry_space_group_name_H-M   'P 1'
_cell_length_a   2.88110805
_cell_length_b   2.88110733
_cell_length_c   12.87035084
_cell_angle_alpha   90.00000000
_cell_angle_beta   90.00000000
_cell_angle_gamma   120.00000763
_symmetry_Int_Tables_number   1
_chemical_formula_structural   TiCrNiN
_chemical_formula_sum   'Ti2 Cr2 Ni2 N2'
_cell_volume   92.52092512
_cell_formula_units_Z   2
loop_
 _symmetry_equiv_pos_site_id
 _symmetry_equiv_pos_as_xyz
  1  'x, y, z'
loop_
 _atom_site_type_symbol
 _atom_site_label
 _atom_site_symmetry_multiplicity
 _atom_site_fract_x
 _atom_site_fract_y
 _atom_site_fract_z
 _atom_site_occupancy
  Ti  Ti0  1  0.66666666  0.33333334  0.25673300  1
  Ti  Ti1  1  0.33333333  0.66666668  0.74326701  1
  Cr  Cr2  1  0.33333333  0.66666668  0.08756900  1
  Cr  Cr3  1  0.66666666  0.33333334  0.91243101  1
  Ni  Ni4  1  0.66666666  0.33333334  0.58245501  1
  Ni  Ni5  1  0.33333333  0.66666668  0.41754501  1
  N  N6  1  0.00000000  0.00000000  0.50000001  1
  N  N7  1  0.00000000  0.00000000  0.00000000  1
