# generated using pymatgen
data_K2CuF4
_symmetry_space_group_name_H-M   'P 1'
_cell_length_a   3.83410501
_cell_length_b   6.50822973
_cell_length_c   10.44253159
_cell_angle_alpha   90.00000000
_cell_angle_beta   90.00000000
_cell_angle_gamma   92.80361176
_symmetry_Int_Tables_number   1
_chemical_formula_structural   K2CuF4
_chemical_formula_sum   'K4 Cu2 F8'
_cell_volume   260.26306413
_cell_formula_units_Z   2
loop_
 _symmetry_equiv_pos_site_id
 _symmetry_equiv_pos_as_xyz
  1  'x, y, z'
loop_
 _atom_site_type_symbol
 _atom_site_label
 _atom_site_symmetry_multiplicity
 _atom_site_fract_x
 _atom_site_fract_y
 _atom_site_fract_z
 _atom_site_occupancy
  K  K0  1  0.52145703  0.41579102  0.81720003  1
  K  K1  1  0.47854300  0.08420900  0.31720001  1
  K  K2  1  0.47854304  0.58420902  0.18280001  1
  K  K3  1  0.52145707  0.91579104  0.68280003  1
  Cu  Cu4  1  0.00000000  0.00000000  0.00000000  1
  Cu  Cu5  1  0.00000004  0.50000002  0.50000002  1
  F  F6  1  0.40276802  0.22487501  0.05253000  1
  F  F7  1  0.59723202  0.27512501  0.55253002  1
  F  F8  1  0.59723206  0.77512503  0.94747004  1
  F  F9  1  0.40276806  0.72487503  0.44747002  1
  F  F10  1  0.01718601  0.12375700  0.81062003  1
  F  F11  1  0.98281403  0.37624301  0.31062001  1
  F  F12  1  0.98281407  0.87624303  0.18938001  1
  F  F13  1  0.01718605  0.62375702  0.68938003  1
