# generated using pymatgen
data_BaNaLa2MnCo3O10
_symmetry_space_group_name_H-M   'P 1'
_cell_length_a   5.78537798
_cell_length_b   6.90880013
_cell_length_c   7.47004080
_cell_angle_alpha   103.97814178
_cell_angle_beta   90.00000000
_cell_angle_gamma   114.75230408
_symmetry_Int_Tables_number   1
_chemical_formula_structural   BaNaLa2MnCo3O10
_chemical_formula_sum   'Ba1 Na1 La2 Mn1 Co3 O10'
_cell_volume   261.37849245
_cell_formula_units_Z   1
loop_
 _symmetry_equiv_pos_site_id
 _symmetry_equiv_pos_as_xyz
  1  'x, y, z'
loop_
 _atom_site_type_symbol
 _atom_site_label
 _atom_site_symmetry_multiplicity
 _atom_site_fract_x
 _atom_site_fract_y
 _atom_site_fract_z
 _atom_site_occupancy
  Na  Na0  1  0.64979698  0.29959398  0.02776498  1
  Ba  Ba1  1  0.35020294  0.70040595  0.97223493  1
  La  La2  1  0.50000000  0.00000000  0.49999999  1
  La  La3  1  0.18929697  0.37859397  0.37460597  1
  Mn  Mn4  1  0.81070295  0.62140595  0.62539394  1
  Co  Co5  1  0.08544399  0.17088799  0.69456397  1
  Co  Co6  1  0.91455594  0.82911194  0.30543594  1
  Co  Co7  1  0.00000000  0.00000000  0.00000000  1
  O  O8  1  0.24451600  0.03747200  0.22007299  1
  O  O9  1  0.75548392  0.96252793  0.77992692  1
  O  O10  1  0.20704392  0.96252793  0.77992692  1
  O  O11  1  0.79295600  0.03747200  0.22007299  1
  O  O12  1  0.16762297  0.33524597  0.05064798  1
  O  O13  1  0.83237695  0.66475395  0.94935193  1
  O  O14  1  0.58772295  0.64953195  0.38216495  1
  O  O15  1  0.41227697  0.35046797  0.61783496  1
  O  O16  1  0.93819097  0.35046797  0.61783496  1
  O  O17  1  0.06180895  0.64953195  0.38216495  1
