# generated using pymatgen
data_Zr5Ge3C
_symmetry_space_group_name_H-M   'P 1'
_cell_length_a   5.81355810
_cell_length_b   8.48803234
_cell_length_c   8.48803139
_cell_angle_alpha   120.00000000
_cell_angle_beta   90.00000000
_cell_angle_gamma   90.00000000
_symmetry_Int_Tables_number   1
_chemical_formula_structural   Zr5Ge3C
_chemical_formula_sum   'Zr10 Ge6 C2'
_cell_volume   362.73265226
_cell_formula_units_Z   2
loop_
 _symmetry_equiv_pos_site_id
 _symmetry_equiv_pos_as_xyz
  1  'x, y, z'
loop_
 _atom_site_type_symbol
 _atom_site_label
 _atom_site_symmetry_multiplicity
 _atom_site_fract_x
 _atom_site_fract_y
 _atom_site_fract_z
 _atom_site_occupancy
  Zr  Zr0  1  -0.00000000  0.33333332  0.66666668  1
  Zr  Zr1  1  0.99999998  0.66666663  0.33333333  1
  Zr  Zr2  1  0.49999999  0.66666663  0.33333333  1
  Zr  Zr3  1  0.49999999  0.33333332  0.66666668  1
  Zr  Zr4  1  0.25000000  0.22029599  1.00000003  1
  Zr  Zr5  1  0.25000000  0.77970396  0.77970401  1
  Zr  Zr6  1  0.25000000  0.99999995  0.22029599  1
  Zr  Zr7  1  0.74999999  0.77970396  1.00000002  1
  Zr  Zr8  1  0.74999999  0.22029599  0.22029600  1
  Zr  Zr9  1  0.74999999  0.99999995  0.77970401  1
  Ge  Ge10  1  0.25000000  0.59480697  1.00000002  1
  Ge  Ge11  1  0.25000000  0.40519298  0.40519301  1
  Ge  Ge12  1  0.25000000  0.99999995  0.59480700  1
  Ge  Ge13  1  0.74999999  0.40519298  1.00000003  1
  Ge  Ge14  1  0.74999999  0.59480697  0.59480701  1
  Ge  Ge15  1  0.74999999  0.99999995  0.40519299  1
  C  C16  1  0.00000000  0.00000000  0.00000000  1
  C  C17  1  0.49999999  0.00000000  -0.00000000  1
