# generated using pymatgen
data_TbDyFe2B2MoC3
_symmetry_space_group_name_H-M   'P 1'
_cell_length_a   3.68924594
_cell_length_b   5.52941942
_cell_length_c   6.72953701
_cell_angle_alpha   90.00000000
_cell_angle_beta   90.00000000
_cell_angle_gamma   109.48752594
_symmetry_Int_Tables_number   1
_chemical_formula_structural   TbDyFe2B2MoC3
_chemical_formula_sum   'Tb1 Dy1 Fe2 B2 Mo1 C3'
_cell_volume   129.41432459
_cell_formula_units_Z   1
loop_
 _symmetry_equiv_pos_site_id
 _symmetry_equiv_pos_as_xyz
  1  'x, y, z'
loop_
 _atom_site_type_symbol
 _atom_site_label
 _atom_site_symmetry_multiplicity
 _atom_site_fract_x
 _atom_site_fract_y
 _atom_site_fract_z
 _atom_site_occupancy
  Tb  Tb0  1  0.45260409  0.90520802  0.75000000  1
  Dy  Dy1  1  0.54739602  0.09479200  0.25000000  1
  Fe  Fe2  1  0.16538703  0.33077401  0.93812600  1
  Fe  Fe3  1  0.83461308  0.66922601  0.06187400  1
  B  B4  1  0.83461308  0.66922601  0.43812600  1
  Mo  Mo5  1  0.16538703  0.33077401  0.56187400  1
  B  B6  1  0.73231806  0.46463601  0.75000000  1
  C  C7  1  0.26768205  0.53536401  0.25000000  1
  C  C8  1  0.00000000  0.00000000  0.00000000  1
  C  C9  1  0.00000000  0.00000000  0.50000000  1
