# generated using pymatgen
data_Li2Tl(SbO2)5
_symmetry_space_group_name_H-M   'P 1'
_cell_length_a   6.19710684
_cell_length_b   6.57636976
_cell_length_c   9.99316692
_cell_angle_alpha   109.18391418
_cell_angle_beta   90.00000000
_cell_angle_gamma   90.00000000
_symmetry_Int_Tables_number   1
_chemical_formula_structural   Li2Tl(SbO2)5
_chemical_formula_sum   'Li2 Tl1 Sb5 O10'
_cell_volume   384.65014606
_cell_formula_units_Z   1
loop_
 _symmetry_equiv_pos_site_id
 _symmetry_equiv_pos_as_xyz
  1  'x, y, z'
loop_
 _atom_site_type_symbol
 _atom_site_label
 _atom_site_symmetry_multiplicity
 _atom_site_fract_x
 _atom_site_fract_y
 _atom_site_fract_z
 _atom_site_occupancy
  Li  Li0  1  0.12202800  0.84032202  0.50022299  1
  Li  Li1  1  0.12569000  0.62821702  0.10322099  1
  Tl  Tl2  1  0.62569002  0.37178301  0.89677900  1
  Sb  Sb3  1  0.62202802  0.15967800  0.49977700  1
  Sb  Sb4  1  0.11947900  0.03265100  0.89053901  1
  Sb  Sb5  1  0.13371700  0.23730001  0.30639600  1
  Sb  Sb6  1  0.61947902  0.96734902  0.10946098  1
  Sb  Sb7  1  0.63371702  0.76270002  0.69360399  1
  O  O8  1  0.50504401  0.04314700  0.90132501  1
  O  O9  1  0.50136601  0.42659701  0.69805800  1
  O  O10  1  0.49067901  0.83692702  0.49714399  1
  O  O11  1  0.50862501  0.23972801  0.30903200  1
  O  O12  1  0.49337201  0.62222702  0.09402399  1
  O  O13  1  0.00504400  0.95685302  0.09867498  1
  O  O14  1  0.99337203  0.37777301  0.90597600  1
  O  O15  1  0.00862500  0.76027202  0.69096799  1
  O  O16  1  0.99067903  0.16307300  0.50285600  1
  O  O17  1  0.00136600  0.57340301  0.30194199  1
