# generated using pymatgen
data_TiS
_symmetry_space_group_name_H-M   'P 1'
_cell_length_a   3.69185591
_cell_length_b   3.69185591
_cell_length_c   15.29788971
_cell_angle_alpha   83.06948090
_cell_angle_beta   83.06948090
_cell_angle_gamma   60.00000000
_symmetry_Int_Tables_number   1
_chemical_formula_structural   TiS
_chemical_formula_sum   'Ti5 S5'
_cell_volume   178.81114194
_cell_formula_units_Z   5
loop_
 _symmetry_equiv_pos_site_id
 _symmetry_equiv_pos_as_xyz
  1  'x, y, z'
loop_
 _atom_site_type_symbol
 _atom_site_label
 _atom_site_symmetry_multiplicity
 _atom_site_fract_x
 _atom_site_fract_y
 _atom_site_fract_z
 _atom_site_occupancy
  Ti  Ti0  1  0.59789701  0.59789701  0.20630900  1
  Ti  Ti1  1  0.19952800  0.19952800  0.40141600  1
  Ti  Ti2  1  0.80047201  0.80047202  0.59858400  1
  Ti  Ti3  1  0.40210300  0.40210301  0.79369100  1
  Ti  Ti4  1  0.00000000  0.00000000  0.00000000  1
  S  S5  1  0.70389101  0.70389102  0.88832700  1
  S  S6  1  0.50000000  0.50000001  0.50000000  1
  S  S7  1  0.10098000  0.10098000  0.69706000  1
  S  S8  1  0.29610900  0.29610901  0.11167300  1
  S  S9  1  0.89902001  0.89902002  0.30294000  1
