# generated using pymatgen
data_SrBiO3
_symmetry_space_group_name_H-M   'P 1'
_cell_length_a   5.97954130
_cell_length_b   6.14159679
_cell_length_c   8.55320454
_cell_angle_alpha   90.00000000
_cell_angle_beta   90.00836182
_cell_angle_gamma   90.00000000
_symmetry_Int_Tables_number   1
_chemical_formula_structural   SrBiO3
_chemical_formula_sum   'Sr4 Bi4 O12'
_cell_volume   314.10729577
_cell_formula_units_Z   4
loop_
 _symmetry_equiv_pos_site_id
 _symmetry_equiv_pos_as_xyz
  1  'x, y, z'
loop_
 _atom_site_type_symbol
 _atom_site_label
 _atom_site_symmetry_multiplicity
 _atom_site_fract_x
 _atom_site_fract_y
 _atom_site_fract_z
 _atom_site_occupancy
  Sr  Sr0  1  0.01252000  0.45332302  0.25213500  1
  Sr  Sr1  1  0.98748000  0.54667702  0.74786504  1
  Sr  Sr2  1  0.48748000  0.95332303  0.24786502  1
  Sr  Sr3  1  0.51252000  0.04667700  0.75213502  1
  Bi  Bi4  1  0.00000000  0.00000000  0.50000000  1
  Bi  Bi5  1  0.50000000  0.50000002  0.00000002  1
  Bi  Bi6  1  0.00000000  0.00000000  0.00000000  1
  Bi  Bi7  1  0.50000000  0.50000002  0.50000002  1
  O  O8  1  0.90320400  0.03884100  0.24120104  1
  O  O9  1  0.09679600  0.96115903  0.75879900  1
  O  O10  1  0.59679600  0.53884102  0.25879903  1
  O  O11  1  0.40320400  0.46115902  0.74120101  1
  O  O12  1  0.19513700  0.71424702  0.05514301  1
  O  O13  1  0.80486300  0.28575301  0.94485703  1
  O  O14  1  0.30486300  0.21424701  0.44485701  1
  O  O15  1  0.69513700  0.78575303  0.55514303  1
  O  O16  1  0.28916300  0.19709101  0.04787201  1
  O  O17  1  0.71083700  0.80290903  0.95212803  1
  O  O18  1  0.21083700  0.69709102  0.45212801  1
  O  O19  1  0.78916300  0.30290901  0.54787203  1
