# generated using pymatgen
data_Li3BiO4
_symmetry_space_group_name_H-M   'P 1'
_cell_length_a   4.21514797
_cell_length_b   4.21514797
_cell_length_c   5.56395960
_cell_angle_alpha   112.25877380
_cell_angle_beta   112.25877380
_cell_angle_gamma   90.00000000
_symmetry_Int_Tables_number   1
_chemical_formula_structural   Li3BiO4
_chemical_formula_sum   'Li3 Bi1 O4'
_cell_volume   83.47669982
_cell_formula_units_Z   1
loop_
 _symmetry_equiv_pos_site_id
 _symmetry_equiv_pos_as_xyz
  1  'x, y, z'
loop_
 _atom_site_type_symbol
 _atom_site_label
 _atom_site_symmetry_multiplicity
 _atom_site_fract_x
 _atom_site_fract_y
 _atom_site_fract_z
 _atom_site_occupancy
  Li  Li0  1  0.00000000  0.00000000  0.00000000  1
  Li  Li1  1  0.75000002  0.25000001  0.50000003  1
  Li  Li2  1  0.25000003  0.75000002  0.50000003  1
  Bi  Bi3  1  0.50000003  0.50000001  0.00000003  1
  O  O4  1  0.27214901  0.27214901  0.54429802  1
  O  O5  1  0.02214902  0.52214901  0.04429802  1
  O  O6  1  0.72785104  0.72785102  0.45570205  1
  O  O7  1  0.47785104  0.97785102  0.95570205  1
