# generated using pymatgen
data_Na4MnCrO6
_symmetry_space_group_name_H-M   'P 1'
_cell_length_a   4.72754002
_cell_length_b   6.70111275
_cell_length_c   6.70111275
_cell_angle_alpha   82.85230255
_cell_angle_beta   69.34482574
_cell_angle_gamma   69.34482574
_symmetry_Int_Tables_number   1
_chemical_formula_structural   Na4MnCrO6
_chemical_formula_sum   'Na4 Mn1 Cr1 O6'
_cell_volume   185.87507440
_cell_formula_units_Z   1
loop_
 _symmetry_equiv_pos_site_id
 _symmetry_equiv_pos_as_xyz
  1  'x, y, z'
loop_
 _atom_site_type_symbol
 _atom_site_label
 _atom_site_symmetry_multiplicity
 _atom_site_fract_x
 _atom_site_fract_y
 _atom_site_fract_z
 _atom_site_occupancy
  Na  Na0  1  0.82579801  0.67420198  0.67420203  1
  Na  Na1  1  0.50000000  0.32579799  0.67420201  1
  Na  Na2  1  0.50000002  0.67420198  0.32579803  1
  Na  Na3  1  0.17420201  0.32579799  0.32579801  1
  Mn  Mn4  1  0.85127900  0.29744099  0.00000003  1
  Cr  Cr5  1  0.85127999  0.00000000  0.29744002  1
  O  O6  1  0.14872000  0.00000000  0.70255999  1
  O  O7  1  0.14872102  0.70255898  0.00000002  1
  O  O8  1  0.29444902  0.70555098  0.70555102  1
  O  O9  1  0.99999999  0.29444899  0.70555102  1
  O  O10  1  1.00000001  0.70555098  0.29444904  1
  O  O11  1  0.70555100  0.29444899  0.29444902  1
