# generated using pymatgen
data_Sc4Co7Ru
_symmetry_space_group_name_H-M   'P 1'
_cell_length_a   5.05497217
_cell_length_b   5.05497265
_cell_length_c   8.03945637
_cell_angle_alpha   90.00000000
_cell_angle_beta   90.00000000
_cell_angle_gamma   119.99999237
_symmetry_Int_Tables_number   1
_chemical_formula_structural   Sc4Co7Ru
_chemical_formula_sum   'Sc4 Co7 Ru1'
_cell_volume   177.90777440
_cell_formula_units_Z   1
loop_
 _symmetry_equiv_pos_site_id
 _symmetry_equiv_pos_as_xyz
  1  'x, y, z'
loop_
 _atom_site_type_symbol
 _atom_site_label
 _atom_site_symmetry_multiplicity
 _atom_site_fract_x
 _atom_site_fract_y
 _atom_site_fract_z
 _atom_site_occupancy
  Sc  Sc0  1  0.66666662  0.33333333  0.56271097  1
  Sc  Sc1  1  0.33333328  0.66666666  0.43728898  1
  Sc  Sc2  1  0.33333328  0.66666666  0.06271100  1
  Sc  Sc3  1  0.66666662  0.33333333  0.93728896  1
  Co  Co4  1  0.17177997  0.34355999  0.74999997  1
  Co  Co5  1  0.17177995  0.82821899  0.74999997  1
  Co  Co6  1  0.65643893  0.82821899  0.74999997  1
  Co  Co7  1  0.82821993  0.65643999  0.24999999  1
  Co  Co8  1  0.82821996  0.17178100  0.24999999  1
  Co  Co9  1  0.34356098  0.17178100  0.24999999  1
  Ru  Ru10  1  0.00000000  0.00000000  0.49999998  1
  Co  Co11  1  0.00000000  0.00000000  0.00000000  1
