# generated using pymatgen
data_Ba(CN2)2
_symmetry_space_group_name_H-M   'P 1'
_cell_length_a   4.44218302
_cell_length_b   5.52777290
_cell_length_c   9.80652428
_cell_angle_alpha   99.06300354
_cell_angle_beta   90.00000000
_cell_angle_gamma   90.00000000
_symmetry_Int_Tables_number   1
_chemical_formula_structural   Ba(CN2)2
_chemical_formula_sum   'Ba2 C4 N8'
_cell_volume   237.79666965
_cell_formula_units_Z   2
loop_
 _symmetry_equiv_pos_site_id
 _symmetry_equiv_pos_as_xyz
  1  'x, y, z'
loop_
 _atom_site_type_symbol
 _atom_site_label
 _atom_site_symmetry_multiplicity
 _atom_site_fract_x
 _atom_site_fract_y
 _atom_site_fract_z
 _atom_site_occupancy
  Ba  Ba0  1  0.25000000  0.82935502  0.78122801  1
  Ba  Ba1  1  0.75000000  0.17064500  0.21877200  1
  C  C2  1  0.25000000  0.29191001  0.66189301  1
  C  C3  1  0.75000000  0.70809001  0.33810701  1
  C  C4  1  0.75000000  0.14086200  0.90374701  1
  C  C5  1  0.25000000  0.85913802  0.09625301  1
  N  N6  1  0.75000000  0.35104801  0.88999701  1
  N  N7  1  0.25000000  0.64895201  0.11000301  1
  N  N8  1  0.75000000  0.55984401  0.87845801  1
  N  N9  1  0.25000000  0.44015601  0.12154200  1
  N  N10  1  0.75000000  0.77884702  0.58314901  1
  N  N11  1  0.25000000  0.22115300  0.41685100  1
  N  N12  1  0.75000000  0.74354901  0.46054401  1
  N  N13  1  0.25000000  0.25645101  0.53945600  1
