# generated using pymatgen
data_Dy4Ge9
_symmetry_space_group_name_H-M   'P 1'
_cell_length_a   4.40366793
_cell_length_b   4.41091585
_cell_length_c   16.60510254
_cell_angle_alpha   90.00000000
_cell_angle_beta   90.00000000
_cell_angle_gamma   90.00000000
_symmetry_Int_Tables_number   1
_chemical_formula_structural   Dy4Ge9
_chemical_formula_sum   'Dy4 Ge9'
_cell_volume   322.54097660
_cell_formula_units_Z   1
loop_
 _symmetry_equiv_pos_site_id
 _symmetry_equiv_pos_as_xyz
  1  'x, y, z'
loop_
 _atom_site_type_symbol
 _atom_site_label
 _atom_site_symmetry_multiplicity
 _atom_site_fract_x
 _atom_site_fract_y
 _atom_site_fract_z
 _atom_site_occupancy
  Dy  Dy0  1  -0.00000000  0.75000003  0.90150897  1
  Dy  Dy1  1  0.50000001  0.75000003  0.39667699  1
  Dy  Dy2  1  0.50000001  0.25000001  0.60326998  1
  Dy  Dy3  1  0.00000000  0.25000001  0.10069400  1
  Ge  Ge4  1  -0.00000000  0.75000003  0.69161698  1
  Ge  Ge5  1  -0.00000000  0.75000003  0.54466398  1
  Ge  Ge6  1  0.50000001  0.75000003  0.06392900  1
  Ge  Ge7  1  0.50000001  0.25000001  0.93761697  1
  Ge  Ge8  1  0.00000000  0.25000001  0.42587299  1
  Ge  Ge9  1  0.50000001  0.75000003  0.76327298  1
  Ge  Ge10  1  -0.00000000  0.75000003  0.25162199  1
  Ge  Ge11  1  0.00000000  0.25000001  0.76109898  1
  Ge  Ge12  1  0.50000001  0.25000001  0.24715599  1
