# generated using pymatgen
data_NaAg(SeO3)2
_symmetry_space_group_name_H-M   'P 1'
_cell_length_a   4.84373808
_cell_length_b   7.21838522
_cell_length_c   10.24957657
_cell_angle_alpha   90.00000000
_cell_angle_beta   90.00000000
_cell_angle_gamma   108.73955536
_symmetry_Int_Tables_number   1
_chemical_formula_structural   NaAg(SeO3)2
_chemical_formula_sum   'Na2 Ag2 Se4 O12'
_cell_volume   339.36842403
_cell_formula_units_Z   2
loop_
 _symmetry_equiv_pos_site_id
 _symmetry_equiv_pos_as_xyz
  1  'x, y, z'
loop_
 _atom_site_type_symbol
 _atom_site_label
 _atom_site_symmetry_multiplicity
 _atom_site_fract_x
 _atom_site_fract_y
 _atom_site_fract_z
 _atom_site_occupancy
  Na  Na0  1  0.75401896  0.47666798  0.66666669  1
  Na  Na1  1  0.24598096  0.52333198  0.33333335  1
  Ag  Ag2  1  0.75401893  0.97666796  0.83335104  1
  Ag  Ag3  1  0.24598099  0.02333200  0.16664901  1
  Se  Se4  1  0.30949797  0.34902398  0.92954704  1
  Se  Se5  1  0.69050198  0.15097599  0.42954702  1
  Se  Se6  1  0.30949794  0.84902396  0.57045302  1
  Se  Se7  1  0.69050195  0.65097597  0.07045300  1
  O  O8  1  0.69663093  0.90465496  0.08446500  1
  O  O9  1  0.30336899  0.09534500  0.91553504  1
  O  O10  1  0.98358993  0.83686796  0.65374403  1
  O  O11  1  0.38289597  0.40486998  0.11532600  1
  O  O12  1  0.61710398  0.09513000  0.61532603  1
  O  O13  1  0.61710395  0.59512997  0.88467404  1
  O  O14  1  0.01640999  0.16313199  0.34625601  1
  O  O15  1  0.69663096  0.40465498  0.41553502  1
  O  O16  1  0.38289594  0.90486996  0.38467402  1
  O  O17  1  0.98358996  0.33686798  0.84625604  1
  O  O18  1  0.30336896  0.59534497  0.58446502  1
  O  O19  1  0.01640996  0.66313197  0.15374401  1
