# generated using pymatgen
data_Y9Ag4
_symmetry_space_group_name_H-M   'P 1'
_cell_length_a   5.24386406
_cell_length_b   9.00219822
_cell_length_c   9.00219822
_cell_angle_alpha   85.13378906
_cell_angle_beta   73.06691742
_cell_angle_gamma   73.06691742
_symmetry_Int_Tables_number   1
_chemical_formula_structural   Y9Ag4
_chemical_formula_sum   'Y9 Ag4'
_cell_volume   388.91142344
_cell_formula_units_Z   1
loop_
 _symmetry_equiv_pos_site_id
 _symmetry_equiv_pos_as_xyz
  1  'x, y, z'
loop_
 _atom_site_type_symbol
 _atom_site_label
 _atom_site_symmetry_multiplicity
 _atom_site_fract_x
 _atom_site_fract_y
 _atom_site_fract_z
 _atom_site_occupancy
  Y  Y0  1  0.49999999  0.00000000  0.00000001  1
  Y  Y1  1  0.40372204  0.47091299  0.72164296  1
  Y  Y2  1  0.59627804  0.52908699  0.27835697  1
  Y  Y3  1  0.87463606  0.72164198  0.52908695  1
  Y  Y4  1  0.12536403  0.27835799  0.47091297  1
  Y  Y5  1  0.11002007  0.70497598  0.07498394  1
  Y  Y6  1  0.88998001  0.29502399  0.92501598  1
  Y  Y7  1  0.81499599  0.07498400  0.29502401  1
  Y  Y8  1  0.18500409  0.92501598  0.70497592  1
  Ag  Ag9  1  0.26672003  0.34611799  0.12044298  1
  Ag  Ag10  1  0.73328005  0.65388199  0.87955695  1
  Ag  Ag11  1  0.61283800  0.12044300  0.65388100  1
  Ag  Ag12  1  0.38716208  0.87955698  0.34611893  1
