# generated using pymatgen
data_Dy4Mn3Si4Ir
_symmetry_space_group_name_H-M   'P 1'
_cell_length_a   4.19746494
_cell_length_b   6.94098377
_cell_length_c   7.18721104
_cell_angle_alpha   90.00000000
_cell_angle_beta   90.00000000
_cell_angle_gamma   90.00000000
_symmetry_Int_Tables_number   1
_chemical_formula_structural   Dy4Mn3Si4Ir
_chemical_formula_sum   'Dy4 Mn3 Si4 Ir1'
_cell_volume   209.39605907
_cell_formula_units_Z   1
loop_
 _symmetry_equiv_pos_site_id
 _symmetry_equiv_pos_as_xyz
  1  'x, y, z'
loop_
 _atom_site_type_symbol
 _atom_site_label
 _atom_site_symmetry_multiplicity
 _atom_site_fract_x
 _atom_site_fract_y
 _atom_site_fract_z
 _atom_site_occupancy
  Dy  Dy0  1  0.25000000  0.48746802  0.19572400  1
  Dy  Dy1  1  0.75000001  0.51253202  0.80427600  1
  Dy  Dy2  1  0.75000001  0.01253200  0.69572400  1
  Dy  Dy3  1  0.25000000  0.98746803  0.30427600  1
  Si  Si4  1  0.25000000  0.80356803  0.90353700  1
  Mn  Mn5  1  0.75000001  0.19643201  0.09646300  1
  Mn  Mn6  1  0.75000001  0.69643202  0.40353700  1
  Mn  Mn7  1  0.25000000  0.30356801  0.59646300  1
  Si  Si8  1  0.25000000  0.65916902  0.57540900  1
  Si  Si9  1  0.75000001  0.34083101  0.42459100  1
  Si  Si10  1  0.75000001  0.84083103  0.07540900  1
  Ir  Ir11  1  0.25000000  0.15916901  0.92459100  1
