# generated using pymatgen
data_La(Ni3Sn)2
_symmetry_space_group_name_H-M   'P 1'
_cell_length_a   5.37619781
_cell_length_b   5.37619781
_cell_length_c   13.54660797
_cell_angle_alpha   78.55464172
_cell_angle_beta   78.55464172
_cell_angle_gamma   60.00000000
_symmetry_Int_Tables_number   1
_chemical_formula_structural   La(Ni3Sn)2
_chemical_formula_sum   'La2 Ni12 Sn4'
_cell_volume   330.06619437
_cell_formula_units_Z   2
loop_
 _symmetry_equiv_pos_site_id
 _symmetry_equiv_pos_as_xyz
  1  'x, y, z'
loop_
 _atom_site_type_symbol
 _atom_site_label
 _atom_site_symmetry_multiplicity
 _atom_site_fract_x
 _atom_site_fract_y
 _atom_site_fract_z
 _atom_site_occupancy
  La  La0  1  0.94943299  0.94943303  0.15170103  1
  La  La1  1  0.05056700  0.05056700  0.84829898  1
  Ni  Ni2  1  0.85200499  0.85200502  0.44398501  1
  Ni  Ni3  1  0.14799500  0.14799500  0.55601499  1
  Ni  Ni4  1  0.50000000  0.50000001  0.50000000  1
  Ni  Ni5  1  0.72238999  0.72239002  0.83283000  1
  Ni  Ni6  1  0.27761000  0.27761001  0.16717000  1
  Ni  Ni7  1  0.61149400  0.61149402  0.16551801  1
  Ni  Ni8  1  0.38850600  0.38850601  0.83448199  1
  Ni  Ni9  1  0.50000000  0.50000001  0.00000002  1
  Ni  Ni10  1  0.49999998  1.00000003  0.00000002  1
  Ni  Ni11  1  -0.00000001  0.50000001  0.00000001  1
  Sn  Sn12  1  0.88899301  0.39132201  0.32836301  1
  Sn  Sn13  1  0.39132200  0.39132201  0.32836300  1
  Sn  Sn14  1  0.39132199  0.88899303  0.32836301  1
  Ni  Ni15  1  0.11100699  0.60867802  0.67163699  1
  Ni  Ni16  1  0.60867800  0.60867802  0.67163700  1
  Sn  Sn17  1  0.60867801  0.11100700  0.67163699  1
