# generated using pymatgen
data_Rb2PO6
_symmetry_space_group_name_H-M   'P 1'
_cell_length_a   6.55381393
_cell_length_b   6.55381393
_cell_length_c   7.43011904
_cell_angle_alpha   90.00000000
_cell_angle_beta   90.00000000
_cell_angle_gamma   90.00000000
_symmetry_Int_Tables_number   1
_chemical_formula_structural   Rb2PO6
_chemical_formula_sum   'Rb4 P2 O12'
_cell_volume   319.14201771
_cell_formula_units_Z   2
loop_
 _symmetry_equiv_pos_site_id
 _symmetry_equiv_pos_as_xyz
  1  'x, y, z'
loop_
 _atom_site_type_symbol
 _atom_site_label
 _atom_site_symmetry_multiplicity
 _atom_site_fract_x
 _atom_site_fract_y
 _atom_site_fract_z
 _atom_site_occupancy
  Rb  Rb0  1  0.00000000  0.00000000  0.50000000  1
  Rb  Rb1  1  0.50000001  0.50000001  0.50000000  1
  Rb  Rb2  1  0.50000001  0.00000000  0.09527300  1
  Rb  Rb3  1  0.00000000  0.50000001  0.90472700  1
  P  P4  1  0.50000001  0.50000001  0.00000000  1
  P  P5  1  0.00000000  0.00000000  0.00000000  1
  O  O6  1  0.00000000  0.50000001  0.55495500  1
  O  O7  1  0.50000001  0.00000000  0.44504500  1
  O  O8  1  0.50000001  0.31372700  0.12844300  1
  O  O9  1  0.00000000  0.81372701  0.87155700  1
  O  O10  1  0.68627301  0.50000001  0.87155700  1
  O  O11  1  0.00000000  0.50000001  0.13377000  1
  O  O12  1  0.81372701  0.00000000  0.12844300  1
  O  O13  1  0.18627300  0.00000000  0.12844300  1
  O  O14  1  0.00000000  0.18627300  0.87155700  1
  O  O15  1  0.31372700  0.50000001  0.87155700  1
  O  O16  1  0.50000001  0.00000000  0.86623000  1
  O  O17  1  0.50000001  0.68627301  0.12844300  1
