# generated using pymatgen
data_Na2CuF4
_symmetry_space_group_name_H-M   'P 1'
_cell_length_a   5.64112377
_cell_length_b   5.64382601
_cell_length_c   6.98165989
_cell_angle_alpha   113.84033966
_cell_angle_beta   90.00000000
_cell_angle_gamma   90.00000000
_symmetry_Int_Tables_number   1
_chemical_formula_structural   Na2CuF4
_chemical_formula_sum   'Na4 Cu2 F8'
_cell_volume   203.31288128
_cell_formula_units_Z   2
loop_
 _symmetry_equiv_pos_site_id
 _symmetry_equiv_pos_as_xyz
  1  'x, y, z'
loop_
 _atom_site_type_symbol
 _atom_site_label
 _atom_site_symmetry_multiplicity
 _atom_site_fract_x
 _atom_site_fract_y
 _atom_site_fract_z
 _atom_site_occupancy
  Na  Na0  1  1.00000004  0.35198700  0.70397400  1
  Na  Na1  1  0.50000002  0.85415799  0.70831599  1
  Na  Na2  1  0.50000002  0.14584200  0.29168400  1
  Na  Na3  1  1.00000004  0.64801299  0.29602599  1
  Cu  Cu4  1  0.50000002  0.49999999  -0.00000001  1
  Cu  Cu5  1  0.00000000  0.00000000  0.00000000  1
  F  F6  1  0.25313701  0.25213700  -0.00000001  1
  F  F7  1  0.74686303  0.74786299  -0.00000002  1
  F  F8  1  0.25313701  0.74786299  -0.00000002  1
  F  F9  1  0.74686303  0.25213700  -0.00000001  1
  F  F10  1  1.00000004  0.16195200  0.32390400  1
  F  F11  1  0.50000002  0.66013599  0.32027199  1
  F  F12  1  0.50000002  0.33986400  0.67972800  1
  F  F13  1  -0.00000000  0.83804799  0.67609599  1
