# generated using pymatgen
data_LiCuO3
_symmetry_space_group_name_H-M   'P 1'
_cell_length_a   3.60871196
_cell_length_b   5.18778086
_cell_length_c   6.22719193
_cell_angle_alpha   84.21596527
_cell_angle_beta   73.15675354
_cell_angle_gamma   69.64664459
_symmetry_Int_Tables_number   1
_chemical_formula_structural   LiCuO3
_chemical_formula_sum   'Li2 Cu2 O6'
_cell_volume   104.61295930
_cell_formula_units_Z   2
loop_
 _symmetry_equiv_pos_site_id
 _symmetry_equiv_pos_as_xyz
  1  'x, y, z'
loop_
 _atom_site_type_symbol
 _atom_site_label
 _atom_site_symmetry_multiplicity
 _atom_site_fract_x
 _atom_site_fract_y
 _atom_site_fract_z
 _atom_site_occupancy
  Li  Li0  1  0.40696992  0.76972798  0.40583907  1
  Li  Li1  1  0.56280997  0.26972699  0.09416104  1
  Cu  Cu2  1  0.92669892  0.73027198  0.90583809  1
  Cu  Cu3  1  0.58253597  0.23027300  0.59416205  1
  O  O4  1  0.17740295  0.49999999  0.50000004  1
  O  O5  1  0.68673999  0.03217700  0.33722103  1
  O  O6  1  0.77396094  0.53217699  0.16277906  1
  O  O7  1  0.42740300  0.00000000  0.00000002  1
  O  O8  1  0.46891695  0.46782299  0.83722106  1
  O  O9  1  0.05613790  0.96782298  0.66277907  1
