# generated using pymatgen
data_SrMn(WO3)2
_symmetry_space_group_name_H-M   'P 1'
_cell_length_a   5.47914171
_cell_length_b   5.51505327
_cell_length_c   7.81878424
_cell_angle_alpha   89.99914551
_cell_angle_beta   89.41474152
_cell_angle_gamma   89.94291687
_symmetry_Int_Tables_number   1
_chemical_formula_structural   SrMn(WO3)2
_chemical_formula_sum   'Sr2 Mn2 W4 O12'
_cell_volume   236.25369015
_cell_formula_units_Z   2
loop_
 _symmetry_equiv_pos_site_id
 _symmetry_equiv_pos_as_xyz
  1  'x, y, z'
loop_
 _atom_site_type_symbol
 _atom_site_label
 _atom_site_symmetry_multiplicity
 _atom_site_fract_x
 _atom_site_fract_y
 _atom_site_fract_z
 _atom_site_occupancy
  Sr  Sr0  1  0.50007000  0.99987600  0.75003595  1
  Sr  Sr1  1  0.00000301  0.50096700  0.25003597  1
  Mn  Mn2  1  0.50000600  0.99703300  0.24995696  1
  Mn  Mn3  1  0.99988398  0.50286500  0.74993998  1
  W  W4  1  0.00041500  0.00026100  0.49835099  1
  W  W5  1  0.49974799  0.50011500  0.00163399  1
  W  W6  1  0.99958897  0.00024100  0.00169902  1
  W  W7  1  0.50033799  0.50017700  0.49844197  1
  O  O8  1  0.22566301  0.72569800  0.48742896  1
  O  O9  1  0.73512898  0.23495700  0.97495498  1
  O  O10  1  0.26482800  0.23499600  0.52489498  1
  O  O11  1  0.77423999  0.72580300  0.01242698  1
  O  O12  1  0.99996397  0.03730000  0.24999301  1
  O  O13  1  0.49992699  0.53511000  0.75000697  1
  O  O14  1  0.73098299  0.76895900  0.48409097  1
  O  O15  1  0.22540400  0.27458900  0.97394597  1
  O  O16  1  0.00005202  0.95643500  0.75000494  1
  O  O17  1  0.50002799  0.46096900  0.25000298  1
  O  O18  1  0.77465198  0.27461600  0.52609899  1
  O  O19  1  0.26907600  0.76903600  0.01605397  1
