# generated using pymatgen
data_DyFeO3
_symmetry_space_group_name_H-M   'P 1'
_cell_length_a   5.27961397
_cell_length_b   5.76799488
_cell_length_c   7.64664221
_cell_angle_alpha   90.00000000
_cell_angle_beta   90.00000000
_cell_angle_gamma   90.00000000
_symmetry_Int_Tables_number   1
_chemical_formula_structural   DyFeO3
_chemical_formula_sum   'Dy4 Fe4 O12'
_cell_volume   232.86156154
_cell_formula_units_Z   4
loop_
 _symmetry_equiv_pos_site_id
 _symmetry_equiv_pos_as_xyz
  1  'x, y, z'
loop_
 _atom_site_type_symbol
 _atom_site_label
 _atom_site_symmetry_multiplicity
 _atom_site_fract_x
 _atom_site_fract_y
 _atom_site_fract_z
 _atom_site_occupancy
  Dy  Dy0  1  0.02944400  0.41643901  0.24999999  1
  Dy  Dy1  1  0.97055601  0.58356101  0.74999998  1
  Dy  Dy2  1  0.52944400  0.08356100  0.74999998  1
  Dy  Dy3  1  0.47055600  0.91643902  0.24999999  1
  Fe  Fe4  1  0.00000000  0.00000000  0.00000000  1
  Fe  Fe5  1  0.50000000  0.50000001  0.00000000  1
  Fe  Fe6  1  0.00000000  0.00000000  0.49999999  1
  Fe  Fe7  1  0.50000000  0.50000001  0.49999999  1
  O  O8  1  0.32261000  0.18950500  0.06575200  1
  O  O9  1  0.67739000  0.81049502  0.93424797  1
  O  O10  1  0.82261000  0.31049501  0.93424797  1
  O  O11  1  0.67739000  0.81049502  0.56575198  1
  O  O12  1  0.17739000  0.68950501  0.06575200  1
  O  O13  1  0.32261000  0.18950500  0.43424799  1
  O  O14  1  0.17739000  0.68950501  0.43424799  1
  O  O15  1  0.82261000  0.31049501  0.56575198  1
  O  O16  1  0.63870400  0.55572601  0.24999999  1
  O  O17  1  0.36129600  0.44427401  0.74999998  1
  O  O18  1  0.13870400  0.94427402  0.74999998  1
  O  O19  1  0.86129600  0.05572600  0.24999999  1
