# generated using pymatgen
data_CeGe3Ir
_symmetry_space_group_name_H-M   'P 1'
_cell_length_a   4.52375793
_cell_length_b   4.52375793
_cell_length_c   6.02670717
_cell_angle_alpha   112.04342651
_cell_angle_beta   112.04342651
_cell_angle_gamma   90.00000000
_symmetry_Int_Tables_number   1
_chemical_formula_structural   CeGe3Ir
_chemical_formula_sum   'Ce1 Ge3 Ir1'
_cell_volume   104.52676156
_cell_formula_units_Z   1
loop_
 _symmetry_equiv_pos_site_id
 _symmetry_equiv_pos_as_xyz
  1  'x, y, z'
loop_
 _atom_site_type_symbol
 _atom_site_label
 _atom_site_symmetry_multiplicity
 _atom_site_fract_x
 _atom_site_fract_y
 _atom_site_fract_z
 _atom_site_occupancy
  Ce  Ce0  1  0.00024500  0.00024500  0.00049000  1
  Ge  Ge1  1  0.25313799  0.75313800  0.50627599  1
  Ge  Ge2  1  0.75313800  0.25313800  0.50627600  1
  Ge  Ge3  1  0.41260800  0.41260800  0.82521600  1
  Ir  Ir4  1  0.64986999  0.64987000  0.29973998  1
