# generated using pymatgen
data_Dy4Ge13Ir3
_symmetry_space_group_name_H-M   'P 1'
_cell_length_a   5.90121031
_cell_length_b   8.33572960
_cell_length_c   8.33572960
_cell_angle_alpha   92.60070038
_cell_angle_beta   109.29474640
_cell_angle_gamma   109.29474640
_symmetry_Int_Tables_number   1
_chemical_formula_structural   Dy4Ge13Ir3
_chemical_formula_sum   'Dy4 Ge13 Ir3'
_cell_volume   359.73271135
_cell_formula_units_Z   1
loop_
 _symmetry_equiv_pos_site_id
 _symmetry_equiv_pos_as_xyz
  1  'x, y, z'
loop_
 _atom_site_type_symbol
 _atom_site_label
 _atom_site_symmetry_multiplicity
 _atom_site_fract_x
 _atom_site_fract_y
 _atom_site_fract_z
 _atom_site_occupancy
  Dy  Dy0  1  0.23260596  0.59134599  0.86576996  1
  Dy  Dy1  1  0.26739399  0.13423000  0.40865399  1
  Dy  Dy2  1  0.76739397  0.40865399  0.13422997  1
  Dy  Dy3  1  0.73260594  0.86576999  0.59134594  1
  Ge  Ge4  1  0.16706298  0.26296000  0.07202898  1
  Ge  Ge5  1  0.33293694  0.92797099  0.73703994  1
  Ge  Ge6  1  0.83293695  0.73703999  0.92797095  1
  Ge  Ge7  1  0.66706299  0.07202900  0.26295999  1
  Ge  Ge8  1  0.24999995  0.78780499  0.21219495  1
  Ge  Ge9  1  0.74999998  0.21219500  0.78780498  1
  Ge  Ge10  1  0.24999997  0.49208599  0.50791397  1
  Ge  Ge11  1  0.74999996  0.50791399  0.49208596  1
  Ge  Ge12  1  0.24999998  0.22178600  0.77821399  1
  Ir  Ir13  1  0.74999995  0.77821399  0.22178594  1
  Ge  Ge14  1  0.38173296  0.53993699  0.25298996  1
  Ge  Ge15  1  0.11826695  0.74700999  0.46006295  1
  Ir  Ir16  1  0.61826697  0.46006299  0.74700997  1
  Ir  Ir17  1  0.88173298  0.25299000  0.53993698  1
  Ge  Ge18  1  0.24999994  0.99800999  0.00198993  1
  Ge  Ge19  1  0.75000000  0.00199000  0.99801000  1
