# generated using pymatgen
data_Ce2Si3
_symmetry_space_group_name_H-M   'P 1'
_cell_length_a   3.86805296
_cell_length_b   4.04611015
_cell_length_c   7.70226955
_cell_angle_alpha   105.22777557
_cell_angle_beta   90.00000000
_cell_angle_gamma   90.00000000
_symmetry_Int_Tables_number   1
_chemical_formula_structural   Ce2Si3
_chemical_formula_sum   'Ce2 Si3'
_cell_volume   116.31247782
_cell_formula_units_Z   1
loop_
 _symmetry_equiv_pos_site_id
 _symmetry_equiv_pos_as_xyz
  1  'x, y, z'
loop_
 _atom_site_type_symbol
 _atom_site_label
 _atom_site_symmetry_multiplicity
 _atom_site_fract_x
 _atom_site_fract_y
 _atom_site_fract_z
 _atom_site_occupancy
  Ce  Ce0  1  0.50000001  0.36216698  0.72433397  1
  Ce  Ce1  1  0.50000001  0.63783297  0.27566598  1
  Si  Si2  1  0.00000000  0.00000000  0.00000000  1
  Si  Si3  1  0.00000000  0.20256399  0.40512798  1
  Si  Si4  1  0.00000000  0.79743596  0.59487196  1
