# generated using pymatgen
data_Y3AlSi12W
_symmetry_space_group_name_H-M   'P 1'
_cell_length_a   6.99101782
_cell_length_b   6.99101782
_cell_length_c   6.99101782
_cell_angle_alpha   109.47122192
_cell_angle_beta   109.47122192
_cell_angle_gamma   109.47122192
_symmetry_Int_Tables_number   1
_chemical_formula_structural   Y3AlSi12W
_chemical_formula_sum   'Y3 Al1 Si12 W1'
_cell_volume   263.02638472
_cell_formula_units_Z   1
loop_
 _symmetry_equiv_pos_site_id
 _symmetry_equiv_pos_as_xyz
  1  'x, y, z'
loop_
 _atom_site_type_symbol
 _atom_site_label
 _atom_site_symmetry_multiplicity
 _atom_site_fract_x
 _atom_site_fract_y
 _atom_site_fract_z
 _atom_site_occupancy
  Y  Y0  1  0.50000003  0.50000002  0.50000004  1
  Y  Y1  1  0.00000003  0.50000002  0.00000003  1
  Y  Y2  1  0.00000000  0.00000000  0.50000000  1
  Al  Al3  1  0.50000000  0.00000000  0.00000001  1
  Si  Si4  1  0.00000004  0.68265002  0.68265003  1
  Si  Si5  1  0.68265005  0.68265002  0.00000005  1
  Si  Si6  1  0.68265000  0.00000000  0.68265001  1
  Si  Si7  1  0.00000002  0.31735001  0.31735002  1
  Si  Si8  1  0.31735002  0.31735001  0.00000003  1
  Si  Si9  1  0.31735000  0.00000000  0.31735001  1
  Si  Si10  1  0.50000005  0.75000003  0.25000005  1
  Si  Si11  1  0.75000002  0.25000001  0.50000003  1
  Si  Si12  1  0.25000003  0.50000002  0.75000003  1
  Si  Si13  1  0.25000005  0.75000003  0.50000004  1
  Si  Si14  1  0.50000002  0.25000001  0.75000002  1
  Si  Si15  1  0.75000003  0.50000002  0.25000004  1
  W  W16  1  0.00000000  0.00000000  0.00000000  1
