# generated using pymatgen
data_Dy4AlCo5Si6
_symmetry_space_group_name_H-M   'P 1'
_cell_length_a   4.11137199
_cell_length_b   5.63668871
_cell_length_c   13.58574390
_cell_angle_alpha   90.00000000
_cell_angle_beta   90.00000000
_cell_angle_gamma   111.38896179
_symmetry_Int_Tables_number   1
_chemical_formula_structural   Dy4AlCo5Si6
_chemical_formula_sum   'Dy4 Al1 Co5 Si6'
_cell_volume   293.15867177
_cell_formula_units_Z   1
loop_
 _symmetry_equiv_pos_site_id
 _symmetry_equiv_pos_as_xyz
  1  'x, y, z'
loop_
 _atom_site_type_symbol
 _atom_site_label
 _atom_site_symmetry_multiplicity
 _atom_site_fract_x
 _atom_site_fract_y
 _atom_site_fract_z
 _atom_site_occupancy
  Dy  Dy0  1  0.35852896  0.71705801  0.75000001  1
  Dy  Dy1  1  0.64147099  0.28294200  0.25000000  1
  Dy  Dy2  1  0.07964899  0.15929800  0.88779901  1
  Dy  Dy3  1  0.92035096  0.84070201  0.11220100  1
  Al  Al4  1  0.92035096  0.84070201  0.38779900  1
  Co  Co5  1  0.07964899  0.15929800  0.61220100  1
  Co  Co6  1  0.21500598  0.43001201  0.41699400  1
  Co  Co7  1  0.78499397  0.56998701  0.58300600  1
  Co  Co8  1  0.78499397  0.56998701  0.91699401  1
  Co  Co9  1  0.21500598  0.43001201  0.08300600  1
  Si  Si10  1  0.66666665  0.33333334  0.75000001  1
  Si  Si11  1  0.33333330  0.66666668  0.25000000  1
  Si  Si12  1  0.37768796  0.75537601  0.95918101  1
  Si  Si13  1  0.62231199  0.24462400  0.04081900  1
  Si  Si14  1  0.62231199  0.24462400  0.45918100  1
  Si  Si15  1  0.37768796  0.75537601  0.54081900  1
