# generated using pymatgen
data_NdSmCo17
_symmetry_space_group_name_H-M   'P 1'
_cell_length_a   6.27319527
_cell_length_b   6.27319527
_cell_length_c   6.27319527
_cell_angle_alpha   82.88500977
_cell_angle_beta   82.88500977
_cell_angle_gamma   82.88500214
_symmetry_Int_Tables_number   1
_chemical_formula_structural   NdSmCo17
_chemical_formula_sum   'Nd1 Sm1 Co17'
_cell_volume   241.60077708
_cell_formula_units_Z   1
loop_
 _symmetry_equiv_pos_site_id
 _symmetry_equiv_pos_as_xyz
  1  'x, y, z'
loop_
 _atom_site_type_symbol
 _atom_site_label
 _atom_site_symmetry_multiplicity
 _atom_site_fract_x
 _atom_site_fract_y
 _atom_site_fract_z
 _atom_site_occupancy
  Sm  Sm0  1  0.34389599  0.34389601  0.34389597  1
  Nd  Nd1  1  0.65610398  0.65610401  0.65610393  1
  Co  Co2  1  0.00000000  0.00000000  0.49999999  1
  Co  Co3  1  0.49999996  1.00000002  0.99999992  1
  Co  Co4  1  -0.00000002  0.50000001  -0.00000002  1
  Co  Co5  1  0.28849997  0.71150001  0.99999994  1
  Co  Co6  1  -0.00000001  0.28850000  0.71149997  1
  Co  Co7  1  0.71149997  1.00000002  0.28849993  1
  Co  Co8  1  -0.00000003  0.71150001  0.28849997  1
  Co  Co9  1  0.28850000  0.00000000  0.71149997  1
  Co  Co10  1  0.71150000  0.28850000  -0.00000004  1
  Co  Co11  1  0.65403498  0.65403501  0.15042094  1
  Co  Co12  1  0.15042097  0.65403501  0.65403496  1
  Co  Co13  1  0.65403500  0.15042100  0.65403495  1
  Co  Co14  1  0.34596499  0.34596501  0.84957896  1
  Co  Co15  1  0.84957900  0.34596501  0.34596494  1
  Co  Co16  1  0.34596497  0.84957901  0.34596495  1
  Co  Co17  1  0.09674100  0.09674100  0.09674099  1
  Co  Co18  1  0.90325897  0.90325902  0.90325891  1
