# generated using pymatgen
data_LaInAu
_symmetry_space_group_name_H-M   'P 1'
_cell_length_a   4.36336708
_cell_length_b   7.88576984
_cell_length_c   7.88576984
_cell_angle_alpha   120.00000000
_cell_angle_beta   90.00000000
_cell_angle_gamma   90.00000000
_symmetry_Int_Tables_number   1
_chemical_formula_structural   LaInAu
_chemical_formula_sum   'La3 In3 Au3'
_cell_volume   234.98523646
_cell_formula_units_Z   3
loop_
 _symmetry_equiv_pos_site_id
 _symmetry_equiv_pos_as_xyz
  1  'x, y, z'
loop_
 _atom_site_type_symbol
 _atom_site_label
 _atom_site_symmetry_multiplicity
 _atom_site_fract_x
 _atom_site_fract_y
 _atom_site_fract_z
 _atom_site_occupancy
  La  La0  1  0.49999999  0.58400101  0.58400100  1
  La  La1  1  0.49999999  0.00000000  0.41599900  1
  La  La2  1  0.49999999  0.41599901  1.00000000  1
  In  In3  1  -0.00000000  0.23994800  0.23994800  1
  In  In4  1  -0.00000000  0.00000000  0.76005200  1
  In  In5  1  0.99999998  0.76005201  1.00000000  1
  Au  Au6  1  0.99999998  0.66666668  0.33333333  1
  Au  Au7  1  -0.00000000  0.33333334  0.66666667  1
  Au  Au8  1  0.49999999  0.00000000  -0.00000000  1
