# generated using pymatgen
data_MnO3
_symmetry_space_group_name_H-M   'P 1'
_cell_length_a   4.86993694
_cell_length_b   4.86993694
_cell_length_c   9.03137112
_cell_angle_alpha   90.00000000
_cell_angle_beta   90.00000000
_cell_angle_gamma   90.00000000
_symmetry_Int_Tables_number   1
_chemical_formula_structural   MnO3
_chemical_formula_sum   'Mn4 O12'
_cell_volume   214.19057883
_cell_formula_units_Z   4
loop_
 _symmetry_equiv_pos_site_id
 _symmetry_equiv_pos_as_xyz
  1  'x, y, z'
loop_
 _atom_site_type_symbol
 _atom_site_label
 _atom_site_symmetry_multiplicity
 _atom_site_fract_x
 _atom_site_fract_y
 _atom_site_fract_z
 _atom_site_occupancy
  Mn  Mn0  1  0.50000001  0.50000001  0.32780100  1
  Mn  Mn1  1  0.50000001  0.50000001  0.67219899  1
  Mn  Mn2  1  0.00000000  0.00000000  0.17219900  1
  Mn  Mn3  1  0.00000000  0.00000000  0.82780099  1
  O  O4  1  0.68148101  0.31851900  0.49999999  1
  O  O5  1  0.71171401  0.28828600  0.82032399  1
  O  O6  1  0.71171401  0.28828600  0.17967600  1
  O  O7  1  0.78828601  0.78828601  0.67967599  1
  O  O8  1  0.78828601  0.78828601  0.32032400  1
  O  O9  1  0.81851901  0.81851901  0.00000000  1
  O  O10  1  0.18148100  0.18148100  0.00000000  1
  O  O11  1  0.21171400  0.21171400  0.32032400  1
  O  O12  1  0.21171400  0.21171400  0.67967599  1
  O  O13  1  0.28828600  0.71171401  0.17967600  1
  O  O14  1  0.28828600  0.71171401  0.82032399  1
  O  O15  1  0.31851900  0.68148101  0.49999999  1
