# generated using pymatgen
data_Sb3Ru
_symmetry_space_group_name_H-M   'P 1'
_cell_length_a   4.60202169
_cell_length_b   4.60202169
_cell_length_c   7.89923668
_cell_angle_alpha   73.06447601
_cell_angle_beta   73.06447601
_cell_angle_gamma   60.00000381
_symmetry_Int_Tables_number   1
_chemical_formula_structural   Sb3Ru
_chemical_formula_sum   'Sb3 Ru1'
_cell_volume   136.43986646
_cell_formula_units_Z   1
loop_
 _symmetry_equiv_pos_site_id
 _symmetry_equiv_pos_as_xyz
  1  'x, y, z'
loop_
 _atom_site_type_symbol
 _atom_site_label
 _atom_site_symmetry_multiplicity
 _atom_site_fract_x
 _atom_site_fract_y
 _atom_site_fract_z
 _atom_site_occupancy
  Sb  Sb0  1  0.49895099  0.49895100  0.50314698  1
  Sb  Sb1  1  0.00080300  0.00080300  0.99759102  1
  Sb  Sb2  1  0.12923200  0.12923200  0.61230400  1
  Ru  Ru3  1  0.62101399  0.62101400  0.13695796  1
