# generated using pymatgen
data_NaLiCuF4
_symmetry_space_group_name_H-M   'P 1'
_cell_length_a   3.27534604
_cell_length_b   5.68786669
_cell_length_c   10.84274864
_cell_angle_alpha   90.00000000
_cell_angle_beta   90.00000000
_cell_angle_gamma   106.73370361
_symmetry_Int_Tables_number   1
_chemical_formula_structural   NaLiCuF4
_chemical_formula_sum   'Na2 Li2 Cu2 F8'
_cell_volume   193.44356845
_cell_formula_units_Z   2
loop_
 _symmetry_equiv_pos_site_id
 _symmetry_equiv_pos_as_xyz
  1  'x, y, z'
loop_
 _atom_site_type_symbol
 _atom_site_label
 _atom_site_symmetry_multiplicity
 _atom_site_fract_x
 _atom_site_fract_y
 _atom_site_fract_z
 _atom_site_occupancy
  Na  Na0  1  0.11148798  0.22297599  0.75000002  1
  Na  Na1  1  0.88851191  0.77702396  0.25000001  1
  Li  Li2  1  0.36745192  0.73490396  0.57383102  1
  Li  Li3  1  0.36745192  0.73490396  0.92616903  1
  Cu  Cu4  1  0.63254797  0.26509599  0.42616901  1
  Cu  Cu5  1  0.63254797  0.26509599  0.07383100  1
  F  F6  1  0.00000000  0.00000000  0.00000000  1
  F  F7  1  0.00000000  0.00000000  0.50000002  1
  F  F8  1  0.46375990  0.92751996  0.75000002  1
  F  F9  1  0.26521994  0.53043997  0.38796101  1
  F  F10  1  0.26521994  0.53043997  0.11203900  1
  F  F11  1  0.53623999  0.07248000  0.25000001  1
  F  F12  1  0.73477994  0.46955998  0.61203902  1
  F  F13  1  0.73477994  0.46955998  0.88796103  1
