# generated using pymatgen
data_CeCo5
_symmetry_space_group_name_H-M   'P 1'
_cell_length_a   3.88576007
_cell_length_b   5.08980179
_cell_length_c   5.08980227
_cell_angle_alpha   60.00000000
_cell_angle_beta   90.00000000
_cell_angle_gamma   90.00000000
_symmetry_Int_Tables_number   1
_chemical_formula_structural   CeCo5
_chemical_formula_sum   'Ce1 Co5'
_cell_volume   87.17829949
_cell_formula_units_Z   1
loop_
 _symmetry_equiv_pos_site_id
 _symmetry_equiv_pos_as_xyz
  1  'x, y, z'
loop_
 _atom_site_type_symbol
 _atom_site_label
 _atom_site_symmetry_multiplicity
 _atom_site_fract_x
 _atom_site_fract_y
 _atom_site_fract_z
 _atom_site_occupancy
  Ce  Ce0  1  0.00000000  0.33333335  0.33333332  1
  Co  Co1  1  0.00000000  0.00000000  0.00000000  1
  Co  Co2  1  0.00000000  0.66666670  0.66666664  1
  Co  Co3  1  0.49999999  0.83065504  0.33868998  1
  Co  Co4  1  0.49999999  0.33868902  0.83065597  1
  Co  Co5  1  0.49999999  0.83065504  0.83065597  1
