# generated using pymatgen
data_Mg5Ag9
_symmetry_space_group_name_H-M   'P 1'
_cell_length_a   3.15855002
_cell_length_b   10.34605122
_cell_length_c   10.34605122
_cell_angle_alpha   90.00000000
_cell_angle_beta   90.00000000
_cell_angle_gamma   90.00000000
_symmetry_Int_Tables_number   1
_chemical_formula_structural   Mg5Ag9
_chemical_formula_sum   'Mg5 Ag9'
_cell_volume   338.09364487
_cell_formula_units_Z   1
loop_
 _symmetry_equiv_pos_site_id
 _symmetry_equiv_pos_as_xyz
  1  'x, y, z'
loop_
 _atom_site_type_symbol
 _atom_site_label
 _atom_site_symmetry_multiplicity
 _atom_site_fract_x
 _atom_site_fract_y
 _atom_site_fract_z
 _atom_site_occupancy
  Mg  Mg0  1  0.50000000  0.32507499  0.82507498  1
  Mg  Mg1  1  0.50000000  0.82507498  0.67492499  1
  Mg  Mg2  1  0.50000000  0.17492500  0.32507499  1
  Mg  Mg3  1  0.50000000  0.67492499  0.17492500  1
  Ag  Ag4  1  0.00000000  0.06817900  0.79517898  1
  Mg  Mg5  1  0.00000000  0.93182098  0.20482100  1
  Ag  Ag6  1  0.00000000  0.79517898  0.93182098  1
  Ag  Ag7  1  0.00000000  0.20482100  0.06817900  1
  Ag  Ag8  1  0.00000000  0.49999999  -0.00000000  1
  Ag  Ag9  1  0.00000000  0.00000000  0.49999999  1
  Ag  Ag10  1  0.00000000  0.56817899  0.70482099  1
  Ag  Ag11  1  0.00000000  0.70482099  0.43182099  1
  Ag  Ag12  1  0.00000000  0.29517899  0.56817899  1
  Ag  Ag13  1  0.00000000  0.43182099  0.29517899  1
