# generated using pymatgen
data_Rb2Ir2RuF13
_symmetry_space_group_name_H-M   'P 1'
_cell_length_a   7.37797594
_cell_length_b   7.63449907
_cell_length_c   7.63449907
_cell_angle_alpha   60.72980881
_cell_angle_beta   61.10540771
_cell_angle_gamma   61.10540771
_symmetry_Int_Tables_number   1
_chemical_formula_structural   Rb2Ir2RuF13
_chemical_formula_sum   'Rb2 Ir2 Ru1 F13'
_cell_volume   310.78283620
_cell_formula_units_Z   1
loop_
 _symmetry_equiv_pos_site_id
 _symmetry_equiv_pos_as_xyz
  1  'x, y, z'
loop_
 _atom_site_type_symbol
 _atom_site_label
 _atom_site_symmetry_multiplicity
 _atom_site_fract_x
 _atom_site_fract_y
 _atom_site_fract_z
 _atom_site_occupancy
  Rb  Rb0  1  0.61270100  0.13729900  0.63729899  1
  Rb  Rb1  1  0.38729900  0.86270097  0.36270100  1
  Ir  Ir2  1  0.00000000  0.00000000  0.00000000  1
  Ir  Ir3  1  0.00000000  0.49999998  0.49999999  1
  Ru  Ru4  1  0.50000000  0.49999998  0.00000001  1
  F  F5  1  0.00000000  0.49999998  0.00000000  1
  F  F6  1  0.06341700  0.18658299  0.68658298  1
  F  F7  1  0.69318600  0.55681398  0.05681401  1
  F  F8  1  0.08159400  0.56674798  0.67331499  1
  F  F9  1  0.67834300  0.17331499  0.06674800  1
  F  F10  1  0.67834300  0.56674798  0.67331499  1
  F  F11  1  0.08159400  0.17331499  0.06674800  1
  F  F12  1  0.93658301  0.81341697  0.31341700  1
  F  F13  1  0.30681400  0.44318599  0.94318598  1
  F  F14  1  0.91840601  0.43325199  0.32668500  1
  F  F15  1  0.32165700  0.82668497  0.93325198  1
  F  F16  1  0.32165700  0.43325199  0.32668500  1
  F  F17  1  0.91840601  0.82668497  0.93325199  1
