# generated using pymatgen
data_Zr4TiFe7
_symmetry_space_group_name_H-M   'P 1'
_cell_length_a   5.18910313
_cell_length_b   5.18910313
_cell_length_c   8.38812828
_cell_angle_alpha   90.00000000
_cell_angle_beta   90.00000000
_cell_angle_gamma   118.95173645
_symmetry_Int_Tables_number   1
_chemical_formula_structural   Zr4TiFe7
_chemical_formula_sum   'Zr4 Ti1 Fe7'
_cell_volume   197.63848138
_cell_formula_units_Z   1
loop_
 _symmetry_equiv_pos_site_id
 _symmetry_equiv_pos_as_xyz
  1  'x, y, z'
loop_
 _atom_site_type_symbol
 _atom_site_label
 _atom_site_symmetry_multiplicity
 _atom_site_fract_x
 _atom_site_fract_y
 _atom_site_fract_z
 _atom_site_occupancy
  Zr  Zr0  1  0.66690804  0.33309202  0.80348197  1
  Zr  Zr1  1  0.33307805  0.66692204  0.68386998  1
  Zr  Zr2  1  0.33307805  0.66692204  0.31612999  1
  Zr  Zr3  1  0.66690804  0.33309202  0.19651799  1
  Ti  Ti4  1  0.00375206  0.99624806  0.73939698  1
  Fe  Fe5  1  0.00375206  0.99624806  0.26060299  1
  Fe  Fe6  1  0.65477207  0.83122205  -0.00000000  1
  Fe  Fe7  1  0.16877803  0.34522802  -0.00000000  1
  Fe  Fe8  1  0.16818106  0.83181905  -0.00000000  1
  Fe  Fe9  1  0.34299402  0.17145801  0.49999998  1
  Fe  Fe10  1  0.82854207  0.65700604  0.49999998  1
  Fe  Fe11  1  0.82916504  0.17083501  0.49999998  1
