# generated using pymatgen
data_La2Ni3Rh
_symmetry_space_group_name_H-M   'P 1'
_cell_length_a   5.22025442
_cell_length_b   5.22025490
_cell_length_c   5.22025442
_cell_angle_alpha   60.00000381
_cell_angle_beta   60.00000000
_cell_angle_gamma   60.00000381
_symmetry_Int_Tables_number   1
_chemical_formula_structural   La2Ni3Rh
_chemical_formula_sum   'La2 Ni3 Rh1'
_cell_volume   100.59122024
_cell_formula_units_Z   1
loop_
 _symmetry_equiv_pos_site_id
 _symmetry_equiv_pos_as_xyz
  1  'x, y, z'
loop_
 _atom_site_type_symbol
 _atom_site_label
 _atom_site_symmetry_multiplicity
 _atom_site_fract_x
 _atom_site_fract_y
 _atom_site_fract_z
 _atom_site_occupancy
  La  La0  1  0.62500001  0.12500000  0.12500001  1
  La  La1  1  0.37500000  0.87500001  0.87500002  1
  Ni  Ni2  1  0.50000001  0.50000000  0.50000001  1
  Ni  Ni3  1  0.00000000  0.00000000  0.49999999  1
  Rh  Rh4  1  0.00000000  0.50000000  0.00000001  1
  Ni  Ni5  1  0.00000000  0.50000000  0.50000001  1
