# generated using pymatgen
data_Dy2Sb
_symmetry_space_group_name_H-M   'P 1'
_cell_length_a   4.14815378
_cell_length_b   8.30526161
_cell_length_c   8.30526257
_cell_angle_alpha   120.00000000
_cell_angle_beta   90.00000000
_cell_angle_gamma   90.00000000
_symmetry_Int_Tables_number   1
_chemical_formula_structural   Dy2Sb
_chemical_formula_sum   'Dy6 Sb3'
_cell_volume   247.79478610
_cell_formula_units_Z   3
loop_
 _symmetry_equiv_pos_site_id
 _symmetry_equiv_pos_as_xyz
  1  'x, y, z'
loop_
 _atom_site_type_symbol
 _atom_site_label
 _atom_site_symmetry_multiplicity
 _atom_site_fract_x
 _atom_site_fract_y
 _atom_site_fract_z
 _atom_site_occupancy
  Dy  Dy0  1  1.00000005  0.77053404  0.77053396  1
  Dy  Dy1  1  0.50000003  0.00000000  0.61086897  1
  Dy  Dy2  1  0.50000003  0.61086903  0.00000001  1
  Dy  Dy3  1  1.00000005  0.22946601  0.00000000  1
  Dy  Dy4  1  -0.00000000  1.00000005  0.22946600  1
  Dy  Dy5  1  0.50000003  0.38913102  0.38913098  1
  Sb  Sb6  1  0.50000003  0.00000000  -0.00000000  1
  Sb  Sb7  1  1.00000005  0.66666670  0.33333332  1
  Sb  Sb8  1  1.00000005  0.33333335  0.66666663  1
