# generated using pymatgen
data_DyNi2
_symmetry_space_group_name_H-M   'P 1'
_cell_length_a   4.17836809
_cell_length_b   5.26181412
_cell_length_c   5.69279623
_cell_angle_alpha   76.32090759
_cell_angle_beta   68.47005463
_cell_angle_gamma   66.60635376
_symmetry_Int_Tables_number   1
_chemical_formula_structural   DyNi2
_chemical_formula_sum   'Dy2 Ni4'
_cell_volume   106.25149080
_cell_formula_units_Z   2
loop_
 _symmetry_equiv_pos_site_id
 _symmetry_equiv_pos_as_xyz
  1  'x, y, z'
loop_
 _atom_site_type_symbol
 _atom_site_label
 _atom_site_symmetry_multiplicity
 _atom_site_fract_x
 _atom_site_fract_y
 _atom_site_fract_z
 _atom_site_occupancy
  Dy  Dy0  1  0.55650401  0.69912797  0.18786401  1
  Dy  Dy1  1  0.44349600  0.30087199  0.81213598  1
  Ni  Ni2  1  0.17440701  0.25179499  0.39939199  1
  Ni  Ni3  1  0.82559300  0.74820497  0.60060801  1
  Ni  Ni4  1  0.84093497  0.11226400  0.20586603  1
  Ni  Ni5  1  0.15906504  0.88773597  0.79413397  1
