# generated using pymatgen
data_Sc5Al13
_symmetry_space_group_name_H-M   'P 1'
_cell_length_a   5.34188652
_cell_length_b   5.36022282
_cell_length_c   13.26505089
_cell_angle_alpha   89.41726685
_cell_angle_beta   88.99691772
_cell_angle_gamma   60.86523056
_symmetry_Int_Tables_number   1
_chemical_formula_structural   Sc5Al13
_chemical_formula_sum   'Sc5 Al13'
_cell_volume   331.71914024
_cell_formula_units_Z   1
loop_
 _symmetry_equiv_pos_site_id
 _symmetry_equiv_pos_as_xyz
  1  'x, y, z'
loop_
 _atom_site_type_symbol
 _atom_site_label
 _atom_site_symmetry_multiplicity
 _atom_site_fract_x
 _atom_site_fract_y
 _atom_site_fract_z
 _atom_site_occupancy
  Sc  Sc0  1  0.66069398  0.67014403  0.08140002  1
  Sc  Sc1  1  0.99291597  0.99889304  0.75400203  1
  Sc  Sc2  1  0.33062899  0.33200501  0.41737801  1
  Sc  Sc3  1  0.66937098  0.66799503  0.33262202  1
  Sc  Sc4  1  0.00708400  0.00110700  0.99599800  1
  Al  Al5  1  0.33930599  0.32985601  0.66860001  1
  Al  Al6  1  0.83236999  0.33459301  0.54249002  1
  Al  Al7  1  0.16762998  0.66540703  0.20751001  1
  Al  Al8  1  0.65987398  0.67816203  0.71285602  1
  Al  Al9  1  0.00000000  0.00000000  0.37500000  1
  Al  Al10  1  0.34012599  0.32183801  0.03714401  1
  Al  Al11  1  0.99999999  0.50000002  0.87500002  1
  Al  Al12  1  0.33426398  0.83210103  0.54193502  1
  Al  Al13  1  0.66573600  0.16789901  0.20806501  1
  Al  Al14  1  0.49999999  0.50000002  0.87500001  1
  Al  Al15  1  0.83480798  0.83268503  0.54140903  1
  Al  Al16  1  0.16519200  0.16731501  0.20859100  1
  Al  Al17  1  0.50000000  0.00000000  0.87500000  1
