# generated using pymatgen
data_BaNaV2O5
_symmetry_space_group_name_H-M   'P 1'
_cell_length_a   6.18684006
_cell_length_b   7.04136562
_cell_length_c   7.04136562
_cell_angle_alpha   72.08602142
_cell_angle_beta   88.97840881
_cell_angle_gamma   88.97840881
_symmetry_Int_Tables_number   1
_chemical_formula_structural   BaNaV2O5
_chemical_formula_sum   'Ba2 Na2 V4 O10'
_cell_volume   291.80633640
_cell_formula_units_Z   2
loop_
 _symmetry_equiv_pos_site_id
 _symmetry_equiv_pos_as_xyz
  1  'x, y, z'
loop_
 _atom_site_type_symbol
 _atom_site_label
 _atom_site_symmetry_multiplicity
 _atom_site_fract_x
 _atom_site_fract_y
 _atom_site_fract_z
 _atom_site_occupancy
  Na  Na0  1  0.33018202  0.15823600  0.15823602  1
  Ba  Ba1  1  0.74414204  0.39844300  0.39844305  1
  Na  Na2  1  0.25585804  0.60155700  0.60155703  1
  Ba  Ba3  1  0.66981806  0.84176400  0.84176405  1
  V  V4  1  0.14479304  0.67379800  0.07568402  1
  V  V5  1  0.85520707  0.92431600  0.32620206  1
  V  V6  1  0.14479301  0.07568400  0.67379801  1
  V  V7  1  0.85520704  0.32620200  0.92431605  1
  O  O8  1  0.00000002  0.50000000  0.00000001  1
  O  O9  1  0.76683303  0.12209500  0.12209504  1
  O  O10  1  0.00000003  0.73785300  0.26214701  1
  O  O11  1  0.00000000  0.00000000  0.50000000  1
  O  O12  1  0.00000001  0.26214700  0.73785301  1
  O  O13  1  0.23316705  0.87790500  0.87790503  1
  O  O14  1  0.38598104  0.55368000  0.18350903  1
  O  O15  1  0.61401906  0.81649100  0.44632005  1
  O  O16  1  0.38598102  0.18350900  0.55368003  1
  O  O17  1  0.61401904  0.44632000  0.81649104  1
