# generated using pymatgen
data_Li4Nd3Sn4
_symmetry_space_group_name_H-M   'P 1'
_cell_length_a   4.70399380
_cell_length_b   7.41171789
_cell_length_c   8.96660423
_cell_angle_alpha   114.41203308
_cell_angle_beta   105.20695496
_cell_angle_gamma   90.00000000
_symmetry_Int_Tables_number   1
_chemical_formula_structural   Li4Nd3Sn4
_chemical_formula_sum   'Li4 Nd3 Sn4'
_cell_volume   272.60232665
_cell_formula_units_Z   1
loop_
 _symmetry_equiv_pos_site_id
 _symmetry_equiv_pos_as_xyz
  1  'x, y, z'
loop_
 _atom_site_type_symbol
 _atom_site_label
 _atom_site_symmetry_multiplicity
 _atom_site_fract_x
 _atom_site_fract_y
 _atom_site_fract_z
 _atom_site_occupancy
  Nd  Nd0  1  -0.00000001  0.50000000  -0.00000001  1
  Li  Li1  1  0.12962000  0.12962000  0.25924000  1
  Li  Li2  1  0.87038002  0.87038000  0.74075999  1
  Li  Li3  1  0.33002201  0.52538100  0.66004300  1
  Nd  Nd4  1  0.33002101  0.13466200  0.66004200  1
  Nd  Nd5  1  0.66997902  0.86533800  0.33995798  1
  Li  Li6  1  0.66997802  0.47461900  0.33995699  1
  Sn  Sn7  1  0.21501400  0.71501400  0.43002799  1
  Sn  Sn8  1  0.78498603  0.28498600  0.56997200  1
  Sn  Sn9  1  0.50000002  0.19416300  -0.00000001  1
  Sn  Sn10  1  0.50000001  0.80583700  -0.00000002  1
