# generated using pymatgen
data_Na2BiPN2
_symmetry_space_group_name_H-M   'P 1'
_cell_length_a   3.69290304
_cell_length_b   3.69290304
_cell_length_c   7.29890203
_cell_angle_alpha   90.00000000
_cell_angle_beta   90.00000000
_cell_angle_gamma   90.00000000
_symmetry_Int_Tables_number   1
_chemical_formula_structural   Na2BiPN2
_chemical_formula_sum   'Na2 Bi1 P1 N2'
_cell_volume   99.53901646
_cell_formula_units_Z   1
loop_
 _symmetry_equiv_pos_site_id
 _symmetry_equiv_pos_as_xyz
  1  'x, y, z'
loop_
 _atom_site_type_symbol
 _atom_site_label
 _atom_site_symmetry_multiplicity
 _atom_site_fract_x
 _atom_site_fract_y
 _atom_site_fract_z
 _atom_site_occupancy
  Na  Na0  1  0.00000000  0.49999999  0.36254600  1
  Na  Na1  1  0.49999999  0.00000000  0.63745400  1
  Bi  Bi2  1  0.00000000  0.00000000  0.00000000  1
  P  P3  1  0.49999999  0.49999999  0.00000000  1
  N  N4  1  0.00000000  0.49999999  0.75063300  1
  N  N5  1  0.49999999  0.00000000  0.24936700  1
