# generated using pymatgen
data_La(FeGe)2
_symmetry_space_group_name_H-M   'P 1'
_cell_length_a   4.05398417
_cell_length_b   4.05398417
_cell_length_c   6.12503958
_cell_angle_alpha   109.32555389
_cell_angle_beta   109.32555389
_cell_angle_gamma   90.00000000
_symmetry_Int_Tables_number   1
_chemical_formula_structural   La(FeGe)2
_chemical_formula_sum   'La1 Fe2 Ge2'
_cell_volume   88.95869607
_cell_formula_units_Z   1
loop_
 _symmetry_equiv_pos_site_id
 _symmetry_equiv_pos_as_xyz
  1  'x, y, z'
loop_
 _atom_site_type_symbol
 _atom_site_label
 _atom_site_symmetry_multiplicity
 _atom_site_fract_x
 _atom_site_fract_y
 _atom_site_fract_z
 _atom_site_occupancy
  La  La0  1  0.00000000  0.00000000  0.00000000  1
  Fe  Fe1  1  0.24999997  0.74999996  0.49999998  1
  Fe  Fe2  1  0.74999995  0.24999999  0.49999998  1
  Ge  Ge3  1  0.62246195  0.62246197  0.24492397  1
  Ge  Ge4  1  0.37753797  0.37753798  0.75507599  1
