# generated using pymatgen
data_SmCdPd
_symmetry_space_group_name_H-M   'P 1'
_cell_length_a   3.79249597
_cell_length_b   7.89348984
_cell_length_c   7.89349031
_cell_angle_alpha   120.00000000
_cell_angle_beta   90.00000000
_cell_angle_gamma   90.00000000
_symmetry_Int_Tables_number   1
_chemical_formula_structural   SmCdPd
_chemical_formula_sum   'Sm3 Cd3 Pd3'
_cell_volume   204.64158638
_cell_formula_units_Z   3
loop_
 _symmetry_equiv_pos_site_id
 _symmetry_equiv_pos_as_xyz
  1  'x, y, z'
loop_
 _atom_site_type_symbol
 _atom_site_label
 _atom_site_symmetry_multiplicity
 _atom_site_fract_x
 _atom_site_fract_y
 _atom_site_fract_z
 _atom_site_occupancy
  Sm  Sm0  1  0.50000000  0.00000000  0.59886899  1
  Sm  Sm1  1  0.50000000  0.59886902  0.99999998  1
  Sm  Sm2  1  0.50000000  0.40113101  0.40113099  1
  Cd  Cd3  1  -0.00000000  0.00000000  0.26786799  1
  Cd  Cd4  1  1.00000001  0.73213202  0.73213199  1
  Cd  Cd5  1  1.00000001  0.26786801  0.00000000  1
  Pd  Pd6  1  1.00000001  0.66666668  0.33333333  1
  Pd  Pd7  1  0.50000000  0.00000000  -0.00000000  1
  Pd  Pd8  1  1.00000001  0.33333334  0.66666665  1
