# generated using pymatgen
data_InGa12
_symmetry_space_group_name_H-M   'P 1'
_cell_length_a   5.85779190
_cell_length_b   7.88801336
_cell_length_c   7.88801336
_cell_angle_alpha   82.07533264
_cell_angle_beta   68.20358276
_cell_angle_gamma   68.20358276
_symmetry_Int_Tables_number   1
_chemical_formula_structural   InGa12
_chemical_formula_sum   'In1 Ga12'
_cell_volume   314.22554920
_cell_formula_units_Z   1
loop_
 _symmetry_equiv_pos_site_id
 _symmetry_equiv_pos_as_xyz
  1  'x, y, z'
loop_
 _atom_site_type_symbol
 _atom_site_label
 _atom_site_symmetry_multiplicity
 _atom_site_fract_x
 _atom_site_fract_y
 _atom_site_fract_z
 _atom_site_occupancy
  In  In0  1  0.00000000  0.00000000  0.00000000  1
  Ga  Ga1  1  0.00000000  0.00000000  0.49999999  1
  Ga  Ga2  1  0.49999999  0.50000000  -0.00000005  1
  Ga  Ga3  1  -0.00000003  0.50000000  -0.00000003  1
  Ga  Ga4  1  0.50000002  0.00000000  0.49999997  1
  Ga  Ga5  1  0.35248298  0.64751701  0.64751694  1
  Ga  Ga6  1  -0.00000002  0.35248300  0.64751697  1
  Ga  Ga7  1  -0.00000004  0.64751701  0.35248296  1
  Ga  Ga8  1  0.64751701  0.35248300  0.35248295  1
  Ga  Ga9  1  0.28732100  0.21267900  0.21267897  1
  Ga  Ga10  1  0.49999997  0.78732101  0.21267893  1
  Ga  Ga11  1  0.50000001  0.21267900  0.78732095  1
  Ga  Ga12  1  0.71267898  0.78732101  0.78732091  1
