# generated using pymatgen
data_LiMnO4
_symmetry_space_group_name_H-M   'P 1'
_cell_length_a   5.69342661
_cell_length_b   5.69342661
_cell_length_c   7.42963791
_cell_angle_alpha   70.49137878
_cell_angle_beta   70.49137878
_cell_angle_gamma   74.11405945
_symmetry_Int_Tables_number   1
_chemical_formula_structural   LiMnO4
_chemical_formula_sum   'Li3 Mn3 O12'
_cell_volume   210.37850538
_cell_formula_units_Z   3
loop_
 _symmetry_equiv_pos_site_id
 _symmetry_equiv_pos_as_xyz
  1  'x, y, z'
loop_
 _atom_site_type_symbol
 _atom_site_label
 _atom_site_symmetry_multiplicity
 _atom_site_fract_x
 _atom_site_fract_y
 _atom_site_fract_z
 _atom_site_occupancy
  Li  Li0  1  0.67892797  0.67892802  0.82148605  1
  Li  Li1  1  0.32107199  0.32107201  0.17851402  1
  Li  Li2  1  0.00000000  0.00000000  0.50000000  1
  Mn  Mn3  1  0.00000000  0.00000000  0.00000000  1
  Mn  Mn4  1  0.65331397  0.65331402  0.34745505  1
  Mn  Mn5  1  0.34668599  0.34668601  0.65254503  1
  O  O6  1  0.77109097  0.77109102  0.02955405  1
  O  O7  1  0.43247998  0.43248001  0.35878603  1
  O  O8  1  0.09475500  0.09475500  0.70276901  1
  O  O9  1  0.56751998  0.56752002  0.64121404  1
  O  O10  1  0.22890899  0.22890901  0.97044602  1
  O  O11  1  0.90524496  0.90524502  0.29723106  1
  O  O12  1  0.61859201  0.04030900  0.67146102  1
  O  O13  1  0.29984196  0.70015802  0.00000004  1
  O  O14  1  0.95969099  0.38140801  0.32853904  1
  O  O15  1  0.04030896  0.61859202  0.67146103  1
  O  O16  1  0.70015799  0.29984201  0.00000003  1
  O  O17  1  0.38140795  0.95969103  0.32853905  1
