# generated using pymatgen
data_Li6MnCuO12
_symmetry_space_group_name_H-M   'P 1'
_cell_length_a   6.55756998
_cell_length_b   6.55756998
_cell_length_c   6.60125971
_cell_angle_alpha   109.17336273
_cell_angle_beta   108.97630310
_cell_angle_gamma   110.00125122
_symmetry_Int_Tables_number   1
_chemical_formula_structural   Li6MnCuO12
_chemical_formula_sum   'Li6 Mn1 Cu1 O12'
_cell_volume   219.21065196
_cell_formula_units_Z   1
loop_
 _symmetry_equiv_pos_site_id
 _symmetry_equiv_pos_as_xyz
  1  'x, y, z'
loop_
 _atom_site_type_symbol
 _atom_site_label
 _atom_site_symmetry_multiplicity
 _atom_site_fract_x
 _atom_site_fract_y
 _atom_site_fract_z
 _atom_site_occupancy
  Li  Li0  1  0.99446897  0.49525699  0.48972595  1
  Li  Li1  1  0.49965997  0.50290499  0.00256496  1
  Li  Li2  1  0.50335495  0.99866899  0.50202396  1
  Li  Li3  1  0.00185698  0.51333299  0.99912102  1
  Li  Li4  1  0.48578795  0.99726399  0.99912098  1
  Li  Li5  1  0.00217696  0.99718699  0.49705799  1
  Mn  Mn6  1  0.49987097  0.49488099  0.49705798  1
  Cu  Cu7  1  0.96736199  0.02033600  0.98769798  1
  O  O8  1  0.16504597  0.68525699  0.85030300  1
  O  O9  1  0.81057296  0.67705299  0.48762596  1
  O  O10  1  0.82575898  0.29643300  0.12219195  1
  O  O11  1  0.17369499  0.30727100  0.48096600  1
  O  O12  1  0.69979997  0.51965699  0.83705698  1
  O  O13  1  0.31739999  0.13725700  0.83705701  1
  O  O14  1  0.86997999  0.16307700  0.68739197  1
  O  O15  1  0.52431496  0.81741199  0.68739197  1
  O  O16  1  0.29333398  0.48505299  0.16201198  1
  O  O17  1  0.67695896  0.86867799  0.16201195  1
  O  O18  1  0.13989596  0.82800199  0.32830898  1
  O  O19  1  0.50030699  0.18841300  0.32830898  1
