# generated using pymatgen
data_LiMnO3
_symmetry_space_group_name_H-M   'P 1'
_cell_length_a   4.99111891
_cell_length_b   5.13887691
_cell_length_c   8.49621201
_cell_angle_alpha   90.00000000
_cell_angle_beta   90.00000000
_cell_angle_gamma   90.00000000
_symmetry_Int_Tables_number   1
_chemical_formula_structural   LiMnO3
_chemical_formula_sum   'Li4 Mn4 O12'
_cell_volume   217.91718145
_cell_formula_units_Z   4
loop_
 _symmetry_equiv_pos_site_id
 _symmetry_equiv_pos_as_xyz
  1  'x, y, z'
loop_
 _atom_site_type_symbol
 _atom_site_label
 _atom_site_symmetry_multiplicity
 _atom_site_fract_x
 _atom_site_fract_y
 _atom_site_fract_z
 _atom_site_occupancy
  Li  Li0  1  0.00000000  0.00000000  0.30241800  1
  Li  Li1  1  0.50000001  0.00000000  0.17834500  1
  Li  Li2  1  0.00000000  0.50000001  0.67834500  1
  Li  Li3  1  0.50000001  0.50000001  0.80241800  1
  Mn  Mn4  1  0.00000000  0.00000000  0.89128200  1
  Mn  Mn5  1  0.50000001  0.50000001  0.39128200  1
  Mn  Mn6  1  0.50000001  0.00000000  0.58639100  1
  Mn  Mn7  1  0.00000000  0.50000001  0.08639100  1
  O  O8  1  0.25708200  0.14656700  0.74383500  1
  O  O9  1  0.29744501  0.17474800  0.41663300  1
  O  O10  1  0.19894400  0.17930200  0.07504500  1
  O  O11  1  0.69894401  0.32069801  0.57504500  1
  O  O12  1  0.79744501  0.32525201  0.91663300  1
  O  O13  1  0.75708201  0.35343301  0.24383500  1
  O  O14  1  0.24291800  0.64656701  0.24383500  1
  O  O15  1  0.20255500  0.67474801  0.91663300  1
  O  O16  1  0.30105601  0.67930201  0.57504500  1
  O  O17  1  0.80105601  0.82069801  0.07504500  1
  O  O18  1  0.70255501  0.82525201  0.41663300  1
  O  O19  1  0.74291801  0.85343301  0.74383500  1
