# generated using pymatgen
data_Cu2SnBiSb(WO5)2
_symmetry_space_group_name_H-M   'P 1'
_cell_length_a   6.93283129
_cell_length_b   6.93283129
_cell_length_c   6.93283129
_cell_angle_alpha   60.00000000
_cell_angle_beta   60.00000000
_cell_angle_gamma   60.00000000
_symmetry_Int_Tables_number   1
_chemical_formula_structural   Cu2SnBiSb(WO5)2
_chemical_formula_sum   'Cu2 Sn1 Bi1 Sb1 W2 O10'
_cell_volume   235.62257457
_cell_formula_units_Z   1
loop_
 _symmetry_equiv_pos_site_id
 _symmetry_equiv_pos_as_xyz
  1  'x, y, z'
loop_
 _atom_site_type_symbol
 _atom_site_label
 _atom_site_symmetry_multiplicity
 _atom_site_fract_x
 _atom_site_fract_y
 _atom_site_fract_z
 _atom_site_occupancy
  Cu  Cu0  1  0.87347300  0.87347200  0.37958300  1
  Cu  Cu1  1  0.37958400  0.87347200  0.87347200  1
  Sn  Sn2  1  0.62041600  0.12652800  0.12652800  1
  W  W3  1  0.12652700  0.12652800  0.62041700  1
  Bi  Bi4  1  0.12652700  0.12652800  0.12652800  1
  Sb  Sb5  1  0.50000000  0.50000000  0.50000000  1
  O  O6  1  0.12652700  0.62041700  0.12652800  1
  W  W7  1  0.87347300  0.37958300  0.87347200  1
  O  O8  1  0.87347300  0.87347200  0.87347200  1
  O  O9  1  0.26134400  0.73865600  0.73865600  1
  O  O10  1  0.73865600  0.26134400  0.26134400  1
  O  O11  1  0.26134400  0.26134400  0.73865600  1
  O  O12  1  0.73865600  0.73865600  0.26134400  1
  O  O13  1  0.26134400  0.73865600  0.26134400  1
  O  O14  1  0.73865600  0.26134400  0.73865600  1
  O  O15  1  0.25000000  0.25000000  0.25000000  1
  O  O16  1  0.75000000  0.75000000  0.75000000  1
