# generated using pymatgen
data_Nb
_symmetry_space_group_name_H-M   'P 1'
_cell_length_a   2.82569242
_cell_length_b   2.82569242
_cell_length_c   9.31466484
_cell_angle_alpha   90.00000000
_cell_angle_beta   90.00000000
_cell_angle_gamma   103.14780426
_symmetry_Int_Tables_number   1
_chemical_formula_structural   Nb
_chemical_formula_sum   Nb4
_cell_volume   72.42370936
_cell_formula_units_Z   4
loop_
 _symmetry_equiv_pos_site_id
 _symmetry_equiv_pos_as_xyz
  1  'x, y, z'
loop_
 _atom_site_type_symbol
 _atom_site_label
 _atom_site_symmetry_multiplicity
 _atom_site_fract_x
 _atom_site_fract_y
 _atom_site_fract_z
 _atom_site_occupancy
  Nb  Nb0  1  0.49999997  0.49999999  0.24932700  1
  Nb  Nb1  1  0.00000000  0.00000000  0.50000001  1
  Nb  Nb2  1  0.49999997  0.49999999  0.75067301  1
  Nb  Nb3  1  0.00000000  0.00000000  0.00000000  1
