# generated using pymatgen
data_SrHg3
_symmetry_space_group_name_H-M   'P 1'
_cell_length_a   6.69872904
_cell_length_b   6.69872904
_cell_length_c   10.70740986
_cell_angle_alpha   90.00000000
_cell_angle_beta   90.00000000
_cell_angle_gamma   101.02399445
_symmetry_Int_Tables_number   1
_chemical_formula_structural   SrHg3
_chemical_formula_sum   'Sr4 Hg12'
_cell_volume   471.60720684
_cell_formula_units_Z   4
loop_
 _symmetry_equiv_pos_site_id
 _symmetry_equiv_pos_as_xyz
  1  'x, y, z'
loop_
 _atom_site_type_symbol
 _atom_site_label
 _atom_site_symmetry_multiplicity
 _atom_site_fract_x
 _atom_site_fract_y
 _atom_site_fract_z
 _atom_site_occupancy
  Sr  Sr0  1  0.20262296  0.79737697  -0.00000000  1
  Sr  Sr1  1  0.79737697  0.20262299  -0.00000000  1
  Sr  Sr2  1  0.79737697  0.20262299  0.50000001  1
  Sr  Sr3  1  0.20262296  0.79737697  0.50000001  1
  Hg  Hg4  1  0.62776396  0.62776398  0.75000001  1
  Hg  Hg5  1  0.37223597  0.37223599  0.25000000  1
  Hg  Hg6  1  0.49627498  0.07461000  0.75000001  1
  Hg  Hg7  1  0.50372495  0.92539096  0.25000000  1
  Hg  Hg8  1  0.07460898  0.49627498  0.75000001  1
  Hg  Hg9  1  0.92539095  0.50372498  0.25000000  1
  Hg  Hg10  1  0.02749800  0.02749800  0.75000001  1
  Hg  Hg11  1  0.97250193  0.97250196  0.25000000  1
  Hg  Hg12  1  0.30884498  0.30884499  0.94966901  1
  Hg  Hg13  1  0.69115495  0.69115497  0.05033100  1
  Hg  Hg14  1  0.69115495  0.69115497  0.44966901  1
  Hg  Hg15  1  0.30884498  0.30884499  0.55033101  1
