# generated using pymatgen
data_SrMn3N5
_symmetry_space_group_name_H-M   'P 1'
_cell_length_a   6.94516182
_cell_length_b   7.65150547
_cell_length_c   6.94516182
_cell_angle_alpha   116.99050903
_cell_angle_beta   90.00000000
_cell_angle_gamma   116.99050903
_symmetry_Int_Tables_number   1
_chemical_formula_structural   SrMn3N5
_chemical_formula_sum   'Sr2 Mn6 N10'
_cell_volume   283.02184430
_cell_formula_units_Z   2
loop_
 _symmetry_equiv_pos_site_id
 _symmetry_equiv_pos_as_xyz
  1  'x, y, z'
loop_
 _atom_site_type_symbol
 _atom_site_label
 _atom_site_symmetry_multiplicity
 _atom_site_fract_x
 _atom_site_fract_y
 _atom_site_fract_z
 _atom_site_occupancy
  Sr  Sr0  1  0.25000005  0.50000003  0.25000005  1
  Sr  Sr1  1  0.75000007  0.50000003  0.75000007  1
  Mn  Mn2  1  0.67639102  0.00000100  0.82361002  1
  Mn  Mn3  1  0.17639100  0.00000000  0.67639102  1
  Mn  Mn4  1  0.82360902  0.00000000  0.32360901  1
  Mn  Mn5  1  0.32360910  0.99999906  0.17639010  1
  Mn  Mn6  1  0.75000007  0.50000003  0.25000005  1
  Mn  Mn7  1  0.25000005  0.50000003  0.75000007  1
  N  N8  1  0.72144409  0.73444204  0.51299808  1
  N  N9  1  0.98700305  0.26556002  0.77855704  1
  N  N10  1  0.27855603  0.26555802  0.48700204  1
  N  N11  1  0.77855604  0.26555902  0.27855603  1
  N  N12  1  0.48700304  0.26555902  0.98700305  1
  N  N13  1  0.22144407  0.73444104  0.72144409  1
  N  N14  1  0.51299708  0.73444104  0.01299707  1
  N  N15  1  0.01299707  0.73444004  0.22144307  1
  N  N16  1  0.00000000  0.00000000  0.00000000  1
  N  N17  1  0.50000001  0.00000000  0.50000001  1
