# generated using pymatgen
data_SmZn2Cu2S5
_symmetry_space_group_name_H-M   'P 1'
_cell_length_a   3.80376911
_cell_length_b   6.10262108
_cell_length_c   7.53718853
_cell_angle_alpha   91.59504700
_cell_angle_beta   90.00000000
_cell_angle_gamma   90.00000000
_symmetry_Int_Tables_number   1
_chemical_formula_structural   SmZn2Cu2S5
_chemical_formula_sum   'Sm1 Zn2 Cu2 S5'
_cell_volume   174.89267480
_cell_formula_units_Z   1
loop_
 _symmetry_equiv_pos_site_id
 _symmetry_equiv_pos_as_xyz
  1  'x, y, z'
loop_
 _atom_site_type_symbol
 _atom_site_label
 _atom_site_symmetry_multiplicity
 _atom_site_fract_x
 _atom_site_fract_y
 _atom_site_fract_z
 _atom_site_occupancy
  Cu  Cu0  1  0.74999998  0.29030200  0.63520600  1
  Sm  Sm1  1  0.24999999  0.70969799  0.36479402  1
  Zn  Zn2  1  0.74999998  0.00773000  0.37111400  1
  Zn  Zn3  1  0.24999999  0.99226999  0.62888603  1
  Cu  Cu4  1  0.74999998  0.99382399  0.87688803  1
  S  S5  1  0.24999999  0.00617600  0.12311200  1
  S  S6  1  0.74999998  0.71940599  0.11905203  1
  S  S7  1  0.24999999  0.28059400  0.88094800  1
  S  S8  1  0.74999998  0.71263899  0.61765302  1
  S  S9  1  0.24999999  0.28736100  0.38234701  1
