# generated using pymatgen
data_Pr(BIr)4
_symmetry_space_group_name_H-M   'P 1'
_cell_length_a   4.00770807
_cell_length_b   7.62822819
_cell_length_c   7.62822819
_cell_angle_alpha   90.00000000
_cell_angle_beta   90.00000000
_cell_angle_gamma   90.00000000
_symmetry_Int_Tables_number   1
_chemical_formula_structural   Pr(BIr)4
_chemical_formula_sum   'Pr2 B8 Ir8'
_cell_volume   233.20799284
_cell_formula_units_Z   2
loop_
 _symmetry_equiv_pos_site_id
 _symmetry_equiv_pos_as_xyz
  1  'x, y, z'
loop_
 _atom_site_type_symbol
 _atom_site_label
 _atom_site_symmetry_multiplicity
 _atom_site_fract_x
 _atom_site_fract_y
 _atom_site_fract_z
 _atom_site_occupancy
  Pr  Pr0  1  0.00000000  0.49999999  0.49999999  1
  Pr  Pr1  1  0.49999999  0.00000000  0.00000000  1
  B  B2  1  0.61101599  0.66429398  0.78058998  1
  B  B3  1  0.88898398  0.16429400  0.28058999  1
  B  B4  1  0.11101600  0.28058999  0.83570598  1
  B  B5  1  0.11101600  0.71940998  0.16429400  1
  B  B6  1  0.61101599  0.33570599  0.21940999  1
  B  B7  1  0.88898398  0.83570598  0.71940998  1
  B  B8  1  0.38898399  0.21940999  0.66429398  1
  B  B9  1  0.38898399  0.78058998  0.33570599  1
  Ir  Ir10  1  0.11225500  0.35387499  0.10661600  1
  Ir  Ir11  1  0.11225500  0.64612498  0.89338398  1
  Ir  Ir12  1  0.61225499  0.60661599  0.14612500  1
  Ir  Ir13  1  0.88774498  0.10661600  0.64612498  1
  Ir  Ir14  1  0.38774499  0.14612500  0.39338399  1
  Ir  Ir15  1  0.38774499  0.85387498  0.60661599  1
  Ir  Ir16  1  0.88774498  0.89338398  0.35387499  1
  Ir  Ir17  1  0.61225499  0.39338399  0.85387498  1
