# generated using pymatgen
data_LiBeN
_symmetry_space_group_name_H-M   'P 1'
_cell_length_a   4.55030823
_cell_length_b   4.76593494
_cell_length_c   4.91501808
_cell_angle_alpha   90.00000000
_cell_angle_beta   104.52051544
_cell_angle_gamma   90.00000000
_symmetry_Int_Tables_number   1
_chemical_formula_structural   LiBeN
_chemical_formula_sum   'Li4 Be4 N4'
_cell_volume   103.18472022
_cell_formula_units_Z   4
loop_
 _symmetry_equiv_pos_site_id
 _symmetry_equiv_pos_as_xyz
  1  'x, y, z'
loop_
 _atom_site_type_symbol
 _atom_site_label
 _atom_site_symmetry_multiplicity
 _atom_site_fract_x
 _atom_site_fract_y
 _atom_site_fract_z
 _atom_site_occupancy
  Li  Li0  1  0.23457399  0.54322901  0.90976796  1
  Li  Li1  1  0.26542599  0.04322900  0.59023197  1
  Li  Li2  1  0.76542596  0.45677101  0.09023199  1
  Li  Li3  1  0.73457396  0.95677101  0.40976797  1
  Be  Be4  1  0.68739796  0.39153900  0.60766297  1
  Be  Be5  1  0.81260196  0.89153901  0.89233695  1
  Be  Be6  1  0.31260198  0.60846101  0.39233698  1
  Be  Be7  1  0.18739799  0.10846100  0.10766299  1
  N  N8  1  0.95003095  0.19483100  0.80081196  1
  N  N9  1  0.54996897  0.69483101  0.69918796  1
  N  N10  1  0.04996900  0.80516901  0.19918799  1
  N  N11  1  0.45003098  0.30516900  0.30081198  1
