# generated using pymatgen
data_Na3ZrTi4O10
_symmetry_space_group_name_H-M   'P 1'
_cell_length_a   5.85804415
_cell_length_b   6.94151497
_cell_length_c   7.48554516
_cell_angle_alpha   104.10956573
_cell_angle_beta   90.00000000
_cell_angle_gamma   114.95821381
_symmetry_Int_Tables_number   1
_chemical_formula_structural   Na3ZrTi4O10
_chemical_formula_sum   'Na3 Zr1 Ti4 O10'
_cell_volume   265.80146432
_cell_formula_units_Z   1
loop_
 _symmetry_equiv_pos_site_id
 _symmetry_equiv_pos_as_xyz
  1  'x, y, z'
loop_
 _atom_site_type_symbol
 _atom_site_label
 _atom_site_symmetry_multiplicity
 _atom_site_fract_x
 _atom_site_fract_y
 _atom_site_fract_z
 _atom_site_occupancy
  Na  Na0  1  0.84724198  0.69448400  0.46195297  1
  Na  Na1  1  0.00000000  0.00000000  0.00000000  1
  Na  Na2  1  0.15275800  0.30551600  0.53804699  1
  Zr  Zr3  1  0.31117300  0.62234600  0.12572197  1
  Ti  Ti4  1  0.68882699  0.37765400  0.87427799  1
  Ti  Ti5  1  0.59012999  0.18026000  0.19952699  1
  Ti  Ti6  1  0.40987000  0.81974000  0.80047297  1
  Ti  Ti7  1  0.49999999  1.00000000  0.49999996  1
  O  O8  1  0.26176200  0.96368600  0.28053296  1
  O  O9  1  0.08657600  0.63179100  0.87496497  1
  O  O10  1  0.33268500  0.66537000  0.44808697  1
  O  O11  1  0.54521499  0.63179100  0.87496497  1
  O  O12  1  0.45478499  0.36820900  0.12503498  1
  O  O13  1  0.91342398  0.36820900  0.12503498  1
  O  O14  1  0.73823798  0.03631400  0.71946700  1
  O  O15  1  0.66731499  0.33463000  0.55191299  1
  O  O16  1  0.29807599  0.03631400  0.71946700  1
  O  O17  1  0.70192399  0.96368600  0.28053296  1
