# generated using pymatgen
data_SrZn3GeAs3
_symmetry_space_group_name_H-M   'P 1'
_cell_length_a   4.29287720
_cell_length_b   4.29287720
_cell_length_c   8.31486034
_cell_angle_alpha   90.00000000
_cell_angle_beta   90.00000000
_cell_angle_gamma   90.00000000
_symmetry_Int_Tables_number   1
_chemical_formula_structural   SrZn3GeAs3
_chemical_formula_sum   'Sr1 Zn3 Ge1 As3'
_cell_volume   153.23285366
_cell_formula_units_Z   1
loop_
 _symmetry_equiv_pos_site_id
 _symmetry_equiv_pos_as_xyz
  1  'x, y, z'
loop_
 _atom_site_type_symbol
 _atom_site_label
 _atom_site_symmetry_multiplicity
 _atom_site_fract_x
 _atom_site_fract_y
 _atom_site_fract_z
 _atom_site_occupancy
  Sr  Sr0  1  0.00000000  0.00000000  0.49999998  1
  Zn  Zn1  1  0.49999998  0.49999998  0.35267399  1
  As  As2  1  0.49999998  0.49999998  0.64732597  1
  Zn  Zn3  1  0.00000000  0.49999998  0.16868599  1
  Zn  Zn4  1  0.00000000  0.49999998  0.83131397  1
  Ge  Ge5  1  0.49999998  0.00000000  0.16868599  1
  As  As6  1  0.49999998  0.00000000  0.83131397  1
  As  As7  1  0.00000000  0.00000000  0.00000000  1
