# generated using pymatgen
data_Li2V4O9
_symmetry_space_group_name_H-M   'P 1'
_cell_length_a   5.15763617
_cell_length_b   5.36321020
_cell_length_c   7.80631018
_cell_angle_alpha   82.72136688
_cell_angle_beta   71.91030884
_cell_angle_gamma   65.52546692
_symmetry_Int_Tables_number   1
_chemical_formula_structural   Li2V4O9
_chemical_formula_sum   'Li2 V4 O9'
_cell_volume   186.81678669
_cell_formula_units_Z   1
loop_
 _symmetry_equiv_pos_site_id
 _symmetry_equiv_pos_as_xyz
  1  'x, y, z'
loop_
 _atom_site_type_symbol
 _atom_site_label
 _atom_site_symmetry_multiplicity
 _atom_site_fract_x
 _atom_site_fract_y
 _atom_site_fract_z
 _atom_site_occupancy
  Li  Li0  1  0.76942799  0.70825298  0.81937996  1
  Li  Li1  1  0.98859901  0.24059399  0.53210498  1
  V  V2  1  0.05334899  0.72839398  0.43543597  1
  V  V3  1  0.25606500  0.27739599  0.19374599  1
  V  V4  1  0.18456599  0.79788998  0.01484697  1
  V  V5  1  0.60374499  0.70298698  0.24075597  1
  O  O6  1  0.40253200  0.29163699  0.76165998  1
  O  O7  1  0.25770800  0.15266800  0.94964298  1
  O  O8  1  0.49084599  0.53381199  0.80901597  1
  O  O9  1  0.71118901  0.04351100  0.64174699  1
  O  O10  1  0.14580999  0.43871199  0.64843097  1
  O  O11  1  0.84959600  0.52508099  0.36458398  1
  O  O12  1  0.30741298  0.97294998  0.36766596  1
  O  O13  1  0.40920099  0.54714899  0.18526198  1
  O  O14  1  0.80514699  0.79762398  0.04194398  1
