# generated using pymatgen
data_Mg5Al
_symmetry_space_group_name_H-M   'P 1'
_cell_length_a   3.10020208
_cell_length_b   5.87889528
_cell_length_c   7.29031324
_cell_angle_alpha   105.58625793
_cell_angle_beta   90.00000000
_cell_angle_gamma   105.28807068
_symmetry_Int_Tables_number   1
_chemical_formula_structural   Mg5Al
_chemical_formula_sum   'Mg5 Al1'
_cell_volume   123.09693671
_cell_formula_units_Z   1
loop_
 _symmetry_equiv_pos_site_id
 _symmetry_equiv_pos_as_xyz
  1  'x, y, z'
loop_
 _atom_site_type_symbol
 _atom_site_label
 _atom_site_symmetry_multiplicity
 _atom_site_fract_x
 _atom_site_fract_y
 _atom_site_fract_z
 _atom_site_occupancy
  Mg  Mg0  1  0.00105600  0.00211200  0.00147500  1
  Mg  Mg1  1  0.72209503  0.44419000  0.94390601  1
  Mg  Mg2  1  0.33432507  0.66865001  0.66825600  1
  Mg  Mg3  1  0.66666669  0.33333334  0.33437700  1
  Al  Al4  1  0.05751101  0.11502200  0.61458301  1
  Mg  Mg5  1  0.38498708  0.76997401  0.27073499  1
