# generated using pymatgen
data_Li2MnO3
_symmetry_space_group_name_H-M   'P 1'
_cell_length_a   2.94523597
_cell_length_b   2.94620967
_cell_length_c   14.52899647
_cell_angle_alpha   91.91589355
_cell_angle_beta   91.83248138
_cell_angle_gamma   62.33028412
_symmetry_Int_Tables_number   1
_chemical_formula_structural   Li2MnO3
_chemical_formula_sum   'Li4 Mn2 O6'
_cell_volume   111.57279540
_cell_formula_units_Z   2
loop_
 _symmetry_equiv_pos_site_id
 _symmetry_equiv_pos_as_xyz
  1  'x, y, z'
loop_
 _atom_site_type_symbol
 _atom_site_label
 _atom_site_symmetry_multiplicity
 _atom_site_fract_x
 _atom_site_fract_y
 _atom_site_fract_z
 _atom_site_occupancy
  Li  Li0  1  0.99987003  0.01433000  0.99334300  1
  Li  Li1  1  0.32504602  0.33935100  0.83309800  1
  Li  Li2  1  0.34820902  0.31968300  0.33358800  1
  Li  Li3  1  0.65156604  0.66379500  0.67312100  1
  Mn  Mn4  1  0.00065803  0.99202200  0.50299099  1
  Mn  Mn5  1  0.67779004  0.66512000  0.16403100  1
  O  O6  1  0.05978303  0.93125000  0.24248699  1
  O  O7  1  0.29775702  0.39811600  0.08552500  1
  O  O8  1  0.26775102  0.37326900  0.58126300  1
  O  O9  1  0.73362004  0.61087600  0.42447200  1
  O  O10  1  0.98277903  0.00987200  0.75283401  1
  O  O11  1  0.65517104  0.68231600  0.91324800  1
