# generated using pymatgen
data_K4H2ClO5
_symmetry_space_group_name_H-M   'P 1'
_cell_length_a   4.41278315
_cell_length_b   4.46863604
_cell_length_c   13.18941116
_cell_angle_alpha   90.00000000
_cell_angle_beta   90.00000000
_cell_angle_gamma   90.00000000
_symmetry_Int_Tables_number   1
_chemical_formula_structural   K4H2ClO5
_chemical_formula_sum   'K4 H2 Cl1 O5'
_cell_volume   260.08360500
_cell_formula_units_Z   1
loop_
 _symmetry_equiv_pos_site_id
 _symmetry_equiv_pos_as_xyz
  1  'x, y, z'
loop_
 _atom_site_type_symbol
 _atom_site_label
 _atom_site_symmetry_multiplicity
 _atom_site_fract_x
 _atom_site_fract_y
 _atom_site_fract_z
 _atom_site_occupancy
  K  K0  1  0.25137799  0.99243599  0.65033599  1
  K  K1  1  0.75137798  0.50756400  0.34966400  1
  K  K2  1  0.74862198  0.49243600  0.84966399  1
  K  K3  1  0.24862199  0.00756400  0.15033600  1
  H  H4  1  0.35585599  0.99669399  0.94532999  1
  H  H5  1  0.85585597  0.50330600  0.05467000  1
  Cl  Cl6  1  0.64414398  0.49669400  0.55466999  1
  O  O7  1  0.14414400  0.00330600  0.44532999  1
  O  O8  1  0.23431799  0.99884199  0.88399899  1
  O  O9  1  0.73431798  0.50115800  0.11600100  1
  O  O10  1  0.76568197  0.49884200  0.61600099  1
  O  O11  1  0.26568199  0.00115800  0.38399900  1
