# generated using pymatgen
data_Mg2Pd5
_symmetry_space_group_name_H-M   'P 1'
_cell_length_a   5.47894955
_cell_length_b   5.47894955
_cell_length_c   5.64328527
_cell_angle_alpha   60.95870590
_cell_angle_beta   60.95870590
_cell_angle_gamma   60.00000381
_symmetry_Int_Tables_number   1
_chemical_formula_structural   Mg2Pd5
_chemical_formula_sum   'Mg2 Pd5'
_cell_volume   121.49410687
_cell_formula_units_Z   1
loop_
 _symmetry_equiv_pos_site_id
 _symmetry_equiv_pos_as_xyz
  1  'x, y, z'
loop_
 _atom_site_type_symbol
 _atom_site_label
 _atom_site_symmetry_multiplicity
 _atom_site_fract_x
 _atom_site_fract_y
 _atom_site_fract_z
 _atom_site_occupancy
  Mg  Mg0  1  0.00000000  0.00000000  0.00000000  1
  Mg  Mg1  1  0.00000000  0.00000000  0.49999998  1
  Pd  Pd2  1  0.00000003  0.50000002  0.49999996  1
  Pd  Pd3  1  0.50000003  0.00000000  0.49999996  1
  Pd  Pd4  1  0.50000006  0.50000002  -0.00000004  1
  Pd  Pd5  1  0.50000003  0.00000000  -0.00000002  1
  Pd  Pd6  1  0.00000003  0.50000002  -0.00000002  1
