# generated using pymatgen
data_Ti5P3C
_symmetry_space_group_name_H-M   'P 1'
_cell_length_a   5.31003904
_cell_length_b   7.67326784
_cell_length_c   7.67326880
_cell_angle_alpha   120.00000000
_cell_angle_beta   90.00000000
_cell_angle_gamma   90.00000000
_symmetry_Int_Tables_number   1
_chemical_formula_structural   Ti5P3C
_chemical_formula_sum   'Ti10 P6 C2'
_cell_volume   270.76287430
_cell_formula_units_Z   2
loop_
 _symmetry_equiv_pos_site_id
 _symmetry_equiv_pos_as_xyz
  1  'x, y, z'
loop_
 _atom_site_type_symbol
 _atom_site_label
 _atom_site_symmetry_multiplicity
 _atom_site_fract_x
 _atom_site_fract_y
 _atom_site_fract_z
 _atom_site_occupancy
  Ti  Ti0  1  0.50000000  0.33333335  0.66666670  1
  Ti  Ti1  1  0.50000000  0.66666671  0.33333338  1
  Ti  Ti2  1  0.99999999  0.66666671  0.33333338  1
  Ti  Ti3  1  0.99999999  0.33333335  0.66666670  1
  Ti  Ti4  1  0.74999999  0.24710501  0.00000002  1
  Ti  Ti5  1  0.74999999  0.75289504  0.75289506  1
  Ti  Ti6  1  0.74999999  0.00000000  0.24710500  1
  Ti  Ti7  1  0.25000000  0.75289504  0.00000006  1
  Ti  Ti8  1  0.25000000  0.24710501  0.24710502  1
  Ti  Ti9  1  0.25000000  1.00000006  0.75289508  1
  P  P10  1  0.74999999  0.59871703  0.00000004  1
  P  P11  1  0.74999999  0.40128302  0.40128303  1
  P  P12  1  0.74999999  0.00000000  0.59871700  1
  P  P13  1  0.25000000  0.40128302  0.00000003  1
  P  P14  1  0.25000000  0.59871703  0.59871705  1
  P  P15  1  0.25000000  0.00000000  0.40128300  1
  C  C16  1  0.50000000  0.00000000  -0.00000000  1
  C  C17  1  0.00000000  0.00000000  0.00000000  1
