# generated using pymatgen
data_Sc5Ag4
_symmetry_space_group_name_H-M   'P 1'
_cell_length_a   5.99734688
_cell_length_b   8.88253021
_cell_length_c   8.88253021
_cell_angle_alpha   120.00000000
_cell_angle_beta   90.00000000
_cell_angle_gamma   90.00000000
_symmetry_Int_Tables_number   1
_chemical_formula_structural   Sc5Ag4
_chemical_formula_sum   'Sc10 Ag8'
_cell_volume   409.79172741
_cell_formula_units_Z   2
loop_
 _symmetry_equiv_pos_site_id
 _symmetry_equiv_pos_as_xyz
  1  'x, y, z'
loop_
 _atom_site_type_symbol
 _atom_site_label
 _atom_site_symmetry_multiplicity
 _atom_site_fract_x
 _atom_site_fract_y
 _atom_site_fract_z
 _atom_site_occupancy
  Sc  Sc0  1  1.00000002  0.33333333  0.66666668  1
  Sc  Sc1  1  1.00000002  0.66666666  0.33333335  1
  Sc  Sc2  1  0.50000001  0.66666666  0.33333335  1
  Sc  Sc3  1  0.50000001  0.33333333  0.66666668  1
  Sc  Sc4  1  0.25000001  0.27951800  0.00000001  1
  Sc  Sc5  1  0.25000001  0.72048199  0.72048203  1
  Sc  Sc6  1  0.25000001  0.00000000  0.27951800  1
  Sc  Sc7  1  0.75000002  0.72048199  0.00000002  1
  Sc  Sc8  1  0.75000002  0.27951800  0.27951801  1
  Sc  Sc9  1  0.75000002  0.99999999  0.72048203  1
  Ag  Ag10  1  0.00000000  0.00000000  0.00000000  1
  Ag  Ag11  1  0.50000001  0.00000000  -0.00000000  1
  Ag  Ag12  1  0.25000001  0.62261699  0.00000001  1
  Ag  Ag13  1  0.25000001  0.37738300  0.37738301  1
  Ag  Ag14  1  0.25000001  0.00000000  0.62261701  1
  Ag  Ag15  1  0.75000002  0.37738300  0.00000001  1
  Ag  Ag16  1  0.75000002  0.62261699  0.62261702  1
  Ag  Ag17  1  0.75000002  0.99999999  0.37738303  1
