# generated using pymatgen
data_LiMnF4
_symmetry_space_group_name_H-M   'P 1'
_cell_length_a   4.74466085
_cell_length_b   4.74466085
_cell_length_c   9.25582218
_cell_angle_alpha   90.00000000
_cell_angle_beta   90.00000000
_cell_angle_gamma   90.00000000
_symmetry_Int_Tables_number   1
_chemical_formula_structural   LiMnF4
_chemical_formula_sum   'Li3 Mn3 F12'
_cell_volume   208.36527909
_cell_formula_units_Z   3
loop_
 _symmetry_equiv_pos_site_id
 _symmetry_equiv_pos_as_xyz
  1  'x, y, z'
loop_
 _atom_site_type_symbol
 _atom_site_label
 _atom_site_symmetry_multiplicity
 _atom_site_fract_x
 _atom_site_fract_y
 _atom_site_fract_z
 _atom_site_occupancy
  Li  Li0  1  0.00000000  0.00000000  0.33595799  1
  Li  Li1  1  0.50000002  0.50000002  0.83595798  1
  Li  Li2  1  0.00000000  0.00000000  0.66404199  1
  Mn  Mn3  1  0.50000002  0.50000002  0.16404200  1
  Mn  Mn4  1  0.50000002  0.50000002  0.49999999  1
  Mn  Mn5  1  0.00000000  0.00000000  0.00000000  1
  F  F6  1  0.30863301  0.69136702  0.65889899  1
  F  F7  1  0.19136701  0.19136701  0.84110098  1
  F  F8  1  0.70893602  0.29106401  -0.00000000  1
  F  F9  1  0.79106402  0.79106402  0.49999999  1
  F  F10  1  0.29106401  0.70893602  0.00000000  1
  F  F11  1  0.20893601  0.20893601  0.49999999  1
  F  F12  1  0.19136701  0.19136701  0.15889900  1
  F  F13  1  0.30863301  0.69136702  0.34110099  1
  F  F14  1  0.80863302  0.80863302  0.84110098  1
  F  F15  1  0.69136702  0.30863301  0.65889899  1
  F  F16  1  0.80863302  0.80863302  0.15889900  1
  F  F17  1  0.69136702  0.30863301  0.34110099  1
