# generated using pymatgen
data_NaVO5
_symmetry_space_group_name_H-M   'P 1'
_cell_length_a   5.19329023
_cell_length_b   5.21055079
_cell_length_c   8.67047405
_cell_angle_alpha   93.36011505
_cell_angle_beta   90.00000000
_cell_angle_gamma   119.89048004
_symmetry_Int_Tables_number   1
_chemical_formula_structural   NaVO5
_chemical_formula_sum   'Na2 V2 O10'
_cell_volume   202.94727371
_cell_formula_units_Z   2
loop_
 _symmetry_equiv_pos_site_id
 _symmetry_equiv_pos_as_xyz
  1  'x, y, z'
loop_
 _atom_site_type_symbol
 _atom_site_label
 _atom_site_symmetry_multiplicity
 _atom_site_fract_x
 _atom_site_fract_y
 _atom_site_fract_z
 _atom_site_occupancy
  Na  Na0  1  0.00862902  0.99681100  0.75135403  1
  Na  Na1  1  0.01181800  0.00318900  0.24864600  1
  V  V2  1  0.32434400  0.66558300  0.44536102  1
  V  V3  1  0.65876098  0.33441700  0.55463901  1
  O  O4  1  0.65172298  0.33807600  0.94552902  1
  O  O5  1  0.31364700  0.66192400  0.05447102  1
  O  O6  1  0.56731898  0.34889600  0.74973402  1
  O  O7  1  0.21842300  0.65110400  0.25026602  1
  O  O8  1  0.37622299  0.35480100  0.45400201  1
  O  O9  1  0.66116797  0.00000000  0.50000000  1
  O  O10  1  0.02142201  0.64519900  0.54599802  1
  O  O11  1  0.64567199  0.64509800  0.04182602  1
  O  O12  1  0.35179498  0.00000000  1.00000001  1
  O  O13  1  0.00057401  0.35490200  0.95817402  1
