# generated using pymatgen
data_Li2Ni3O5
_symmetry_space_group_name_H-M   'P 1'
_cell_length_a   2.84522796
_cell_length_b   4.82006550
_cell_length_c   6.93823481
_cell_angle_alpha   90.00000000
_cell_angle_beta   90.00000000
_cell_angle_gamma   107.16617584
_symmetry_Int_Tables_number   1
_chemical_formula_structural   Li2Ni3O5
_chemical_formula_sum   'Li2 Ni3 O5'
_cell_volume   90.91346741
_cell_formula_units_Z   1
loop_
 _symmetry_equiv_pos_site_id
 _symmetry_equiv_pos_as_xyz
  1  'x, y, z'
loop_
 _atom_site_type_symbol
 _atom_site_label
 _atom_site_symmetry_multiplicity
 _atom_site_fract_x
 _atom_site_fract_y
 _atom_site_fract_z
 _atom_site_occupancy
  Li  Li0  1  0.14565297  0.29130601  0.81457202  1
  Li  Li1  1  0.86248794  0.72497601  0.68364402  1
  Ni  Ni2  1  0.14565297  0.29130601  0.18542801  1
  Ni  Ni3  1  0.86248794  0.72497601  0.31635601  1
  Ni  Ni4  1  0.39663093  0.79326202  -0.00000000  1
  O  O5  1  0.58357899  0.16715800  0.50000001  1
  O  O6  1  0.24479695  0.48959401  0.50000001  1
  O  O7  1  0.50273701  0.00547400  0.75761202  1
  O  O8  1  0.50273701  0.00547400  0.24238801  1
  O  O9  1  0.75323396  0.50646801  -0.00000000  1
