# generated using pymatgen
data_YNi9P4
_symmetry_space_group_name_H-M   'P 1'
_cell_length_a   3.76160097
_cell_length_b   7.04011679
_cell_length_c   7.04011679
_cell_angle_alpha   90.00000000
_cell_angle_beta   90.00000000
_cell_angle_gamma   90.00000000
_symmetry_Int_Tables_number   1
_chemical_formula_structural   YNi9P4
_chemical_formula_sum   'Y1 Ni9 P4'
_cell_volume   186.43714817
_cell_formula_units_Z   1
loop_
 _symmetry_equiv_pos_site_id
 _symmetry_equiv_pos_as_xyz
  1  'x, y, z'
loop_
 _atom_site_type_symbol
 _atom_site_label
 _atom_site_symmetry_multiplicity
 _atom_site_fract_x
 _atom_site_fract_y
 _atom_site_fract_z
 _atom_site_occupancy
  Y  Y0  1  0.50000000  0.50000002  0.50000002  1
  Ni  Ni1  1  0.00000000  0.00000000  0.00000000  1
  Ni  Ni2  1  0.50000000  0.64723002  0.91384303  1
  Ni  Ni3  1  0.50000000  0.35277001  0.08615700  1
  Ni  Ni4  1  1.00000001  0.14723000  0.58615702  1
  Ni  Ni5  1  1.00000001  0.85277003  0.41384301  1
  Ni  Ni6  1  0.50000000  0.91384303  0.64723002  1
  Ni  Ni7  1  0.50000000  0.08615700  0.35277001  1
  Ni  Ni8  1  -0.00000000  0.58615702  0.14723000  1
  Ni  Ni9  1  1.00000001  0.41384301  0.85277003  1
  P  P10  1  0.50000000  0.78074702  0.21925301  1
  P  P11  1  0.50000000  0.21925301  0.78074702  1
  P  P12  1  0.00000000  0.28074701  0.28074701  1
  P  P13  1  0.00000000  0.71925302  0.71925302  1
