# generated using pymatgen
data_LaIn4Rh
_symmetry_space_group_name_H-M   'P 1'
_cell_length_a   4.59822798
_cell_length_b   7.49112177
_cell_length_c   8.93360615
_cell_angle_alpha   90.00000000
_cell_angle_beta   104.91321564
_cell_angle_gamma   90.00000000
_symmetry_Int_Tables_number   1
_chemical_formula_structural   LaIn4Rh
_chemical_formula_sum   'La2 In8 Rh2'
_cell_volume   297.36076353
_cell_formula_units_Z   2
loop_
 _symmetry_equiv_pos_site_id
 _symmetry_equiv_pos_as_xyz
  1  'x, y, z'
loop_
 _atom_site_type_symbol
 _atom_site_label
 _atom_site_symmetry_multiplicity
 _atom_site_fract_x
 _atom_site_fract_y
 _atom_site_fract_z
 _atom_site_occupancy
  La  La0  1  0.12292900  0.75000002  0.24585799  1
  La  La1  1  0.87707101  0.25000001  0.75414199  1
  In  In2  1  0.50000001  0.50000002  0.00000001  1
  In  In3  1  0.50000001  0.00000000  0.00000001  1
  In  In4  1  0.68399201  0.04803400  0.36798400  1
  In  In5  1  0.31600800  0.95196603  0.63201598  1
  In  In6  1  0.31600800  0.54803402  0.63201598  1
  In  In7  1  0.68399201  0.45196601  0.36798400  1
  In  In8  1  0.06775100  0.25000001  0.13550200  1
  In  In9  1  0.93224901  0.75000002  0.86449799  1
  Rh  Rh10  1  0.22428900  0.25000001  0.44857799  1
  Rh  Rh11  1  0.77571101  0.75000002  0.55142200  1
