# generated using pymatgen
data_Ce(GaGe)2
_symmetry_space_group_name_H-M   'P 1'
_cell_length_a   4.31960392
_cell_length_b   4.31960487
_cell_length_c   6.74174213
_cell_angle_alpha   90.00000000
_cell_angle_beta   90.00000000
_cell_angle_gamma   119.99999237
_symmetry_Int_Tables_number   1
_chemical_formula_structural   Ce(GaGe)2
_chemical_formula_sum   'Ce1 Ga2 Ge2'
_cell_volume   108.94084795
_cell_formula_units_Z   1
loop_
 _symmetry_equiv_pos_site_id
 _symmetry_equiv_pos_as_xyz
  1  'x, y, z'
loop_
 _atom_site_type_symbol
 _atom_site_label
 _atom_site_symmetry_multiplicity
 _atom_site_fract_x
 _atom_site_fract_y
 _atom_site_fract_z
 _atom_site_occupancy
  Ce  Ce0  1  0.00000000  0.00000000  0.00000000  1
  Ga  Ga1  1  0.33333334  0.66666669  0.64311399  1
  Ga  Ga2  1  0.66666668  0.33333335  0.35688599  1
  Ge  Ge3  1  0.33333334  0.66666669  0.26217699  1
  Ge  Ge4  1  0.66666668  0.33333335  0.73782299  1
