# generated using pymatgen
data_Nb4Fe6NiGe
_symmetry_space_group_name_H-M   'P 1'
_cell_length_a   5.09623194
_cell_length_b   6.19482708
_cell_length_c   6.19482708
_cell_angle_alpha   90.00000000
_cell_angle_beta   90.00000000
_cell_angle_gamma   90.00000000
_symmetry_Int_Tables_number   1
_chemical_formula_structural   Nb4Fe6NiGe
_chemical_formula_sum   'Nb4 Fe6 Ni1 Ge1'
_cell_volume   195.57239827
_cell_formula_units_Z   1
loop_
 _symmetry_equiv_pos_site_id
 _symmetry_equiv_pos_as_xyz
  1  'x, y, z'
loop_
 _atom_site_type_symbol
 _atom_site_label
 _atom_site_symmetry_multiplicity
 _atom_site_fract_x
 _atom_site_fract_y
 _atom_site_fract_z
 _atom_site_occupancy
  Nb  Nb0  1  1.00000001  0.15286400  0.33153800  1
  Nb  Nb1  1  0.00000000  0.33153800  0.84713599  1
  Nb  Nb2  1  0.00000000  0.84713599  0.66846199  1
  Nb  Nb3  1  0.50000001  0.66846199  0.84713599  1
  Fe  Fe4  1  0.50000001  0.15286400  0.66846199  1
  Fe  Fe5  1  0.50000001  0.84713599  0.33153800  1
  Fe  Fe6  1  0.00000000  0.66846199  0.15286400  1
  Fe  Fe7  1  0.50000001  0.33153800  0.15286400  1
  Fe  Fe8  1  0.75000001  0.00000000  -0.00000000  1
  Fe  Fe9  1  0.25000000  0.00000000  0.00000000  1
  Ni  Ni10  1  0.75000001  0.49999999  0.49999999  1
  Ge  Ge11  1  0.25000000  0.49999999  0.49999999  1
