# generated using pymatgen
data_LaScSi
_symmetry_space_group_name_H-M   'P 1'
_cell_length_a   4.31092596
_cell_length_b   4.31092596
_cell_length_c   8.57217026
_cell_angle_alpha   104.56327057
_cell_angle_beta   104.56327057
_cell_angle_gamma   90.00000000
_symmetry_Int_Tables_number   1
_chemical_formula_structural   LaScSi
_chemical_formula_sum   'La2 Sc2 Si2'
_cell_volume   148.89325208
_cell_formula_units_Z   2
loop_
 _symmetry_equiv_pos_site_id
 _symmetry_equiv_pos_as_xyz
  1  'x, y, z'
loop_
 _atom_site_type_symbol
 _atom_site_label
 _atom_site_symmetry_multiplicity
 _atom_site_fract_x
 _atom_site_fract_y
 _atom_site_fract_z
 _atom_site_occupancy
  La  La0  1  0.32361601  0.32361601  0.64723201  1
  La  La1  1  0.67638402  0.67638401  0.35276802  1
  Sc  Sc2  1  0.50000001  0.00000000  0.00000001  1
  Sc  Sc3  1  0.00000001  0.50000001  1.00000001  1
  Si  Si4  1  0.12021700  0.12021700  0.24043400  1
  Si  Si5  1  0.87978303  0.87978302  0.75956603  1
