# generated using pymatgen
data_AuS2
_symmetry_space_group_name_H-M   'P 1'
_cell_length_a   6.26745081
_cell_length_b   6.57324886
_cell_length_c   7.52471161
_cell_angle_alpha   87.24963379
_cell_angle_beta   88.87848663
_cell_angle_gamma   80.91468048
_symmetry_Int_Tables_number   1
_chemical_formula_structural   AuS2
_chemical_formula_sum   'Au4 S8'
_cell_volume   305.73502156
_cell_formula_units_Z   4
loop_
 _symmetry_equiv_pos_site_id
 _symmetry_equiv_pos_as_xyz
  1  'x, y, z'
loop_
 _atom_site_type_symbol
 _atom_site_label
 _atom_site_symmetry_multiplicity
 _atom_site_fract_x
 _atom_site_fract_y
 _atom_site_fract_z
 _atom_site_occupancy
  Au  Au0  1  0.79558601  0.30455901  0.94299000  1
  Au  Au1  1  0.20441397  0.69544102  0.05700997  1
  Au  Au2  1  0.68841699  0.73735102  0.16824297  1
  Au  Au3  1  0.31158300  0.26264901  0.83175700  1
  S  S4  1  0.57874701  0.23098401  0.67539500  1
  S  S5  1  0.42125298  0.76901602  0.32460498  1
  S  S6  1  0.87872698  0.96425702  0.18650096  1
  S  S7  1  0.12127300  0.03574300  0.81349901  1
  S  S8  1  0.59515698  0.70896402  0.91016999  1
  S  S9  1  0.40484300  0.29103601  0.08982999  1
  S  S10  1  0.91681400  0.48071901  0.22943598  1
  S  S11  1  0.08318598  0.51928101  0.77056400  1
