# generated using pymatgen
data_Ce2Fe2B2C5
_symmetry_space_group_name_H-M   'P 1'
_cell_length_a   3.47112393
_cell_length_b   5.75559711
_cell_length_c   5.75559711
_cell_angle_alpha   96.30179596
_cell_angle_beta   90.00000000
_cell_angle_gamma   90.00000000
_symmetry_Int_Tables_number   1
_chemical_formula_structural   Ce2Fe2B2C5
_chemical_formula_sum   'Ce2 Fe2 B2 C5'
_cell_volume   114.29275838
_cell_formula_units_Z   1
loop_
 _symmetry_equiv_pos_site_id
 _symmetry_equiv_pos_as_xyz
  1  'x, y, z'
loop_
 _atom_site_type_symbol
 _atom_site_label
 _atom_site_symmetry_multiplicity
 _atom_site_fract_x
 _atom_site_fract_y
 _atom_site_fract_z
 _atom_site_occupancy
  Ce  Ce0  1  -0.00000000  0.72723098  0.27276903  1
  Ce  Ce1  1  -0.00000000  0.27276899  0.72723099  1
  Fe  Fe2  1  -0.00000000  0.77312798  0.77312802  1
  Fe  Fe3  1  1.00000002  0.22687199  0.22687201  1
  B  B4  1  0.50000001  0.00000000  -0.00000000  1
  B  B5  1  0.50000001  0.61305398  0.61305401  1
  C  C6  1  0.50000001  0.38694599  0.38694601  1
  C  C7  1  0.50000001  0.91055297  0.61021703  1
  C  C8  1  0.50000001  0.08944700  0.38978299  1
  C  C9  1  0.50000001  0.61021698  0.91055300  1
  C  C10  1  0.50000001  0.38978299  0.08944702  1
