# generated using pymatgen
data_NdInRh
_symmetry_space_group_name_H-M   'P 1'
_cell_length_a   4.57654476
_cell_length_b   7.10785818
_cell_length_c   7.93066120
_cell_angle_alpha   90.00000000
_cell_angle_beta   90.00000000
_cell_angle_gamma   90.00000000
_symmetry_Int_Tables_number   1
_chemical_formula_structural   NdInRh
_chemical_formula_sum   'Nd4 In4 Rh4'
_cell_volume   257.97989733
_cell_formula_units_Z   4
loop_
 _symmetry_equiv_pos_site_id
 _symmetry_equiv_pos_as_xyz
  1  'x, y, z'
loop_
 _atom_site_type_symbol
 _atom_site_label
 _atom_site_symmetry_multiplicity
 _atom_site_fract_x
 _atom_site_fract_y
 _atom_site_fract_z
 _atom_site_occupancy
  Nd  Nd0  1  0.25000001  0.03106700  0.69017298  1
  Nd  Nd1  1  0.25000001  0.53106699  0.80982698  1
  Nd  Nd2  1  0.75000004  0.96893298  0.30982699  1
  Nd  Nd3  1  0.75000004  0.46893299  0.19017300  1
  In  In4  1  0.25000001  0.15897000  0.06866700  1
  In  In5  1  0.25000001  0.65896998  0.43133299  1
  In  In6  1  0.75000004  0.84102998  0.93133298  1
  In  In7  1  0.75000004  0.34102999  0.56866699  1
  Rh  Rh8  1  0.25000001  0.28201099  0.39064199  1
  Rh  Rh9  1  0.25000001  0.78201098  0.10935800  1
  Rh  Rh10  1  0.75000004  0.71798898  0.60935798  1
  Rh  Rh11  1  0.75000004  0.21798899  0.89064198  1
