# generated using pymatgen
data_La2ZrS4
_symmetry_space_group_name_H-M   'P 1'
_cell_length_a   4.01012182
_cell_length_b   4.01012182
_cell_length_c   8.63439369
_cell_angle_alpha   103.42768860
_cell_angle_beta   103.42768860
_cell_angle_gamma   90.00000000
_symmetry_Int_Tables_number   1
_chemical_formula_structural   La2ZrS4
_chemical_formula_sum   'La2 Zr1 S4'
_cell_volume   131.14925471
_cell_formula_units_Z   1
loop_
 _symmetry_equiv_pos_site_id
 _symmetry_equiv_pos_as_xyz
  1  'x, y, z'
loop_
 _atom_site_type_symbol
 _atom_site_label
 _atom_site_symmetry_multiplicity
 _atom_site_fract_x
 _atom_site_fract_y
 _atom_site_fract_z
 _atom_site_occupancy
  La  La0  1  0.00000000  0.00000000  0.00000000  1
  La  La1  1  0.60729405  0.60729403  0.21458803  1
  Zr  Zr2  1  0.39270603  0.39270602  0.78541201  1
  S  S3  1  0.18055201  0.18055201  0.36110400  1
  S  S4  1  0.81944807  0.81944805  0.63889603  1
  S  S5  1  1.00000007  0.50000003  1.00000002  1
  S  S6  1  0.50000005  1.00000006  1.00000002  1
