# generated using pymatgen
data_DyIn2
_symmetry_space_group_name_H-M   'P 1'
_cell_length_a   4.88344622
_cell_length_b   4.88344574
_cell_length_c   7.41707993
_cell_angle_alpha   90.00000000
_cell_angle_beta   90.00000000
_cell_angle_gamma   120.00000000
_symmetry_Int_Tables_number   1
_chemical_formula_structural   DyIn2
_chemical_formula_sum   'Dy2 In4'
_cell_volume   153.18504421
_cell_formula_units_Z   2
loop_
 _symmetry_equiv_pos_site_id
 _symmetry_equiv_pos_as_xyz
  1  'x, y, z'
loop_
 _atom_site_type_symbol
 _atom_site_label
 _atom_site_symmetry_multiplicity
 _atom_site_fract_x
 _atom_site_fract_y
 _atom_site_fract_z
 _atom_site_occupancy
  Dy  Dy0  1  0.00000000  0.00000000  0.73753801  1
  Dy  Dy1  1  0.00000000  0.00000000  0.26246200  1
  In  In2  1  0.66666663  0.33333333  0.52617201  1
  In  In3  1  0.33333330  0.66666666  0.47382800  1
  In  In4  1  0.33333330  0.66666666  0.05214600  1
  In  In5  1  0.66666663  0.33333333  0.94785401  1
