# generated using pymatgen
data_V2WSO7
_symmetry_space_group_name_H-M   'P 1'
_cell_length_a   3.71323800
_cell_length_b   4.33319902
_cell_length_c   9.86750221
_cell_angle_alpha   90.00000000
_cell_angle_beta   100.84512329
_cell_angle_gamma   90.00000000
_symmetry_Int_Tables_number   1
_chemical_formula_structural   V2WSO7
_chemical_formula_sum   'V2 W1 S1 O7'
_cell_volume   155.93434404
_cell_formula_units_Z   1
loop_
 _symmetry_equiv_pos_site_id
 _symmetry_equiv_pos_as_xyz
  1  'x, y, z'
loop_
 _atom_site_type_symbol
 _atom_site_label
 _atom_site_symmetry_multiplicity
 _atom_site_fract_x
 _atom_site_fract_y
 _atom_site_fract_z
 _atom_site_occupancy
  V  V0  1  0.31205100  0.95597199  0.62410197  1
  V  V1  1  0.68794899  0.95597199  0.37589797  1
  W  W2  1  0.49999999  0.96389199  -0.00000001  1
  S  S3  1  0.49999999  0.56719300  -0.00000001  1
  O  O4  1  0.20933400  0.04009600  0.41866798  1
  O  O5  1  0.40243500  0.05450300  0.80486996  1
  O  O6  1  0.68609499  0.58278600  0.37218997  1
  O  O7  1  0.79066599  0.04009600  0.58133196  1
  O  O8  1  0.31390500  0.58278600  0.62780997  1
  O  O9  1  0.59756499  0.05450300  0.19512998  1
  O  O10  1  0.00000000  0.05519100  -0.00000000  1
