# generated using pymatgen
data_Dy4Si5Ir3
_symmetry_space_group_name_H-M   'P 1'
_cell_length_a   4.22789478
_cell_length_b   6.86156797
_cell_length_c   7.37485504
_cell_angle_alpha   90.00000000
_cell_angle_beta   90.00000000
_cell_angle_gamma   90.00000000
_symmetry_Int_Tables_number   1
_chemical_formula_structural   Dy4Si5Ir3
_chemical_formula_sum   'Dy4 Si5 Ir3'
_cell_volume   213.94445213
_cell_formula_units_Z   1
loop_
 _symmetry_equiv_pos_site_id
 _symmetry_equiv_pos_as_xyz
  1  'x, y, z'
loop_
 _atom_site_type_symbol
 _atom_site_label
 _atom_site_symmetry_multiplicity
 _atom_site_fract_x
 _atom_site_fract_y
 _atom_site_fract_z
 _atom_site_occupancy
  Dy  Dy0  1  0.25000001  0.01655100  0.80913600  1
  Dy  Dy1  1  0.25000001  0.51655100  0.69086400  1
  Dy  Dy2  1  0.75000004  0.98344900  0.19086400  1
  Dy  Dy3  1  0.75000004  0.48344900  0.30913600  1
  Si  Si4  1  0.25000001  0.17319700  0.42185800  1
  Si  Si5  1  0.25000001  0.67319700  0.07814200  1
  Si  Si6  1  0.75000004  0.82680300  0.57814200  1
  Si  Si7  1  0.75000004  0.32680300  0.92185799  1
  Ir  Ir8  1  0.25000001  0.79772200  0.39962500  1
  Si  Si9  1  0.25000001  0.29772200  0.10037500  1
  Ir  Ir10  1  0.75000004  0.20227800  0.60037500  1
  Ir  Ir11  1  0.75000004  0.70227800  0.89962499  1
