# generated using pymatgen
data_CuAsPSe2SClO7
_symmetry_space_group_name_H-M   'P 1'
_cell_length_a   6.48670721
_cell_length_b   7.78822994
_cell_length_c   8.08295155
_cell_angle_alpha   93.40808868
_cell_angle_beta   106.13207245
_cell_angle_gamma   109.94213104
_symmetry_Int_Tables_number   1
_chemical_formula_structural   CuAsPSe2SClO7
_chemical_formula_sum   'Cu1 As1 P1 Se2 S1 Cl1 O7'
_cell_volume   363.33263715
_cell_formula_units_Z   1
loop_
 _symmetry_equiv_pos_site_id
 _symmetry_equiv_pos_as_xyz
  1  'x, y, z'
loop_
 _atom_site_type_symbol
 _atom_site_label
 _atom_site_symmetry_multiplicity
 _atom_site_fract_x
 _atom_site_fract_y
 _atom_site_fract_z
 _atom_site_occupancy
  P  P0  1  0.70290198  0.19553300  0.84518596  1
  Cu  Cu1  1  0.29709804  0.80446702  0.15481401  1
  As  As2  1  0.38955704  0.76426902  0.77802199  1
  Se  Se3  1  0.61044299  0.23573101  0.22197798  1
  Cl  Cl4  1  0.93571001  0.72299202  0.09134898  1
  Se  Se5  1  0.08401705  0.79796902  0.64124601  1
  S  S6  1  0.06429002  0.27700801  0.90865099  1
  O  O7  1  0.45819503  0.67857101  0.34691399  1
  O  O8  1  0.91598297  0.20203100  0.35875396  1
  O  O9  1  0.54180500  0.32142901  0.65308598  1
  O  O10  1  0.57747404  0.94439902  0.77570899  1
  O  O11  1  0.61962099  0.23103401  0.03655998  1
  O  O12  1  0.38037904  0.76896602  0.96343999  1
  O  O13  1  0.42252598  0.05560100  0.22429098  1
