# generated using pymatgen
data_Sc2B3Ir5
_symmetry_space_group_name_H-M   'P 1'
_cell_length_a   3.07685590
_cell_length_b   9.38048458
_cell_length_c   9.38048458
_cell_angle_alpha   90.00000000
_cell_angle_beta   90.00000000
_cell_angle_gamma   90.00000000
_symmetry_Int_Tables_number   1
_chemical_formula_structural   Sc2B3Ir5
_chemical_formula_sum   'Sc4 B6 Ir10'
_cell_volume   270.74329168
_cell_formula_units_Z   2
loop_
 _symmetry_equiv_pos_site_id
 _symmetry_equiv_pos_as_xyz
  1  'x, y, z'
loop_
 _atom_site_type_symbol
 _atom_site_label
 _atom_site_symmetry_multiplicity
 _atom_site_fract_x
 _atom_site_fract_y
 _atom_site_fract_z
 _atom_site_occupancy
  Sc  Sc0  1  -0.00000000  0.17643601  0.67643603  1
  Sc  Sc1  1  1.00000003  0.82356404  0.32356401  1
  Sc  Sc2  1  -0.00000000  0.32356401  0.17643601  1
  Sc  Sc3  1  -0.00000000  0.67643603  0.82356404  1
  B  B4  1  0.00000000  0.00000000  0.00000000  1
  B  B5  1  0.00000000  0.50000002  0.50000002  1
  B  B6  1  0.00000000  0.37544702  0.87544704  1
  B  B7  1  1.00000003  0.87544704  0.62455303  1
  B  B8  1  1.00000003  0.12455301  0.37544702  1
  B  B9  1  -0.00000000  0.62455303  0.12455301  1
  Ir  Ir10  1  0.50000002  0.50000002  0.00000000  1
  Ir  Ir11  1  0.50000002  0.71568703  0.56950903  1
  Ir  Ir12  1  0.50000002  0.56950903  0.28431301  1
  Ir  Ir13  1  0.50000002  0.43049102  0.71568703  1
  Ir  Ir14  1  0.50000002  0.28431301  0.43049102  1
  Ir  Ir15  1  0.50000002  0.00000000  0.50000002  1
  Ir  Ir16  1  0.50000002  0.93049104  0.78431304  1
  Ir  Ir17  1  0.50000002  0.78431304  0.06950900  1
  Ir  Ir18  1  0.50000002  0.21568701  0.93049104  1
  Ir  Ir19  1  0.50000002  0.06950900  0.21568701  1
