# generated using pymatgen
data_MnAu
_symmetry_space_group_name_H-M   'P 1'
_cell_length_a   2.78492808
_cell_length_b   2.78492856
_cell_length_c   8.96536732
_cell_angle_alpha   90.00000000
_cell_angle_beta   90.00000000
_cell_angle_gamma   119.99999237
_symmetry_Int_Tables_number   1
_chemical_formula_structural   MnAu
_chemical_formula_sum   'Mn2 Au2'
_cell_volume   60.21806503
_cell_formula_units_Z   2
loop_
 _symmetry_equiv_pos_site_id
 _symmetry_equiv_pos_as_xyz
  1  'x, y, z'
loop_
 _atom_site_type_symbol
 _atom_site_label
 _atom_site_symmetry_multiplicity
 _atom_site_fract_x
 _atom_site_fract_y
 _atom_site_fract_z
 _atom_site_occupancy
  Mn  Mn0  1  0.00000000  0.00000000  0.00000000  1
  Mn  Mn1  1  0.66666664  0.33333332  0.74999997  1
  Au  Au2  1  0.00000000  0.00000000  0.49999998  1
  Au  Au3  1  0.33333330  0.66666665  0.24999999  1
