# generated using pymatgen
data_SmCdPd
_symmetry_space_group_name_H-M   'P 1'
_cell_length_a   3.99248195
_cell_length_b   7.75897789
_cell_length_c   7.75897694
_cell_angle_alpha   120.00000763
_cell_angle_beta   90.00000000
_cell_angle_gamma   90.00000000
_symmetry_Int_Tables_number   1
_chemical_formula_structural   SmCdPd
_chemical_formula_sum   'Sm3 Cd3 Pd3'
_cell_volume   208.15293292
_cell_formula_units_Z   3
loop_
 _symmetry_equiv_pos_site_id
 _symmetry_equiv_pos_as_xyz
  1  'x, y, z'
loop_
 _atom_site_type_symbol
 _atom_site_label
 _atom_site_symmetry_multiplicity
 _atom_site_fract_x
 _atom_site_fract_y
 _atom_site_fract_z
 _atom_site_occupancy
  Sm  Sm0  1  0.50000001  0.60004103  0.00000005  1
  Sm  Sm1  1  0.50000001  1.00000005  0.60004109  1
  Sm  Sm2  1  0.50000001  0.39995902  0.39995904  1
  Cd  Cd3  1  1.00000001  1.00000005  0.26673408  1
  Cd  Cd4  1  -0.00000000  0.73326604  0.73326607  1
  Cd  Cd5  1  -0.00000000  0.26673401  0.00000002  1
  Pd  Pd6  1  0.50000001  0.00000000  -0.00000000  1
  Pd  Pd7  1  -0.00000000  0.66666670  0.33333339  1
  Pd  Pd8  1  -0.00000000  0.33333335  0.66666670  1
