# generated using pymatgen
data_Sr2TlF7
_symmetry_space_group_name_H-M   'P 1'
_cell_length_a   4.17871618
_cell_length_b   7.38593388
_cell_length_c   16.70880890
_cell_angle_alpha   90.00000000
_cell_angle_beta   90.00000000
_cell_angle_gamma   90.00000000
_symmetry_Int_Tables_number   1
_chemical_formula_structural   Sr2TlF7
_chemical_formula_sum   'Sr4 Tl2 F14'
_cell_volume   515.69602299
_cell_formula_units_Z   2
loop_
 _symmetry_equiv_pos_site_id
 _symmetry_equiv_pos_as_xyz
  1  'x, y, z'
loop_
 _atom_site_type_symbol
 _atom_site_label
 _atom_site_symmetry_multiplicity
 _atom_site_fract_x
 _atom_site_fract_y
 _atom_site_fract_z
 _atom_site_occupancy
  Sr  Sr0  1  0.24999999  0.69960801  0.03834300  1
  Sr  Sr1  1  0.24999999  0.25846600  0.16451799  1
  Sr  Sr2  1  0.74999997  0.75846601  0.33548198  1
  Sr  Sr3  1  0.74999997  0.19960800  0.46165698  1
  Tl  Tl4  1  0.24999999  0.80039201  0.53834297  1
  Tl  Tl5  1  0.24999999  0.24153400  0.66451796  1
  F  F6  1  0.74999997  0.74153401  0.83548196  1
  F  F7  1  0.74999997  0.30039201  0.96165695  1
  F  F8  1  0.74999997  0.01040500  0.10092399  1
  F  F9  1  0.74999997  0.54924301  0.17645799  1
  F  F10  1  0.24999999  0.04924300  0.32354198  1
  F  F11  1  0.24999999  0.51040501  0.39907598  1
  F  F12  1  0.74999997  0.48959501  0.60092397  1
  F  F13  1  0.74999997  0.95075702  0.67645796  1
  F  F14  1  0.24999999  0.45075701  0.82354196  1
  F  F15  1  0.24999999  0.98959502  0.89907595  1
  F  F16  1  0.24999999  0.37185701  0.03203400  1
  F  F17  1  0.74999997  0.87185701  0.46796597  1
  F  F18  1  0.24999999  0.12814300  0.53203397  1
  F  F19  1  0.74999997  0.62814301  0.96796595  1
