# generated using pymatgen
data_LiU3C8
_symmetry_space_group_name_H-M   'P 1'
_cell_length_a   3.71223402
_cell_length_b   4.88516378
_cell_length_c   7.04589510
_cell_angle_alpha   90.00000000
_cell_angle_beta   90.00000000
_cell_angle_gamma   90.00000000
_symmetry_Int_Tables_number   1
_chemical_formula_structural   LiU3C8
_chemical_formula_sum   'Li1 U3 C8'
_cell_volume   127.77640007
_cell_formula_units_Z   1
loop_
 _symmetry_equiv_pos_site_id
 _symmetry_equiv_pos_as_xyz
  1  'x, y, z'
loop_
 _atom_site_type_symbol
 _atom_site_label
 _atom_site_symmetry_multiplicity
 _atom_site_fract_x
 _atom_site_fract_y
 _atom_site_fract_z
 _atom_site_occupancy
  Li  Li0  1  0.75000000  0.32640101  0.06426400  1
  U  U1  1  0.25000000  0.67359903  0.93573599  1
  U  U2  1  0.75000000  0.82640104  0.43573599  1
  U  U3  1  0.25000000  0.17359901  0.56426399  1
  C  C4  1  0.25000000  0.03708600  0.21765500  1
  C  C5  1  0.75000000  0.96291404  0.78234499  1
  C  C6  1  0.25000000  0.53708602  0.28234500  1
  C  C7  1  0.75000000  0.46291402  0.71765499  1
  C  C8  1  0.25000000  0.70285403  0.60639999  1
  C  C9  1  0.75000000  0.29714601  0.39359999  1
  C  C10  1  0.25000000  0.20285401  0.89359999  1
  C  C11  1  0.75000000  0.79714604  0.10640000  1
