# generated using pymatgen
data_PrIn7
_symmetry_space_group_name_H-M   'P 1'
_cell_length_a   5.02122879
_cell_length_b   6.85440779
_cell_length_c   6.85440779
_cell_angle_alpha   120.00000000
_cell_angle_beta   90.00000000
_cell_angle_gamma   90.00000000
_symmetry_Int_Tables_number   1
_chemical_formula_structural   PrIn7
_chemical_formula_sum   'Pr1 In7'
_cell_volume   204.30571650
_cell_formula_units_Z   1
loop_
 _symmetry_equiv_pos_site_id
 _symmetry_equiv_pos_as_xyz
  1  'x, y, z'
loop_
 _atom_site_type_symbol
 _atom_site_label
 _atom_site_symmetry_multiplicity
 _atom_site_fract_x
 _atom_site_fract_y
 _atom_site_fract_z
 _atom_site_occupancy
  Pr  Pr0  1  0.75000003  0.66666668  0.33333330  1
  In  In1  1  0.25000001  0.33333334  0.66666664  1
  In  In2  1  0.25000001  0.84299201  0.15700796  1
  In  In3  1  0.75000003  0.15700800  0.84299197  1
  In  In4  1  0.25000001  0.31401600  0.15700798  1
  In  In5  1  0.75000003  0.68598401  0.84299195  1
  In  In6  1  0.25000001  0.84299201  0.68598395  1
  In  In7  1  0.75000003  0.15700800  0.31401599  1
