# generated using pymatgen
data_La3Sb4
_symmetry_space_group_name_H-M   'P 1'
_cell_length_a   8.10653687
_cell_length_b   8.10653687
_cell_length_c   8.10653687
_cell_angle_alpha   109.47122192
_cell_angle_beta   109.47122192
_cell_angle_gamma   109.47122192
_symmetry_Int_Tables_number   1
_chemical_formula_structural   La3Sb4
_chemical_formula_sum   'La6 Sb8'
_cell_volume   410.09471705
_cell_formula_units_Z   2
loop_
 _symmetry_equiv_pos_site_id
 _symmetry_equiv_pos_as_xyz
  1  'x, y, z'
loop_
 _atom_site_type_symbol
 _atom_site_label
 _atom_site_symmetry_multiplicity
 _atom_site_fract_x
 _atom_site_fract_y
 _atom_site_fract_z
 _atom_site_occupancy
  La  La0  1  0.25000001  0.37500000  0.12500002  1
  La  La1  1  0.12500005  0.87499999  0.25000004  1
  La  La2  1  0.37500002  0.62499999  0.75000001  1
  La  La3  1  0.74999998  0.12500000  0.37500001  1
  La  La4  1  0.87500001  0.74999999  0.62500003  1
  La  La5  1  0.62499999  0.25000000  0.87499998  1
  Sb  Sb6  1  0.34199599  0.00000000  0.99999996  1
  Sb  Sb7  1  0.65800401  0.65800399  0.15800404  1
  Sb  Sb8  1  0.15800400  0.15800400  0.65800398  1
  Sb  Sb9  1  0.00000003  0.49999999  0.34199601  1
  Sb  Sb10  1  0.00000003  0.49999999  0.84199598  1
  Sb  Sb11  1  0.50000000  0.34199600  0.50000001  1
  Sb  Sb12  1  0.50000003  0.84199599  0.50000003  1
  Sb  Sb13  1  0.84199596  0.00000000  0.00000002  1
