# generated using pymatgen
data_Nb3FeSe6
_symmetry_space_group_name_H-M   'P 1'
_cell_length_a   6.07222795
_cell_length_b   6.07222748
_cell_length_c   12.74525738
_cell_angle_alpha   90.00000000
_cell_angle_beta   90.00000000
_cell_angle_gamma   120.00000000
_symmetry_Int_Tables_number   1
_chemical_formula_structural   Nb3FeSe6
_chemical_formula_sum   'Nb6 Fe2 Se12'
_cell_volume   406.98213088
_cell_formula_units_Z   2
loop_
 _symmetry_equiv_pos_site_id
 _symmetry_equiv_pos_as_xyz
  1  'x, y, z'
loop_
 _atom_site_type_symbol
 _atom_site_label
 _atom_site_symmetry_multiplicity
 _atom_site_fract_x
 _atom_site_fract_y
 _atom_site_fract_z
 _atom_site_occupancy
  Nb  Nb0  1  0.00000000  0.00000000  0.49999999  1
  Nb  Nb1  1  0.00000000  0.00000000  0.00000000  1
  Nb  Nb2  1  0.66666665  0.33333332  0.00040900  1
  Nb  Nb3  1  0.33333329  0.66666663  0.99959097  1
  Nb  Nb4  1  0.33333329  0.66666663  0.50040899  1
  Nb  Nb5  1  0.66666665  0.33333332  0.49959099  1
  Fe  Fe6  1  0.66666665  0.33333332  0.74999998  1
  Fe  Fe7  1  0.33333329  0.66666663  0.24999999  1
  Se  Se8  1  0.66730794  0.99839795  0.63180198  1
  Se  Se9  1  0.33108998  0.33269198  0.63180198  1
  Se  Se10  1  0.00160196  0.66890997  0.63180198  1
  Se  Se11  1  0.66891001  0.00160200  0.36819799  1
  Se  Se12  1  0.99839796  0.66730797  0.36819799  1
  Se  Se13  1  0.33269198  0.33108998  0.36819799  1
  Se  Se14  1  0.33269200  0.00160200  0.13180200  1
  Se  Se15  1  0.66890996  0.66730797  0.13180200  1
  Se  Se16  1  0.99839799  0.33108998  0.13180200  1
  Se  Se17  1  0.33108994  0.99839795  0.86819797  1
  Se  Se18  1  0.00160198  0.33269198  0.86819797  1
  Se  Se19  1  0.66730796  0.66890997  0.86819797  1
