# generated using pymatgen
data_LiMnO2
_symmetry_space_group_name_H-M   'P 1'
_cell_length_a   2.90238190
_cell_length_b   5.04563141
_cell_length_c   12.00790691
_cell_angle_alpha   94.81719208
_cell_angle_beta   96.94132996
_cell_angle_gamma   90.00000000
_symmetry_Int_Tables_number   1
_chemical_formula_structural   LiMnO2
_chemical_formula_sum   'Li5 Mn5 O10'
_cell_volume   173.93334197
_cell_formula_units_Z   5
loop_
 _symmetry_equiv_pos_site_id
 _symmetry_equiv_pos_as_xyz
  1  'x, y, z'
loop_
 _atom_site_type_symbol
 _atom_site_label
 _atom_site_symmetry_multiplicity
 _atom_site_fract_x
 _atom_site_fract_y
 _atom_site_fract_z
 _atom_site_occupancy
  Li  Li0  1  0.89719303  0.30239799  0.79438599  1
  Li  Li1  1  0.50000001  0.49999999  -0.00000001  1
  Li  Li2  1  0.10280699  0.69760198  0.20561399  1
  Li  Li3  1  0.69929501  0.90026798  0.39858998  1
  Li  Li4  1  0.30070501  0.09973200  0.60141000  1
  Mn  Mn5  1  0.00000000  0.00000000  0.00000000  1
  Mn  Mn6  1  0.60054702  0.20219100  0.20109399  1
  Mn  Mn7  1  0.19966700  0.40633799  0.39933399  1
  Mn  Mn8  1  0.80033302  0.59366199  0.60066598  1
  Mn  Mn9  1  0.39945300  0.79780898  0.79890598  1
  O  O10  1  0.34784601  0.45407599  0.69569199  1
  O  O11  1  0.95199702  0.68502698  0.90399398  1
  O  O12  1  0.54315901  0.86666198  0.08631798  1
  O  O13  1  0.15216000  0.08328600  0.30432000  1
  O  O14  1  0.74943302  0.28102199  0.49886599  1
  O  O15  1  0.45684101  0.13333800  0.91368199  1
  O  O16  1  0.04800300  0.31497299  0.09600599  1
  O  O17  1  0.65215401  0.54592399  0.30430799  1
  O  O18  1  0.25056700  0.71897798  0.50113399  1
  O  O19  1  0.84784002  0.91671398  0.69567998  1
