# generated using pymatgen
data_DyTl2
_symmetry_space_group_name_H-M   'P 1'
_cell_length_a   6.27910423
_cell_length_b   6.27910423
_cell_length_c   9.87530804
_cell_angle_alpha   90.00000000
_cell_angle_beta   90.00000000
_cell_angle_gamma   120.00000000
_symmetry_Int_Tables_number   1
_chemical_formula_structural   DyTl2
_chemical_formula_sum   'Dy4 Tl8'
_cell_volume   337.19153840
_cell_formula_units_Z   4
loop_
 _symmetry_equiv_pos_site_id
 _symmetry_equiv_pos_as_xyz
  1  'x, y, z'
loop_
 _atom_site_type_symbol
 _atom_site_label
 _atom_site_symmetry_multiplicity
 _atom_site_fract_x
 _atom_site_fract_y
 _atom_site_fract_z
 _atom_site_occupancy
  Dy  Dy0  1  0.66666666  0.33333335  0.58117200  1
  Dy  Dy1  1  0.33333335  0.66666669  0.41882800  1
  Dy  Dy2  1  0.33333335  0.66666669  0.08117200  1
  Dy  Dy3  1  0.66666666  0.33333335  0.91882800  1
  Tl  Tl4  1  0.00000000  0.00000000  0.50000000  1
  Tl  Tl5  1  0.00000000  0.00000000  0.00000000  1
  Tl  Tl6  1  0.16955601  0.33911201  0.75000000  1
  Tl  Tl7  1  0.16955603  0.83044303  0.75000000  1
  Tl  Tl8  1  0.66088701  0.83044303  0.75000000  1
  Tl  Tl9  1  0.83044400  0.66088803  0.25000000  1
  Tl  Tl10  1  0.83044398  0.16955701  0.25000000  1
  Tl  Tl11  1  0.33911299  0.16955701  0.25000000  1
