# generated using pymatgen
data_Na7CuO11
_symmetry_space_group_name_H-M   'P 1'
_cell_length_a   5.69844580
_cell_length_b   6.87867355
_cell_length_c   7.60892677
_cell_angle_alpha   106.29435730
_cell_angle_beta   90.00000000
_cell_angle_gamma   114.46964264
_symmetry_Int_Tables_number   1
_chemical_formula_structural   Na7CuO11
_chemical_formula_sum   'Na7 Cu1 O11'
_cell_volume   258.24429095
_cell_formula_units_Z   1
loop_
 _symmetry_equiv_pos_site_id
 _symmetry_equiv_pos_as_xyz
  1  'x, y, z'
loop_
 _atom_site_type_symbol
 _atom_site_label
 _atom_site_symmetry_multiplicity
 _atom_site_fract_x
 _atom_site_fract_y
 _atom_site_fract_z
 _atom_site_occupancy
  Na  Na0  1  0.30390297  0.60780601  0.64045803  1
  Na  Na1  1  0.69609700  0.39219400  0.35954202  1
  Na  Na2  1  0.31385197  0.62770401  0.17391703  1
  Na  Na3  1  0.68614800  0.37229600  0.82608302  1
  Na  Na4  1  0.00000000  0.00000000  0.50000000  1
  Na  Na5  1  0.21463695  1.00000001  0.00000004  1
  Na  Na6  1  0.78536303  0.00000000  0.00000000  1
  Cu  Cu7  1  0.99985798  0.99971601  0.20567104  1
  O  O8  1  0.00014200  0.00028400  0.79432901  1
  O  O9  1  0.41824999  0.32911600  0.08561201  1
  O  O10  1  0.58174998  0.67088401  0.91438804  1
  O  O11  1  0.08913396  0.67088401  0.91438804  1
  O  O12  1  0.91086601  0.32911600  0.08561201  1
  O  O13  1  0.50062002  0.00124000  0.17603800  1
  O  O14  1  0.49937996  0.99876001  0.82396205  1
  O  O15  1  0.59373398  0.69232601  0.42504503  1
  O  O16  1  0.40626600  0.30767400  0.57495502  1
  O  O17  1  0.90140801  0.30767400  0.57495502  1
  O  O18  1  0.09859196  0.69232601  0.42504503  1
