# generated using pymatgen
data_DyNiGe
_symmetry_space_group_name_H-M   'P 1'
_cell_length_a   4.43461180
_cell_length_b   7.05262184
_cell_length_c   7.25242186
_cell_angle_alpha   90.00000000
_cell_angle_beta   90.00000000
_cell_angle_gamma   90.00000000
_symmetry_Int_Tables_number   1
_chemical_formula_structural   DyNiGe
_chemical_formula_sum   'Dy4 Ni4 Ge4'
_cell_volume   226.82413524
_cell_formula_units_Z   4
loop_
 _symmetry_equiv_pos_site_id
 _symmetry_equiv_pos_as_xyz
  1  'x, y, z'
loop_
 _atom_site_type_symbol
 _atom_site_label
 _atom_site_symmetry_multiplicity
 _atom_site_fract_x
 _atom_site_fract_y
 _atom_site_fract_z
 _atom_site_occupancy
  Dy  Dy0  1  0.25000001  0.98556302  0.80825202  1
  Dy  Dy1  1  0.75000003  0.01443700  0.19174800  1
  Dy  Dy2  1  0.25000001  0.48556301  0.69174801  1
  Dy  Dy3  1  0.75000003  0.51443701  0.30825201  1
  Ni  Ni4  1  0.25000001  0.29747001  0.10626000  1
  Ni  Ni5  1  0.75000003  0.70253002  0.89374002  1
  Ni  Ni6  1  0.25000001  0.79747002  0.39374001  1
  Ni  Ni7  1  0.75000003  0.20253000  0.60626001  1
  Ge  Ge8  1  0.75000003  0.84501402  0.56412501  1
  Ge  Ge9  1  0.25000001  0.15498600  0.43587501  1
  Ge  Ge10  1  0.75000003  0.34501401  0.93587502  1
  Ge  Ge11  1  0.25000001  0.65498601  0.06412500  1
