# generated using pymatgen
data_RbNbV2(WO6)2
_symmetry_space_group_name_H-M   'P 1'
_cell_length_a   7.44400406
_cell_length_b   7.45641756
_cell_length_c   7.44944620
_cell_angle_alpha   119.96907806
_cell_angle_beta   90.00000000
_cell_angle_gamma   119.94494629
_symmetry_Int_Tables_number   1
_chemical_formula_structural   RbNbV2(WO6)2
_chemical_formula_sum   'Rb1 Nb1 V2 W2 O12'
_cell_volume   292.75828317
_cell_formula_units_Z   1
loop_
 _symmetry_equiv_pos_site_id
 _symmetry_equiv_pos_as_xyz
  1  'x, y, z'
loop_
 _atom_site_type_symbol
 _atom_site_label
 _atom_site_symmetry_multiplicity
 _atom_site_fract_x
 _atom_site_fract_y
 _atom_site_fract_z
 _atom_site_occupancy
  V  V0  1  0.72704102  0.31016803  0.90508400  1
  Rb  Rb1  1  0.41687306  0.68983207  0.09491605  1
  V  V2  1  0.01027700  0.00000000  0.49999999  1
  Nb  Nb3  1  0.01027700  0.00000000  0.00000000  1
  W  W4  1  0.51261504  0.50864005  0.50432003  1
  W  W5  1  0.00397504  0.49136105  0.49568103  1
  O  O6  1  0.05696201  0.13051301  0.81525699  1
  O  O7  1  0.68998703  0.38322604  0.44161302  1
  O  O8  1  0.05749307  0.74323307  0.80449904  1
  O  O9  1  0.67852106  0.74580307  0.43832905  1
  O  O10  1  0.67852106  0.74580307  0.80747404  1
  O  O11  1  0.05749407  0.74323407  0.43873505  1
  O  O12  1  0.92645007  0.86948809  0.18474406  1
  O  O13  1  0.30676105  0.61677406  0.55838703  1
  O  O14  1  0.93271802  0.25419803  0.19252701  1
  O  O15  1  0.31426002  0.25676603  0.56126501  1
  O  O16  1  0.31426102  0.25676703  0.19550102  1
  O  O17  1  0.93271802  0.25419803  0.56167201  1
