# generated using pymatgen
data_Zr5Ti(Ni3Sb)3
_symmetry_space_group_name_H-M   'P 1'
_cell_length_a   6.30437183
_cell_length_b   7.67530966
_cell_length_c   7.68787766
_cell_angle_alpha   64.03365326
_cell_angle_beta   66.56183624
_cell_angle_gamma   66.63607788
_symmetry_Int_Tables_number   1
_chemical_formula_structural   Zr5Ti(Ni3Sb)3
_chemical_formula_sum   'Zr5 Ti1 Ni9 Sb3'
_cell_volume   295.48771315
_cell_formula_units_Z   1
loop_
 _symmetry_equiv_pos_site_id
 _symmetry_equiv_pos_as_xyz
  1  'x, y, z'
loop_
 _atom_site_type_symbol
 _atom_site_label
 _atom_site_symmetry_multiplicity
 _atom_site_fract_x
 _atom_site_fract_y
 _atom_site_fract_z
 _atom_site_occupancy
  Zr  Zr0  1  0.04802301  0.97925499  0.47206503  1
  Zr  Zr1  1  0.50588502  0.02809300  0.50880798  1
  Zr  Zr2  1  0.50607203  0.52853799  0.04309900  1
  Ti  Ti3  1  0.08661101  0.44928500  0.96963000  1
  Zr  Zr4  1  0.96227605  0.74961099  0.24778399  1
  Zr  Zr5  1  0.95044504  0.24187400  0.75262196  1
  Ni  Ni6  1  0.17309201  0.33648100  0.33592200  1
  Ni  Ni7  1  0.85050904  0.65379599  0.66300398  1
  Ni  Ni8  1  0.17333202  0.83522799  0.83874101  1
  Ni  Ni9  1  0.83595304  0.15788000  0.15444797  1
  Ni  Ni10  1  0.45618903  0.78542099  0.25807101  1
  Sb  Sb11  1  0.47550702  0.23263600  0.75067398  1
  Ni  Ni12  1  0.72174904  0.87365299  0.89630299  1
  Ni  Ni13  1  0.47866303  0.61411599  0.63275100  1
  Ni  Ni14  1  0.72221204  0.38908100  0.36846998  1
  Sb  Sb15  1  0.26506602  0.50393299  0.49670000  1
  Sb  Sb16  1  0.24366201  0.00018100  0.00143899  1
  Ni  Ni17  1  0.48475502  0.14093800  0.10946799  1
