# generated using pymatgen
data_DyRe2
_symmetry_space_group_name_H-M   'P 1'
_cell_length_a   5.64783192
_cell_length_b   5.64783096
_cell_length_c   8.83423710
_cell_angle_alpha   90.00000000
_cell_angle_beta   90.00000000
_cell_angle_gamma   120.00000763
_symmetry_Int_Tables_number   1
_chemical_formula_structural   DyRe2
_chemical_formula_sum   'Dy4 Re8'
_cell_volume   244.04117234
_cell_formula_units_Z   4
loop_
 _symmetry_equiv_pos_site_id
 _symmetry_equiv_pos_as_xyz
  1  'x, y, z'
loop_
 _atom_site_type_symbol
 _atom_site_label
 _atom_site_symmetry_multiplicity
 _atom_site_fract_x
 _atom_site_fract_y
 _atom_site_fract_z
 _atom_site_occupancy
  Dy  Dy0  1  0.66666669  0.33333335  0.94151199  1
  Dy  Dy1  1  0.33333337  0.66666671  0.44151200  1
  Dy  Dy2  1  0.33333337  0.66666671  0.05848800  1
  Dy  Dy3  1  0.66666669  0.33333335  0.55848799  1
  Re  Re4  1  0.00000000  0.00000000  0.00000000  1
  Re  Re5  1  0.00000000  0.00000000  0.49999999  1
  Re  Re6  1  0.16703505  0.83296505  0.74999999  1
  Re  Re7  1  0.83296505  0.66593004  0.25000000  1
  Re  Re8  1  0.33407001  0.16703501  0.25000000  1
  Re  Re9  1  0.66593005  0.83296505  0.74999999  1
  Re  Re10  1  0.16703502  0.33407002  0.74999999  1
  Re  Re11  1  0.83296502  0.16703501  0.25000000  1
