# generated using pymatgen
data_EuDyZnSb3(TeO6)2
_symmetry_space_group_name_H-M   'P 1'
_cell_length_a   6.25150013
_cell_length_b   6.25150013
_cell_length_c   8.77279282
_cell_angle_alpha   90.00000000
_cell_angle_beta   90.00000000
_cell_angle_gamma   120.00000000
_symmetry_Int_Tables_number   1
_chemical_formula_structural   EuDyZnSb3(TeO6)2
_chemical_formula_sum   'Eu1 Dy1 Zn1 Sb3 Te2 O12'
_cell_volume   296.91831935
_cell_formula_units_Z   1
loop_
 _symmetry_equiv_pos_site_id
 _symmetry_equiv_pos_as_xyz
  1  'x, y, z'
loop_
 _atom_site_type_symbol
 _atom_site_label
 _atom_site_symmetry_multiplicity
 _atom_site_fract_x
 _atom_site_fract_y
 _atom_site_fract_z
 _atom_site_occupancy
  Dy  Dy0  1  0.00000000  0.00000000  0.50000001  1
  Zn  Zn1  1  0.00000000  0.00000000  0.00000000  1
  Eu  Eu2  1  0.66666666  0.33333334  0.25000001  1
  Sb  Sb3  1  0.33333334  0.66666668  0.75000002  1
  Sb  Sb4  1  0.04485900  0.32017000  0.34668001  1
  O  O5  1  0.27531101  0.95514101  0.34668001  1
  O  O6  1  0.67983000  0.72468901  0.34668001  1
  Sb  Sb7  1  0.27531100  0.32017000  0.15332000  1
  Te  Te8  1  0.66666666  0.33333334  0.96322302  1
  O  O9  1  0.66666666  0.33333334  0.53677701  1
  Te  Te10  1  0.33333334  0.66666668  0.03677700  1
  O  O11  1  0.33333334  0.66666668  0.46322301  1
  O  O12  1  0.95514098  0.27531100  0.84668002  1
  O  O13  1  0.32016999  0.04485900  0.84668002  1
  O  O14  1  0.72468900  0.67983001  0.84668002  1
  O  O15  1  0.32017000  0.27531100  0.65332001  1
  O  O16  1  0.72468899  0.04485900  0.65332001  1
  O  O17  1  0.95514099  0.67983001  0.65332001  1
  O  O18  1  0.04485901  0.72468901  0.15332000  1
  O  O19  1  0.67983000  0.95514101  0.15332000  1
