# generated using pymatgen
data_Sr6NiGe8
_symmetry_space_group_name_H-M   'P 1'
_cell_length_a   6.77872419
_cell_length_b   6.89966011
_cell_length_c   9.96705341
_cell_angle_alpha   98.22679138
_cell_angle_beta   109.88031769
_cell_angle_gamma   90.00000000
_symmetry_Int_Tables_number   1
_chemical_formula_structural   Sr6NiGe8
_chemical_formula_sum   'Sr6 Ni1 Ge8'
_cell_volume   433.28209713
_cell_formula_units_Z   1
loop_
 _symmetry_equiv_pos_site_id
 _symmetry_equiv_pos_as_xyz
  1  'x, y, z'
loop_
 _atom_site_type_symbol
 _atom_site_label
 _atom_site_symmetry_multiplicity
 _atom_site_fract_x
 _atom_site_fract_y
 _atom_site_fract_z
 _atom_site_occupancy
  Sr  Sr0  1  0.67726497  0.31407300  0.35453000  1
  Sr  Sr1  1  0.00000000  0.00000000  0.00000000  1
  Sr  Sr2  1  0.32273499  0.68592701  0.64547002  1
  Sr  Sr3  1  0.21258599  0.12988200  0.42517201  1
  Sr  Sr4  1  0.78741397  0.87011801  0.57482801  1
  Sr  Sr5  1  0.78441897  0.50000001  -0.00000001  1
  Ni  Ni6  1  0.21558099  0.50000001  0.00000000  1
  Ge  Ge7  1  0.11350500  0.19623400  0.69835702  1
  Ge  Ge8  1  0.88649496  0.80376601  0.30164300  1
  Ge  Ge9  1  0.58485197  0.19623400  0.69835701  1
  Ge  Ge10  1  0.87140096  0.54926801  0.74280201  1
  Ge  Ge11  1  0.12859900  0.45073200  0.25719801  1
  Ge  Ge12  1  0.51572698  0.79732901  0.03145400  1
  Ge  Ge13  1  0.48427298  0.20267100  0.96854602  1
  Ge  Ge14  1  0.41514798  0.80376601  0.30164301  1
