# generated using pymatgen
data_Li2CuW5O12
_symmetry_space_group_name_H-M   'P 1'
_cell_length_a   6.47314692
_cell_length_b   6.47314692
_cell_length_c   6.49977875
_cell_angle_alpha   109.12025452
_cell_angle_beta   108.97142029
_cell_angle_gamma   110.16143036
_symmetry_Int_Tables_number   1
_chemical_formula_structural   Li2CuW5O12
_chemical_formula_sum   'Li2 Cu1 W5 O12'
_cell_volume   210.05030789
_cell_formula_units_Z   1
loop_
 _symmetry_equiv_pos_site_id
 _symmetry_equiv_pos_as_xyz
  1  'x, y, z'
loop_
 _atom_site_type_symbol
 _atom_site_label
 _atom_site_symmetry_multiplicity
 _atom_site_fract_x
 _atom_site_fract_y
 _atom_site_fract_z
 _atom_site_occupancy
  Li  Li0  1  0.00000000  0.00000000  0.00000000  1
  Li  Li1  1  0.49999994  0.49999998  0.49999993  1
  Cu  Cu2  1  -0.00000013  0.99999996  0.49999991  1
  W  W3  1  0.49999994  0.49999998  -0.00000008  1
  W  W4  1  -0.00000006  0.49999998  0.49999996  1
  W  W5  1  0.50000001  0.00000000  0.49999997  1
  W  W6  1  0.50000001  0.00000000  -0.00000003  1
  W  W7  1  -0.00000006  0.49999998  -0.00000005  1
  O  O8  1  0.68595690  0.86122897  0.16343988  1
  O  O9  1  0.69778894  0.52251698  0.83655991  1
  O  O10  1  0.30221094  0.47748298  0.16343994  1
  O  O11  1  0.31404299  0.13877099  0.83655997  1
  O  O12  1  0.17139896  0.30829199  0.47969096  1
  O  O13  1  0.82903597  0.30874699  0.13778292  1
  O  O14  1  0.17096391  0.69125297  0.86221693  1
  O  O15  1  0.82860092  0.69170797  0.52030889  1
  O  O16  1  0.13851490  0.82231397  0.30130492  1
  O  O17  1  0.47899099  0.16278999  0.30130496  1
  O  O18  1  0.52100890  0.83720997  0.69869489  1
  O  O19  1  0.86148499  0.17768599  0.69869494  1
