# generated using pymatgen
data_La5BiS8
_symmetry_space_group_name_H-M   'P 1'
_cell_length_a   7.58418894
_cell_length_b   7.58418894
_cell_length_c   7.58418894
_cell_angle_alpha   109.88041687
_cell_angle_beta   109.26701355
_cell_angle_gamma   109.26701355
_symmetry_Int_Tables_number   1
_chemical_formula_structural   La5BiS8
_chemical_formula_sum   'La5 Bi1 S8'
_cell_volume   335.80633358
_cell_formula_units_Z   1
loop_
 _symmetry_equiv_pos_site_id
 _symmetry_equiv_pos_as_xyz
  1  'x, y, z'
loop_
 _atom_site_type_symbol
 _atom_site_label
 _atom_site_symmetry_multiplicity
 _atom_site_fract_x
 _atom_site_fract_y
 _atom_site_fract_z
 _atom_site_occupancy
  La  La0  1  0.87819304  0.12500001  0.50319306  1
  La  La1  1  0.37819309  0.75319305  0.87500007  1
  La  La2  1  0.12180707  0.62500004  0.24680705  1
  La  La3  1  0.62180707  0.49680703  0.37500006  1
  La  La4  1  0.50000004  0.25000002  0.75000005  1
  Bi  Bi5  1  0.00000000  0.00000000  0.00000000  1
  S  S6  1  0.25065704  0.37873602  0.97688705  1
  S  S7  1  0.24934304  0.37807902  0.47623004  1
  S  S8  1  0.59815110  0.87192106  0.62126409  1
  S  S9  1  0.75065704  0.22688701  0.12873605  1
  S  S10  1  0.90184908  0.52377003  0.77311308  1
  S  S11  1  0.09815109  0.87126406  0.62192106  1
  S  S12  1  0.40184901  0.02311300  0.27377002  1
  S  S13  1  0.74934309  0.72623005  0.12807908  1
