# generated using pymatgen
data_Dy5Sb3
_symmetry_space_group_name_H-M   'P 1'
_cell_length_a   6.58342505
_cell_length_b   8.98359394
_cell_length_c   8.98359299
_cell_angle_alpha   120.00000000
_cell_angle_beta   90.00000000
_cell_angle_gamma   90.00000000
_symmetry_Int_Tables_number   1
_chemical_formula_structural   Dy5Sb3
_chemical_formula_sum   'Dy10 Sb6'
_cell_volume   460.13228665
_cell_formula_units_Z   2
loop_
 _symmetry_equiv_pos_site_id
 _symmetry_equiv_pos_as_xyz
  1  'x, y, z'
loop_
 _atom_site_type_symbol
 _atom_site_label
 _atom_site_symmetry_multiplicity
 _atom_site_fract_x
 _atom_site_fract_y
 _atom_site_fract_z
 _atom_site_occupancy
  Dy  Dy0  1  0.74999999  0.24003100  -0.00000001  1
  Dy  Dy1  1  0.74999999  0.99999999  0.24003097  1
  Dy  Dy2  1  0.25000000  0.24003100  0.24003100  1
  Dy  Dy3  1  0.50000000  0.66666666  0.33333332  1
  Dy  Dy4  1  0.74999999  0.75996899  0.75996901  1
  Dy  Dy5  1  0.50000000  0.33333333  0.66666669  1
  Dy  Dy6  1  0.25000000  0.99999999  0.75996900  1
  Dy  Dy7  1  -0.00000000  0.66666666  0.33333332  1
  Dy  Dy8  1  0.25000000  0.75996899  -0.00000003  1
  Dy  Dy9  1  0.99999999  0.33333333  0.66666669  1
  Sb  Sb10  1  0.25000000  0.39400299  1.00000004  1
  Sb  Sb11  1  0.25000000  0.60599699  0.60599701  1
  Sb  Sb12  1  0.74999999  0.39400299  0.39400301  1
  Sb  Sb13  1  0.25000000  0.99999999  0.39400298  1
  Sb  Sb14  1  0.74999999  0.60599699  -0.00000002  1
  Sb  Sb15  1  0.74999999  0.99999999  0.60599699  1
