# generated using pymatgen
data_NaCeSe2
_symmetry_space_group_name_H-M   'P 1'
_cell_length_a   6.19624996
_cell_length_b   6.19624996
_cell_length_c   7.55702209
_cell_angle_alpha   114.20272064
_cell_angle_beta   114.20272064
_cell_angle_gamma   90.00000000
_symmetry_Int_Tables_number   1
_chemical_formula_structural   NaCeSe2
_chemical_formula_sum   'Na2 Ce2 Se4'
_cell_volume   236.39877881
_cell_formula_units_Z   2
loop_
 _symmetry_equiv_pos_site_id
 _symmetry_equiv_pos_as_xyz
  1  'x, y, z'
loop_
 _atom_site_type_symbol
 _atom_site_label
 _atom_site_symmetry_multiplicity
 _atom_site_fract_x
 _atom_site_fract_y
 _atom_site_fract_z
 _atom_site_occupancy
  Na  Na0  1  0.49999997  0.49999999  -0.00000004  1
  Na  Na1  1  0.24999996  0.74999999  0.49999995  1
  Ce  Ce2  1  0.00000000  0.00000000  0.00000000  1
  Ce  Ce3  1  0.74999998  0.25000000  0.49999996  1
  Se  Se4  1  0.00016898  0.50016899  0.00033797  1
  Se  Se5  1  0.74566396  0.74566399  0.49132794  1
  Se  Se6  1  0.49983095  0.99983098  0.99966193  1
  Se  Se7  1  0.25433599  0.25433599  0.50867198  1
