# generated using pymatgen
data_ScAlCo
_symmetry_space_group_name_H-M   'P 1'
_cell_length_a   5.28938341
_cell_length_b   5.28938341
_cell_length_c   8.35610771
_cell_angle_alpha   90.00000000
_cell_angle_beta   90.00000000
_cell_angle_gamma   119.10884094
_symmetry_Int_Tables_number   1
_chemical_formula_structural   ScAlCo
_chemical_formula_sum   'Sc4 Al4 Co4'
_cell_volume   204.25610963
_cell_formula_units_Z   4
loop_
 _symmetry_equiv_pos_site_id
 _symmetry_equiv_pos_as_xyz
  1  'x, y, z'
loop_
 _atom_site_type_symbol
 _atom_site_label
 _atom_site_symmetry_multiplicity
 _atom_site_fract_x
 _atom_site_fract_y
 _atom_site_fract_z
 _atom_site_occupancy
  Sc  Sc0  1  0.66609301  0.33390700  0.79680003  1
  Sc  Sc1  1  0.32939998  0.67060001  0.67494502  1
  Sc  Sc2  1  0.32939998  0.67060001  0.32505501  1
  Sc  Sc3  1  0.66609301  0.33390700  0.20320001  1
  Al  Al4  1  0.00346495  0.99653501  0.72779103  1
  Al  Al5  1  0.00346495  0.99653501  0.27220901  1
  Al  Al6  1  0.66069698  0.83459001  -0.00000000  1
  Al  Al7  1  0.16540999  0.33930300  -0.00000000  1
  Co  Co8  1  0.16639796  0.83360201  -0.00000000  1
  Co  Co9  1  0.35746400  0.17417000  0.50000002  1
  Co  Co10  1  0.82583000  0.64253601  0.50000002  1
  Co  Co11  1  0.82612302  0.17387700  0.50000002  1
