# generated using pymatgen
data_DyCo2
_symmetry_space_group_name_H-M   'P 1'
_cell_length_a   5.20078945
_cell_length_b   5.24156046
_cell_length_c   13.10311699
_cell_angle_alpha   91.18884277
_cell_angle_beta   90.74864960
_cell_angle_gamma   62.08229828
_symmetry_Int_Tables_number   1
_chemical_formula_structural   DyCo2
_chemical_formula_sum   'Dy6 Co12'
_cell_volume   315.55415818
_cell_formula_units_Z   6
loop_
 _symmetry_equiv_pos_site_id
 _symmetry_equiv_pos_as_xyz
  1  'x, y, z'
loop_
 _atom_site_type_symbol
 _atom_site_label
 _atom_site_symmetry_multiplicity
 _atom_site_fract_x
 _atom_site_fract_y
 _atom_site_fract_z
 _atom_site_occupancy
  Dy  Dy0  1  0.66601500  0.66791803  0.91589502  1
  Dy  Dy1  1  0.99733101  0.00337800  0.25057403  1
  Dy  Dy2  1  0.33408600  0.33413702  0.58360801  1
  Dy  Dy3  1  0.66591400  0.66586303  0.66639202  1
  Dy  Dy4  1  0.00266899  0.99662205  0.99942600  1
  Dy  Dy5  1  0.33398500  0.33208202  0.33410501  1
  Co  Co6  1  0.50000000  0.50000002  0.12500002  1
  Co  Co7  1  0.83597300  0.83173804  0.45863303  1
  Co  Co8  1  0.16402700  0.16826201  0.79136700  1
  Co  Co9  1  -0.00000000  0.50000002  0.12500000  1
  Co  Co10  1  0.33767900  0.83036204  0.45567801  1
  Co  Co11  1  0.66232100  0.16963801  0.79432202  1
  Co  Co12  1  0.67140300  0.66444803  0.28795902  1
  Co  Co13  1  0.00000000  0.00000000  0.62500000  1
  Co  Co14  1  0.32859700  0.33555202  0.96204101  1
  Co  Co15  1  0.50000000  0.00000000  0.12500001  1
  Co  Co16  1  0.83476100  0.33234502  0.45832502  1
  Co  Co17  1  0.16523900  0.66765503  0.79167501  1
