# generated using pymatgen
data_Dy4Ge5Ir3
_symmetry_space_group_name_H-M   'P 1'
_cell_length_a   4.47676897
_cell_length_b   7.16784477
_cell_length_c   7.69921589
_cell_angle_alpha   90.00000000
_cell_angle_beta   90.00000000
_cell_angle_gamma   90.00000000
_symmetry_Int_Tables_number   1
_chemical_formula_structural   Dy4Ge5Ir3
_chemical_formula_sum   'Dy4 Ge5 Ir3'
_cell_volume   247.05848381
_cell_formula_units_Z   1
loop_
 _symmetry_equiv_pos_site_id
 _symmetry_equiv_pos_as_xyz
  1  'x, y, z'
loop_
 _atom_site_type_symbol
 _atom_site_label
 _atom_site_symmetry_multiplicity
 _atom_site_fract_x
 _atom_site_fract_y
 _atom_site_fract_z
 _atom_site_occupancy
  Dy  Dy0  1  0.75000000  0.51265302  0.79714901  1
  Dy  Dy1  1  0.25000000  0.98734703  0.29714900  1
  Dy  Dy2  1  0.25000000  0.48734702  0.20285100  1
  Dy  Dy3  1  0.75000000  0.01265300  0.70285101  1
  Ge  Ge4  1  0.75000000  0.80097703  0.08523700  1
  Ge  Ge5  1  0.25000000  0.19902301  0.91476301  1
  Ge  Ge6  1  0.75000000  0.30097701  0.41476301  1
  Ge  Ge7  1  0.25000000  0.69902302  0.58523701  1
  Ir  Ir8  1  0.25000000  0.80908203  0.91298801  1
  Ir  Ir9  1  0.25000000  0.30908201  0.58701201  1
  Ir  Ir10  1  0.75000000  0.69091802  0.41298801  1
  Ge  Ge11  1  0.75000000  0.19091801  0.08701200  1
