# generated using pymatgen
data_Ce3DyThUO14
_symmetry_space_group_name_H-M   'P 1'
_cell_length_a   6.23811388
_cell_length_b   6.23811388
_cell_length_c   8.77249813
_cell_angle_alpha   90.00000000
_cell_angle_beta   90.00000000
_cell_angle_gamma   120.00000000
_symmetry_Int_Tables_number   1
_chemical_formula_structural   Ce3DyThUO14
_chemical_formula_sum   'Ce3 Dy1 Th1 U1 O14'
_cell_volume   295.63817563
_cell_formula_units_Z   1
loop_
 _symmetry_equiv_pos_site_id
 _symmetry_equiv_pos_as_xyz
  1  'x, y, z'
loop_
 _atom_site_type_symbol
 _atom_site_label
 _atom_site_symmetry_multiplicity
 _atom_site_fract_x
 _atom_site_fract_y
 _atom_site_fract_z
 _atom_site_occupancy
  Dy  Dy0  1  0.00000000  0.00000000  0.49999999  1
  Ce  Ce1  1  0.00000000  0.00000000  0.00000000  1
  Ce  Ce2  1  0.33333333  0.66666666  0.46344799  1
  Ce  Ce3  1  0.66666667  0.33333333  0.53655199  1
  Th  Th4  1  0.33333333  0.66666666  0.03655200  1
  U  U5  1  0.66666667  0.33333333  0.96344799  1
  O  O6  1  0.27589500  0.32034499  0.34681899  1
  O  O7  1  0.72410500  0.67965499  0.65318099  1
  O  O8  1  0.04444999  0.72410499  0.34681899  1
  O  O9  1  0.27589499  0.95554998  0.15318100  1
  O  O10  1  0.95555001  0.27589500  0.65318099  1
  O  O11  1  0.72410501  0.04445000  0.84681899  1
  O  O12  1  0.67965500  0.95554998  0.34681899  1
  O  O13  1  0.04445000  0.32034499  0.15318100  1
  O  O14  1  0.32034501  0.04445000  0.65318099  1
  O  O15  1  0.95555001  0.67965499  0.84681899  1
  O  O16  1  0.67965500  0.72410499  0.15318100  1
  O  O17  1  0.32034500  0.27589500  0.84681899  1
  O  O18  1  0.66666667  0.33333333  0.25000000  1
  O  O19  1  0.33333333  0.66666666  0.74999999  1
