# generated using pymatgen
data_Dy5Sb3
_symmetry_space_group_name_H-M   'P 1'
_cell_length_a   6.61092615
_cell_length_b   9.01457596
_cell_length_c   9.01457596
_cell_angle_alpha   120.00000000
_cell_angle_beta   90.00000000
_cell_angle_gamma   90.00000000
_symmetry_Int_Tables_number   1
_chemical_formula_structural   Dy5Sb3
_chemical_formula_sum   'Dy10 Sb6'
_cell_volume   465.24695837
_cell_formula_units_Z   2
loop_
 _symmetry_equiv_pos_site_id
 _symmetry_equiv_pos_as_xyz
  1  'x, y, z'
loop_
 _atom_site_type_symbol
 _atom_site_label
 _atom_site_symmetry_multiplicity
 _atom_site_fract_x
 _atom_site_fract_y
 _atom_site_fract_z
 _atom_site_occupancy
  Dy  Dy0  1  -0.00000000  0.33333334  0.66666669  1
  Dy  Dy1  1  -0.00000000  0.66666667  0.33333335  1
  Dy  Dy2  1  0.49999999  0.66666667  0.33333335  1
  Dy  Dy3  1  0.49999999  0.33333334  0.66666669  1
  Dy  Dy4  1  0.24999999  0.24110300  0.00000000  1
  Dy  Dy5  1  0.24999999  0.75889701  0.75889703  1
  Dy  Dy6  1  0.24999999  0.00000000  0.24110301  1
  Dy  Dy7  1  0.74999998  0.75889701  0.00000001  1
  Dy  Dy8  1  0.74999998  0.24110300  0.24110301  1
  Dy  Dy9  1  0.74999998  0.00000000  0.75889702  1
  Sb  Sb10  1  0.24999999  0.60616301  0.00000001  1
  Sb  Sb11  1  0.24999999  0.39383700  0.39383701  1
  Sb  Sb12  1  0.24999999  0.00000000  0.60616301  1
  Sb  Sb13  1  0.74999998  0.39383700  0.00000000  1
  Sb  Sb14  1  0.74999998  0.60616301  0.60616302  1
  Sb  Sb15  1  0.74999998  0.00000000  0.39383701  1
