# generated using pymatgen
data_Sr(CoAs)2
_symmetry_space_group_name_H-M   'P 1'
_cell_length_a   3.95285797
_cell_length_b   3.95285797
_cell_length_c   7.67242193
_cell_angle_alpha   104.92780304
_cell_angle_beta   104.92780304
_cell_angle_gamma   90.00000000
_symmetry_Int_Tables_number   1
_chemical_formula_structural   Sr(CoAs)2
_chemical_formula_sum   'Sr1 Co2 As2'
_cell_volume   111.64396370
_cell_formula_units_Z   1
loop_
 _symmetry_equiv_pos_site_id
 _symmetry_equiv_pos_as_xyz
  1  'x, y, z'
loop_
 _atom_site_type_symbol
 _atom_site_label
 _atom_site_symmetry_multiplicity
 _atom_site_fract_x
 _atom_site_fract_y
 _atom_site_fract_z
 _atom_site_occupancy
  Sr  Sr0  1  0.00000000  0.00000000  0.00000000  1
  Co  Co1  1  0.75000000  0.25000000  0.49999998  1
  Co  Co2  1  0.24999999  0.75000000  0.49999998  1
  As  As3  1  0.65796200  0.65796200  0.31592398  1
  As  As4  1  0.34203800  0.34203800  0.68407597  1
