# generated using pymatgen
data_LiMnCoO2
_symmetry_space_group_name_H-M   'P 1'
_cell_length_a   3.50065804
_cell_length_b   3.50065732
_cell_length_c   11.56118584
_cell_angle_alpha   90.00000000
_cell_angle_beta   90.00000000
_cell_angle_gamma   120.00000763
_symmetry_Int_Tables_number   1
_chemical_formula_structural   LiMnCoO2
_chemical_formula_sum   'Li2 Mn2 Co2 O4'
_cell_volume   122.69652662
_cell_formula_units_Z   2
loop_
 _symmetry_equiv_pos_site_id
 _symmetry_equiv_pos_as_xyz
  1  'x, y, z'
loop_
 _atom_site_type_symbol
 _atom_site_label
 _atom_site_symmetry_multiplicity
 _atom_site_fract_x
 _atom_site_fract_y
 _atom_site_fract_z
 _atom_site_occupancy
  Li  Li0  1  0.66666667  0.33333334  0.57563601  1
  Li  Li1  1  0.33333335  0.66666668  0.42436401  1
  Mn  Mn2  1  0.33333335  0.66666668  0.07563600  1
  Mn  Mn3  1  0.66666667  0.33333334  0.92436401  1
  Co  Co4  1  0.00000000  0.00000000  0.75000001  1
  Co  Co5  1  0.00000000  0.00000000  0.25000000  1
  O  O6  1  0.00000000  0.00000000  0.50000001  1
  O  O7  1  0.00000000  0.00000000  0.00000000  1
  O  O8  1  0.33333335  0.66666668  0.25000000  1
  O  O9  1  0.66666667  0.33333334  0.75000001  1
