# generated using pymatgen
data_Dy2Si3
_symmetry_space_group_name_H-M   'P 1'
_cell_length_a   4.16529179
_cell_length_b   5.53498840
_cell_length_c   9.06874847
_cell_angle_alpha   82.32833862
_cell_angle_beta   76.72348022
_cell_angle_gamma   67.89721680
_symmetry_Int_Tables_number   1
_chemical_formula_structural   Dy2Si3
_chemical_formula_sum   'Dy4 Si6'
_cell_volume   188.27888896
_cell_formula_units_Z   2
loop_
 _symmetry_equiv_pos_site_id
 _symmetry_equiv_pos_as_xyz
  1  'x, y, z'
loop_
 _atom_site_type_symbol
 _atom_site_label
 _atom_site_symmetry_multiplicity
 _atom_site_fract_x
 _atom_site_fract_y
 _atom_site_fract_z
 _atom_site_occupancy
  Dy  Dy0  1  0.18611300  0.73858799  0.88918601  1
  Dy  Dy1  1  0.81388704  0.26141200  0.11081399  1
  Dy  Dy2  1  0.00664400  0.31959700  0.66711501  1
  Dy  Dy3  1  0.99335605  0.68040299  0.33288499  1
  Si  Si4  1  0.27482402  0.09342400  0.35692800  1
  Si  Si5  1  0.72517603  0.90657599  0.64307200  1
  Si  Si6  1  0.48546303  0.15413400  0.87494000  1
  Si  Si7  1  0.51453702  0.84586599  0.12506000  1
  Si  Si8  1  0.34902901  0.73556199  0.56638001  1
  Si  Si9  1  0.65097104  0.26443800  0.43361999  1
