# generated using pymatgen
data_Nb2C
_symmetry_space_group_name_H-M   'P 1'
_cell_length_a   2.72947001
_cell_length_b   2.72947001
_cell_length_c   10.28549290
_cell_angle_alpha   90.00000000
_cell_angle_beta   90.00000000
_cell_angle_gamma   90.00000000
_symmetry_Int_Tables_number   1
_chemical_formula_structural   Nb2C
_chemical_formula_sum   'Nb4 C2'
_cell_volume   76.62698956
_cell_formula_units_Z   2
loop_
 _symmetry_equiv_pos_site_id
 _symmetry_equiv_pos_as_xyz
  1  'x, y, z'
loop_
 _atom_site_type_symbol
 _atom_site_label
 _atom_site_symmetry_multiplicity
 _atom_site_fract_x
 _atom_site_fract_y
 _atom_site_fract_z
 _atom_site_occupancy
  Nb  Nb0  1  0.00000000  0.00000000  0.50000001  1
  Nb  Nb1  1  0.00000000  0.00000000  0.00000000  1
  Nb  Nb2  1  0.50000000  0.50000000  0.36452600  1
  Nb  Nb3  1  0.50000000  0.50000000  0.86433901  1
  C  C4  1  0.50000000  0.50000000  0.13566100  1
  C  C5  1  0.50000000  0.50000000  0.63547401  1
