# generated using pymatgen
data_LiV5(CuO6)2
_symmetry_space_group_name_H-M   'P 1'
_cell_length_a   6.29935598
_cell_length_b   6.29935598
_cell_length_c   6.29935598
_cell_angle_alpha   109.47122192
_cell_angle_beta   109.47122192
_cell_angle_gamma   109.47122192
_symmetry_Int_Tables_number   1
_chemical_formula_structural   LiV5(CuO6)2
_chemical_formula_sum   'Li1 V5 Cu2 O12'
_cell_volume   192.42723658
_cell_formula_units_Z   1
loop_
 _symmetry_equiv_pos_site_id
 _symmetry_equiv_pos_as_xyz
  1  'x, y, z'
loop_
 _atom_site_type_symbol
 _atom_site_label
 _atom_site_symmetry_multiplicity
 _atom_site_fract_x
 _atom_site_fract_y
 _atom_site_fract_z
 _atom_site_occupancy
  Li  Li0  1  0.00000000  0.00000000  0.00000000  1
  V  V1  1  0.50000002  0.00000000  0.50000003  1
  V  V2  1  0.50000005  0.50000004  1.00000007  1
  V  V3  1  0.00000003  0.50000004  0.50000005  1
  V  V4  1  0.50000005  0.50000004  0.50000006  1
  V  V5  1  0.00000003  0.50000004  0.00000003  1
  Cu  Cu6  1  0.00000000  0.00000000  0.50000002  1
  Cu  Cu7  1  0.50000002  0.00000000  0.00000001  1
  O  O8  1  0.16853003  0.30607502  0.47460404  1
  O  O9  1  0.83147008  0.69392505  0.52539608  1
  O  O10  1  0.16853005  0.69392605  0.86245607  1
  O  O11  1  0.69392608  0.86245606  0.16853007  1
  O  O12  1  0.52539608  0.83147006  0.69392608  1
  O  O13  1  0.86245505  0.16852901  0.69392505  1
  O  O14  1  0.30607404  0.47460404  0.16852904  1
  O  O15  1  0.47460403  0.16853001  0.30607403  1
  O  O16  1  0.83147005  0.30607402  0.13754404  1
  O  O17  1  0.30607402  0.13754401  0.83147004  1
  O  O18  1  0.13754506  0.83147106  0.30607506  1
  O  O19  1  0.69392606  0.52539604  0.83147107  1
