# generated using pymatgen
data_DyLuTc4
_symmetry_space_group_name_H-M   'P 1'
_cell_length_a   5.33346987
_cell_length_b   5.33347034
_cell_length_c   8.82667828
_cell_angle_alpha   90.00000000
_cell_angle_beta   90.00000000
_cell_angle_gamma   120.00000000
_symmetry_Int_Tables_number   1
_chemical_formula_structural   DyLuTc4
_chemical_formula_sum   'Dy2 Lu2 Tc8'
_cell_volume   217.44411559
_cell_formula_units_Z   2
loop_
 _symmetry_equiv_pos_site_id
 _symmetry_equiv_pos_as_xyz
  1  'x, y, z'
loop_
 _atom_site_type_symbol
 _atom_site_label
 _atom_site_symmetry_multiplicity
 _atom_site_fract_x
 _atom_site_fract_y
 _atom_site_fract_z
 _atom_site_occupancy
  Dy  Dy0  1  0.66666670  0.33333335  0.56526798  1
  Dy  Dy1  1  0.33333338  0.66666669  0.43473199  1
  Lu  Lu2  1  0.33333338  0.66666669  0.06526800  1
  Lu  Lu3  1  0.66666670  0.33333335  0.93473197  1
  Tc  Tc4  1  0.00000000  0.00000000  0.49999998  1
  Tc  Tc5  1  0.00000000  0.00000000  0.00000000  1
  Tc  Tc6  1  0.17255302  0.34510601  0.74999998  1
  Tc  Tc7  1  0.17255305  0.82744603  0.74999998  1
  Tc  Tc8  1  0.65489306  0.82744603  0.74999998  1
  Tc  Tc9  1  0.82744705  0.65489403  0.24999999  1
  Tc  Tc10  1  0.82744703  0.17255401  0.24999999  1
  Tc  Tc11  1  0.34510702  0.17255401  0.24999999  1
