# generated using pymatgen
data_Na3VH3O4
_symmetry_space_group_name_H-M   'P 1'
_cell_length_a   6.05399513
_cell_length_b   6.05399513
_cell_length_c   6.25969648
_cell_angle_alpha   117.08200836
_cell_angle_beta   117.08200836
_cell_angle_gamma   91.16456604
_symmetry_Int_Tables_number   1
_chemical_formula_structural   Na3VH3O4
_chemical_formula_sum   'Na3 V1 H3 O4'
_cell_volume   174.21501868
_cell_formula_units_Z   1
loop_
 _symmetry_equiv_pos_site_id
 _symmetry_equiv_pos_as_xyz
  1  'x, y, z'
loop_
 _atom_site_type_symbol
 _atom_site_label
 _atom_site_symmetry_multiplicity
 _atom_site_fract_x
 _atom_site_fract_y
 _atom_site_fract_z
 _atom_site_occupancy
  Na  Na0  1  0.21696602  0.65932099  0.37489698  1
  Na  Na1  1  0.65932099  0.21696600  0.37489697  1
  Na  Na2  1  0.99379101  0.99379099  0.01360195  1
  V  V3  1  0.50216501  0.50216499  0.98275797  1
  H  H4  1  0.78769801  0.78769799  0.46643096  1
  H  H5  1  0.81424201  0.81424199  0.20003296  1
  O  O6  1  0.36998300  0.36998300  0.59489798  1
  H  H7  1  0.28084900  0.28084900  0.00317299  1
  O  O8  1  0.70175801  0.70175799  0.52274796  1
  O  O9  1  0.76974000  0.32343600  0.08325697  1
  O  O10  1  0.32343602  0.76973999  0.08325698  1
