# generated using pymatgen
data_NaWO4
_symmetry_space_group_name_H-M   'P 1'
_cell_length_a   5.10467863
_cell_length_b   5.28195620
_cell_length_c   6.52469540
_cell_angle_alpha   112.03294373
_cell_angle_beta   111.13247681
_cell_angle_gamma   94.34356689
_symmetry_Int_Tables_number   1
_chemical_formula_structural   NaWO4
_chemical_formula_sum   'Na2 W2 O8'
_cell_volume   147.51032612
_cell_formula_units_Z   2
loop_
 _symmetry_equiv_pos_site_id
 _symmetry_equiv_pos_as_xyz
  1  'x, y, z'
loop_
 _atom_site_type_symbol
 _atom_site_label
 _atom_site_symmetry_multiplicity
 _atom_site_fract_x
 _atom_site_fract_y
 _atom_site_fract_z
 _atom_site_occupancy
  Na  Na0  1  0.87866598  0.12866600  0.25733196  1
  Na  Na1  1  0.12133401  0.87133401  0.74266798  1
  W  W2  1  0.64265399  0.39265401  0.78530796  1
  W  W3  1  0.35734600  0.60734601  0.21469199  1
  O  O4  1  0.71457399  0.87395901  0.42319997  1
  O  O5  1  0.28542599  0.12604100  0.57679997  1
  O  O6  1  0.20862600  0.54924101  0.42319998  1
  O  O7  1  0.49276899  0.28074300  0.06386098  1
  O  O8  1  0.50723100  0.71925701  0.93613896  1
  O  O9  1  0.79137398  0.45075901  0.57679996  1
  O  O10  1  0.92890798  0.21688200  0.93613894  1
  O  O11  1  0.07109201  0.78311801  0.06386100  1
