# generated using pymatgen
data_Na5OF6
_symmetry_space_group_name_H-M   'P 1'
_cell_length_a   5.56321096
_cell_length_b   5.66428804
_cell_length_c   7.03127384
_cell_angle_alpha   90.00000000
_cell_angle_beta   90.00000000
_cell_angle_gamma   90.00000000
_symmetry_Int_Tables_number   1
_chemical_formula_structural   Na5OF6
_chemical_formula_sum   'Na5 O1 F6'
_cell_volume   221.56689517
_cell_formula_units_Z   1
loop_
 _symmetry_equiv_pos_site_id
 _symmetry_equiv_pos_as_xyz
  1  'x, y, z'
loop_
 _atom_site_type_symbol
 _atom_site_label
 _atom_site_symmetry_multiplicity
 _atom_site_fract_x
 _atom_site_fract_y
 _atom_site_fract_z
 _atom_site_occupancy
  Na  Na0  1  0.50000000  0.00000000  0.50000001  1
  Na  Na1  1  0.00000000  0.50000000  0.50000001  1
  Na  Na2  1  0.50000000  0.50000000  0.00000000  1
  Na  Na3  1  0.00000000  0.00000000  0.00000000  1
  O  O4  1  0.61050600  0.11239700  0.07346900  1
  Na  Na5  1  0.11050600  0.38760300  0.92653102  1
  F  F6  1  0.38949400  0.61239700  0.42653101  1
  F  F7  1  0.88949401  0.88760299  0.57346901  1
  F  F8  1  0.11050600  0.11239700  0.42653101  1
  F  F9  1  0.61050600  0.38760300  0.57346901  1
  F  F10  1  0.88949401  0.61239700  0.07346900  1
  F  F11  1  0.38949400  0.88760299  0.92653102  1
