# generated using pymatgen
data_CeYCr7P5
_symmetry_space_group_name_H-M   'P 1'
_cell_length_a   3.70480204
_cell_length_b   7.21969604
_cell_length_c   7.21969604
_cell_angle_alpha   90.00000000
_cell_angle_beta   90.00000000
_cell_angle_gamma   90.00000000
_symmetry_Int_Tables_number   1
_chemical_formula_structural   CeYCr7P5
_chemical_formula_sum   'Ce1 Y1 Cr7 P5'
_cell_volume   193.10914202
_cell_formula_units_Z   1
loop_
 _symmetry_equiv_pos_site_id
 _symmetry_equiv_pos_as_xyz
  1  'x, y, z'
loop_
 _atom_site_type_symbol
 _atom_site_label
 _atom_site_symmetry_multiplicity
 _atom_site_fract_x
 _atom_site_fract_y
 _atom_site_fract_z
 _atom_site_occupancy
  Ce  Ce0  1  0.00000000  0.00000000  0.00000000  1
  Y  Y1  1  0.50000000  0.50000000  0.50000000  1
  Cr  Cr2  1  0.99999999  0.58236000  0.14625300  1
  Cr  Cr3  1  0.00000000  0.41764000  0.85374699  1
  Cr  Cr4  1  0.50000000  0.64625300  0.91763999  1
  Cr  Cr5  1  0.50000000  0.08236000  0.35374700  1
  Cr  Cr6  1  0.50000000  0.35374700  0.08236000  1
  Cr  Cr7  1  0.50000000  0.91763999  0.64625300  1
  P  P8  1  0.99999999  0.14625300  0.58236000  1
  Cr  Cr9  1  0.00000000  0.85374699  0.41764000  1
  P  P10  1  0.00000000  0.27852600  0.27852600  1
  P  P11  1  0.99999999  0.72147400  0.72147400  1
  P  P12  1  0.50000000  0.77852600  0.22147400  1
  P  P13  1  0.50000000  0.22147400  0.77852600  1
