# generated using pymatgen
data_Zr2N3
_symmetry_space_group_name_H-M   'P 1'
_cell_length_a   3.87388372
_cell_length_b   3.87388372
_cell_length_c   15.82979488
_cell_angle_alpha   82.97164917
_cell_angle_beta   82.97164917
_cell_angle_gamma   60.00000381
_symmetry_Int_Tables_number   1
_chemical_formula_structural   Zr2N3
_chemical_formula_sum   'Zr6 N9'
_cell_volume   203.66686756
_cell_formula_units_Z   3
loop_
 _symmetry_equiv_pos_site_id
 _symmetry_equiv_pos_as_xyz
  1  'x, y, z'
loop_
 _atom_site_type_symbol
 _atom_site_label
 _atom_site_symmetry_multiplicity
 _atom_site_fract_x
 _atom_site_fract_y
 _atom_site_fract_z
 _atom_site_occupancy
  Zr  Zr0  1  0.59995801  0.59995801  0.20012599  1
  Zr  Zr1  1  0.19985100  0.19985100  0.40044700  1
  Zr  Zr2  1  0.80014901  0.80014901  0.59955299  1
  Zr  Zr3  1  0.40004200  0.40004201  0.79987400  1
  Zr  Zr4  1  0.00000000  0.00000000  0.00000000  1
  Zr  Zr5  1  0.04557900  0.04557900  0.86326301  1
  N  N6  1  0.85004101  0.85004101  0.44987699  1
  N  N7  1  0.44910501  0.44910501  0.65268500  1
  N  N8  1  0.65272501  0.65272501  0.04182498  1
  N  N9  1  0.25216400  0.25216400  0.24350800  1
  N  N10  1  0.34727500  0.34727500  0.95817500  1
  N  N11  1  0.14995900  0.14995900  0.55012300  1
  N  N12  1  0.74783601  0.74783601  0.75649199  1
  N  N13  1  0.95442101  0.95442101  0.13673698  1
  N  N14  1  0.55089501  0.55089501  0.34731499  1
