# generated using pymatgen
data_Zr2Ge
_symmetry_space_group_name_H-M   'P 1'
_cell_length_a   5.26256990
_cell_length_b   5.30008650
_cell_length_c   5.30008650
_cell_angle_alpha   75.73108673
_cell_angle_beta   60.23387909
_cell_angle_gamma   60.23387909
_symmetry_Int_Tables_number   1
_chemical_formula_structural   Zr2Ge
_chemical_formula_sum   'Zr4 Ge2'
_cell_volume   111.39416547
_cell_formula_units_Z   2
loop_
 _symmetry_equiv_pos_site_id
 _symmetry_equiv_pos_as_xyz
  1  'x, y, z'
loop_
 _atom_site_type_symbol
 _atom_site_label
 _atom_site_symmetry_multiplicity
 _atom_site_fract_x
 _atom_site_fract_y
 _atom_site_fract_z
 _atom_site_occupancy
  Zr  Zr0  1  0.83693997  0.82612004  0.50000007  1
  Zr  Zr1  1  0.16305999  0.17388001  0.50000003  1
  Zr  Zr2  1  0.66305999  0.50000002  0.17388003  1
  Zr  Zr3  1  0.33693998  0.50000002  0.82612006  1
  Ge  Ge4  1  0.25000001  0.00000000  -0.00000000  1
  Ge  Ge5  1  0.75000002  0.00000000  -0.00000001  1
