# generated using pymatgen
data_Mn2Co3As4
_symmetry_space_group_name_H-M   'P 1'
_cell_length_a   4.85811615
_cell_length_b   4.86535454
_cell_length_c   13.46003819
_cell_angle_alpha   89.82676697
_cell_angle_beta   89.97265625
_cell_angle_gamma   60.08752441
_symmetry_Int_Tables_number   1
_chemical_formula_structural   Mn2Co3As4
_chemical_formula_sum   'Mn4 Co6 As8'
_cell_volume   275.76514353
_cell_formula_units_Z   2
loop_
 _symmetry_equiv_pos_site_id
 _symmetry_equiv_pos_as_xyz
  1  'x, y, z'
loop_
 _atom_site_type_symbol
 _atom_site_label
 _atom_site_symmetry_multiplicity
 _atom_site_fract_x
 _atom_site_fract_y
 _atom_site_fract_z
 _atom_site_occupancy
  Mn  Mn0  1  0.13907200  0.14901301  0.24752600  1
  Mn  Mn1  1  0.69775098  0.15159001  0.58336100  1
  Co  Co2  1  0.70265898  0.15270401  0.08547300  1
  Mn  Mn3  1  0.82406097  0.35352101  0.91845799  1
  Co  Co4  1  0.82573497  0.35000701  0.41689900  1
  Mn  Mn5  1  0.82580898  0.82527103  0.74835299  1
  Co  Co6  1  0.81202598  0.81513103  0.24851799  1
  Co  Co7  1  0.36484799  0.81617503  0.58324798  1
  Co  Co8  1  0.36962899  0.82010103  0.08451999  1
  Co  Co9  1  0.14941500  0.70357803  0.91818498  1
  As  As10  1  0.14534600  0.70049303  0.41743898  1
  As  As11  1  0.14980300  0.15508801  0.74804599  1
  As  As12  1  0.48245399  0.04135900  0.91344499  1
  As  As13  1  0.47780599  0.04175600  0.41502300  1
  As  As14  1  0.48460999  0.48284202  0.75373299  1
  As  As15  1  0.47419399  0.47626302  0.25341999  1
  As  As16  1  0.03346100  0.48325602  0.58328599  1
  As  As17  1  0.04132200  0.48185102  0.08106399  1
