# generated using pymatgen
data_SrGe
_symmetry_space_group_name_H-M   'P 1'
_cell_length_a   4.71419621
_cell_length_b   7.86102581
_cell_length_c   9.18646431
_cell_angle_alpha   90.00000000
_cell_angle_beta   90.00000000
_cell_angle_gamma   90.00000000
_symmetry_Int_Tables_number   1
_chemical_formula_structural   SrGe
_chemical_formula_sum   'Sr6 Ge6'
_cell_volume   340.43583473
_cell_formula_units_Z   6
loop_
 _symmetry_equiv_pos_site_id
 _symmetry_equiv_pos_as_xyz
  1  'x, y, z'
loop_
 _atom_site_type_symbol
 _atom_site_label
 _atom_site_symmetry_multiplicity
 _atom_site_fract_x
 _atom_site_fract_y
 _atom_site_fract_z
 _atom_site_occupancy
  Sr  Sr0  1  0.49999998  0.44941301  0.57982198  1
  Sr  Sr1  1  0.49999998  0.94941302  0.42017799  1
  Sr  Sr2  1  0.00000000  0.13160100  0.66869898  1
  Sr  Sr3  1  0.00000000  0.63160102  0.33130099  1
  Sr  Sr4  1  0.00000000  0.50031401  0.94453497  1
  Sr  Sr5  1  0.00000000  0.00031400  0.05546500  1
  Ge  Ge6  1  0.49999998  0.83979902  0.81479197  1
  Ge  Ge7  1  0.49999998  0.33979901  0.18520799  1
  Ge  Ge8  1  0.49999998  0.21609701  0.88003697  1
  Ge  Ge9  1  0.49999998  0.71609702  0.11996300  1
  Ge  Ge10  1  0.00000000  0.23030601  0.34182399  1
  Ge  Ge11  1  0.00000000  0.73030602  0.65817598  1
