# generated using pymatgen
data_La(GeIr)2
_symmetry_space_group_name_H-M   'P 1'
_cell_length_a   4.43862009
_cell_length_b   4.43862009
_cell_length_c   9.94358444
_cell_angle_alpha   90.00000000
_cell_angle_beta   90.00000000
_cell_angle_gamma   90.00000000
_symmetry_Int_Tables_number   1
_chemical_formula_structural   La(GeIr)2
_chemical_formula_sum   'La2 Ge4 Ir4'
_cell_volume   195.90202052
_cell_formula_units_Z   2
loop_
 _symmetry_equiv_pos_site_id
 _symmetry_equiv_pos_as_xyz
  1  'x, y, z'
loop_
 _atom_site_type_symbol
 _atom_site_label
 _atom_site_symmetry_multiplicity
 _atom_site_fract_x
 _atom_site_fract_y
 _atom_site_fract_z
 _atom_site_occupancy
  La  La0  1  0.00000000  0.49999999  0.23877899  1
  La  La1  1  0.49999999  0.00000000  0.76122097  1
  Ge  Ge2  1  0.00000000  0.00000000  0.00000000  1
  Ge  Ge3  1  0.49999999  0.49999999  -0.00000000  1
  Ge  Ge4  1  0.00000000  0.49999999  0.62364797  1
  Ge  Ge5  1  0.49999999  0.00000000  0.37635198  1
  Ir  Ir6  1  0.00000000  0.00000000  0.49999998  1
  Ir  Ir7  1  0.49999999  0.49999999  0.49999998  1
  Ir  Ir8  1  0.00000000  0.49999999  0.87177596  1
  Ir  Ir9  1  0.49999999  0.00000000  0.12822399  1
