# generated using pymatgen
data_ZrFe2Cu3S8
_symmetry_space_group_name_H-M   'P 1'
_cell_length_a   3.40162301
_cell_length_b   5.83111382
_cell_length_c   12.83146477
_cell_angle_alpha   92.21430206
_cell_angle_beta   90.00000000
_cell_angle_gamma   90.00000000
_symmetry_Int_Tables_number   1
_chemical_formula_structural   ZrFe2Cu3S8
_chemical_formula_sum   'Zr1 Fe2 Cu3 S8'
_cell_volume   254.32527765
_cell_formula_units_Z   1
loop_
 _symmetry_equiv_pos_site_id
 _symmetry_equiv_pos_as_xyz
  1  'x, y, z'
loop_
 _atom_site_type_symbol
 _atom_site_label
 _atom_site_symmetry_multiplicity
 _atom_site_fract_x
 _atom_site_fract_y
 _atom_site_fract_z
 _atom_site_occupancy
  Zr  Zr0  1  0.50000000  0.54157402  0.74710101  1
  Fe  Fe1  1  0.00000000  0.04903800  0.24678001  1
  Cu  Cu2  1  0.00000000  0.96068703  0.75526000  1
  Fe  Fe3  1  0.50000000  0.45207801  0.25265300  1
  Cu  Cu4  1  0.50000000  0.50607101  0.00271199  1
  Cu  Cu5  1  0.00000000  0.00706600  0.49458802  1
  S  S6  1  0.50000000  0.15014800  0.13492300  1
  S  S7  1  0.50000000  0.85771302  0.87391601  1
  S  S8  1  0.00000000  0.65765902  0.62294201  1
  S  S9  1  0.00000000  0.35219801  0.36482900  1
  S  S10  1  0.00000000  0.65876502  0.15901099  1
  S  S11  1  0.00000000  0.32307601  0.85244102  1
  S  S12  1  0.50000000  0.14198700  0.65387502  1
  S  S13  1  0.50000000  0.84193802  0.33896999  1
