# generated using pymatgen
data_NaVO3
_symmetry_space_group_name_H-M   'P 1'
_cell_length_a   5.00466871
_cell_length_b   5.00466871
_cell_length_c   6.45035315
_cell_angle_alpha   67.17376709
_cell_angle_beta   67.17376709
_cell_angle_gamma   59.99998856
_symmetry_Int_Tables_number   1
_chemical_formula_structural   NaVO3
_chemical_formula_sum   'Na2 V2 O6'
_cell_volume   125.09222150
_cell_formula_units_Z   2
loop_
 _symmetry_equiv_pos_site_id
 _symmetry_equiv_pos_as_xyz
  1  'x, y, z'
loop_
 _atom_site_type_symbol
 _atom_site_label
 _atom_site_symmetry_multiplicity
 _atom_site_fract_x
 _atom_site_fract_y
 _atom_site_fract_z
 _atom_site_occupancy
  Na  Na0  1  0.14386400  0.14386400  0.56840800  1
  Na  Na1  1  0.85613602  0.85613603  0.43159198  1
  V  V2  1  0.33565301  0.33565301  0.99304100  1
  V  V3  1  0.66434702  0.66434702  0.00695898  1
  O  O4  1  0.05749100  0.67781502  0.81575300  1
  O  O5  1  0.55105901  0.94250903  0.18424698  1
  O  O6  1  0.32218501  0.55105902  0.18424699  1
  O  O7  1  0.67781502  0.44894101  0.81575299  1
  O  O8  1  0.44894101  0.05749100  0.81575300  1
  O  O9  1  0.94250903  0.32218501  0.18424698  1
