# generated using pymatgen
data_Nb3Sn2BiS8
_symmetry_space_group_name_H-M   'P 1'
_cell_length_a   3.67776990
_cell_length_b   9.04564667
_cell_length_c   9.62145233
_cell_angle_alpha   104.28947449
_cell_angle_beta   101.01835632
_cell_angle_gamma   90.00000000
_symmetry_Int_Tables_number   1
_chemical_formula_structural   Nb3Sn2BiS8
_chemical_formula_sum   'Nb3 Sn2 Bi1 S8'
_cell_volume   304.08901598
_cell_formula_units_Z   1
loop_
 _symmetry_equiv_pos_site_id
 _symmetry_equiv_pos_as_xyz
  1  'x, y, z'
loop_
 _atom_site_type_symbol
 _atom_site_label
 _atom_site_symmetry_multiplicity
 _atom_site_fract_x
 _atom_site_fract_y
 _atom_site_fract_z
 _atom_site_occupancy
  Nb  Nb0  1  0.00000002  0.50000001  0.00000001  1
  Nb  Nb1  1  0.70448407  0.83499202  0.40896806  1
  Nb  Nb2  1  0.29551602  0.16500800  0.59103204  1
  Sn  Sn3  1  0.65812405  0.47995301  0.31624804  1
  Bi  Bi4  1  0.34187604  0.52004701  0.68375205  1
  Sn  Sn5  1  0.50000002  0.00000000  0.00000001  1
  S  S6  1  0.83045903  0.00875500  0.66091805  1
  S  S7  1  0.16954105  0.99124503  0.33908205  1
  S  S8  1  0.76074505  0.34194401  0.52149005  1
  S  S9  1  0.23925504  0.65805602  0.47851004  1
  S  S10  1  0.91379807  0.67375302  0.82759607  1
  S  S11  1  0.08620202  0.32624701  0.17240402  1
  S  S12  1  0.57412005  0.65906202  0.14824004  1
  S  S13  1  0.42588003  0.34093801  0.85176006  1
