# generated using pymatgen
data_La2Mg
_symmetry_space_group_name_H-M   'P 1'
_cell_length_a   3.89826393
_cell_length_b   3.89826393
_cell_length_c   6.97145319
_cell_angle_alpha   106.23559570
_cell_angle_beta   106.23559570
_cell_angle_gamma   90.00000000
_symmetry_Int_Tables_number   1
_chemical_formula_structural   La2Mg
_chemical_formula_sum   'La2 Mg1'
_cell_volume   97.30830534
_cell_formula_units_Z   1
loop_
 _symmetry_equiv_pos_site_id
 _symmetry_equiv_pos_as_xyz
  1  'x, y, z'
loop_
 _atom_site_type_symbol
 _atom_site_label
 _atom_site_symmetry_multiplicity
 _atom_site_fract_x
 _atom_site_fract_y
 _atom_site_fract_z
 _atom_site_occupancy
  La  La0  1  0.65215603  0.65215602  0.30431203  1
  La  La1  1  0.34784402  0.34784401  0.69568802  1
  Mg  Mg2  1  0.00000000  0.00000000  0.00000000  1
