# generated using pymatgen
data_Na
_symmetry_space_group_name_H-M   'P 1'
_cell_length_a   6.74198818
_cell_length_b   6.74198818
_cell_length_c   6.74198818
_cell_angle_alpha   90.00000000
_cell_angle_beta   90.00000000
_cell_angle_gamma   90.00000000
_symmetry_Int_Tables_number   1
_chemical_formula_structural   Na
_chemical_formula_sum   Na8
_cell_volume   306.45305895
_cell_formula_units_Z   8
loop_
 _symmetry_equiv_pos_site_id
 _symmetry_equiv_pos_as_xyz
  1  'x, y, z'
loop_
 _atom_site_type_symbol
 _atom_site_label
 _atom_site_symmetry_multiplicity
 _atom_site_fract_x
 _atom_site_fract_y
 _atom_site_fract_z
 _atom_site_occupancy
  Na  Na0  1  0.00000000  0.00000000  0.00000000  1
  Na  Na1  1  0.49999999  0.24999999  0.00000000  1
  Na  Na2  1  0.49999999  0.74999998  0.00000000  1
  Na  Na3  1  0.00000000  0.49999999  0.24999999  1
  Na  Na4  1  0.24999999  0.00000000  0.49999999  1
  Na  Na5  1  0.74999998  0.00000000  0.49999999  1
  Na  Na6  1  0.49999999  0.49999999  0.49999999  1
  Na  Na7  1  0.00000000  0.49999999  0.74999998  1
