# generated using pymatgen
data_InSe
_symmetry_space_group_name_H-M   'P 1'
_cell_length_a   6.28663778
_cell_length_b   6.28663778
_cell_length_c   7.68123436
_cell_angle_alpha   114.15588379
_cell_angle_beta   114.15588379
_cell_angle_gamma   90.00000000
_symmetry_Int_Tables_number   1
_chemical_formula_structural   InSe
_chemical_formula_sum   'In4 Se4'
_cell_volume   247.57332827
_cell_formula_units_Z   4
loop_
 _symmetry_equiv_pos_site_id
 _symmetry_equiv_pos_as_xyz
  1  'x, y, z'
loop_
 _atom_site_type_symbol
 _atom_site_label
 _atom_site_symmetry_multiplicity
 _atom_site_fract_x
 _atom_site_fract_y
 _atom_site_fract_z
 _atom_site_occupancy
  In  In0  1  0.00000000  0.00000000  0.00000000  1
  In  In1  1  0.75000006  0.25000002  0.50000005  1
  In  In2  1  0.25000006  0.75000005  0.50000006  1
  In  In3  1  0.50000006  0.50000003  0.00000006  1
  Se  Se4  1  0.89041810  0.89041806  0.28432310  1
  Se  Se5  1  0.39390504  0.39390503  0.28432304  1
  Se  Se6  1  0.10958204  0.60609504  0.71567704  1
  Se  Se7  1  0.60609504  0.10958201  0.71567703  1
