# generated using pymatgen
data_Fe5Ge3
_symmetry_space_group_name_H-M   'P 1'
_cell_length_a   3.57863688
_cell_length_b   5.62825489
_cell_length_c   6.37845421
_cell_angle_alpha   90.00000000
_cell_angle_beta   90.00000000
_cell_angle_gamma   90.00000000
_symmetry_Int_Tables_number   1
_chemical_formula_structural   Fe5Ge3
_chemical_formula_sum   'Fe5 Ge3'
_cell_volume   128.47151136
_cell_formula_units_Z   1
loop_
 _symmetry_equiv_pos_site_id
 _symmetry_equiv_pos_as_xyz
  1  'x, y, z'
loop_
 _atom_site_type_symbol
 _atom_site_label
 _atom_site_symmetry_multiplicity
 _atom_site_fract_x
 _atom_site_fract_y
 _atom_site_fract_z
 _atom_site_occupancy
  Fe  Fe0  1  0.75000002  0.80669602  0.57615798  1
  Fe  Fe1  1  0.25000001  0.19330400  0.42384199  1
  Fe  Fe2  1  0.75000002  0.30669601  0.92384197  1
  Fe  Fe3  1  0.25000001  0.69330401  0.07615800  1
  Fe  Fe4  1  0.75000002  0.99706602  0.20874199  1
  Ge  Ge5  1  0.25000001  0.00293400  0.79125797  1
  Ge  Ge6  1  0.75000002  0.49706601  0.29125799  1
  Ge  Ge7  1  0.25000001  0.50293401  0.70874198  1
