# generated using pymatgen
data_LiCoO2
_symmetry_space_group_name_H-M   'P 1'
_cell_length_a   5.02141237
_cell_length_b   5.85137558
_cell_length_c   5.85575008
_cell_angle_alpha   61.27558517
_cell_angle_beta   74.37626648
_cell_angle_gamma   74.31254578
_symmetry_Int_Tables_number   1
_chemical_formula_structural   LiCoO2
_chemical_formula_sum   'Li4 Co4 O8'
_cell_volume   143.26876553
_cell_formula_units_Z   4
loop_
 _symmetry_equiv_pos_site_id
 _symmetry_equiv_pos_as_xyz
  1  'x, y, z'
loop_
 _atom_site_type_symbol
 _atom_site_label
 _atom_site_symmetry_multiplicity
 _atom_site_fract_x
 _atom_site_fract_y
 _atom_site_fract_z
 _atom_site_occupancy
  Li  Li0  1  0.49999998  0.25000000  0.25000000  1
  Li  Li1  1  0.49999997  0.75000001  0.75000000  1
  Li  Li2  1  0.99728995  0.99975201  0.49975798  1
  Li  Li3  1  0.00270899  0.50024801  0.00024199  1
  Co  Co4  1  0.49999998  0.25000000  0.75000001  1
  Co  Co5  1  0.49999997  0.75000001  0.24999999  1
  Co  Co6  1  0.99995795  0.99920501  0.00078297  1
  Co  Co7  1  0.00004199  0.50079501  0.49921700  1
  O  O8  1  0.73890596  0.87929501  0.88006300  1
  O  O9  1  0.73889097  0.38128600  0.37807499  1
  O  O10  1  0.26110899  0.11871400  0.12192500  1
  O  O11  1  0.26109398  0.62070501  0.61993700  1
  O  O12  1  0.27095799  0.14402600  0.64413201  1
  O  O13  1  0.27150898  0.64036901  0.14045799  1
  O  O14  1  0.72849096  0.85963101  0.35954199  1
  O  O15  1  0.72904197  0.35597400  0.85586800  1
