# generated using pymatgen
data_BaFeSb2
_symmetry_space_group_name_H-M   'P 1'
_cell_length_a   4.43858385
_cell_length_b   4.43858385
_cell_length_c   11.37016869
_cell_angle_alpha   90.00000000
_cell_angle_beta   90.00000000
_cell_angle_gamma   90.00000000
_symmetry_Int_Tables_number   1
_chemical_formula_structural   BaFeSb2
_chemical_formula_sum   'Ba2 Fe2 Sb4'
_cell_volume   224.00399574
_cell_formula_units_Z   2
loop_
 _symmetry_equiv_pos_site_id
 _symmetry_equiv_pos_as_xyz
  1  'x, y, z'
loop_
 _atom_site_type_symbol
 _atom_site_label
 _atom_site_symmetry_multiplicity
 _atom_site_fract_x
 _atom_site_fract_y
 _atom_site_fract_z
 _atom_site_occupancy
  Ba  Ba0  1  0.50000002  0.50000002  0.50693801  1
  Ba  Ba1  1  0.00000000  0.00000000  0.99585703  1
  Fe  Fe2  1  0.00000000  0.50000002  0.23815501  1
  Fe  Fe3  1  0.50000002  0.00000000  0.23815501  1
  Sb  Sb4  1  0.00000000  0.00000000  0.36566201  1
  Sb  Sb5  1  0.00000000  0.50000002  0.76999902  1
  Sb  Sb6  1  0.50000002  0.50000002  0.09243500  1
  Sb  Sb7  1  0.50000002  0.00000000  0.76999902  1
