# generated using pymatgen
data_CaNdYBi3O4
_symmetry_space_group_name_H-M   'P 1'
_cell_length_a   6.12798834
_cell_length_b   6.12798834
_cell_length_c   6.47615147
_cell_angle_alpha   61.76301193
_cell_angle_beta   61.76301193
_cell_angle_gamma   59.99999619
_symmetry_Int_Tables_number   1
_chemical_formula_structural   CaNdYBi3O4
_chemical_formula_sum   'Ca1 Nd1 Y1 Bi3 O4'
_cell_volume   176.40499085
_cell_formula_units_Z   1
loop_
 _symmetry_equiv_pos_site_id
 _symmetry_equiv_pos_as_xyz
  1  'x, y, z'
loop_
 _atom_site_type_symbol
 _atom_site_label
 _atom_site_symmetry_multiplicity
 _atom_site_fract_x
 _atom_site_fract_y
 _atom_site_fract_z
 _atom_site_occupancy
  Y  Y0  1  0.25000002  0.95409201  0.24999999  1
  Nd  Nd1  1  0.54590801  0.25000000  0.25000000  1
  Ca  Ca2  1  0.95409202  0.54590800  0.24999999  1
  Bi  Bi3  1  0.04590801  0.45409200  0.75000000  1
  Bi  Bi4  1  0.45409202  0.75000001  0.75000000  1
  Bi  Bi5  1  0.75000001  0.04590800  0.75000000  1
  O  O6  1  0.85448803  0.85448801  0.43653599  1
  O  O7  1  0.64551202  0.64551200  0.06346399  1
  O  O8  1  0.35448801  0.35448800  0.93653600  1
  O  O9  1  0.14551200  0.14551200  0.56346400  1
