# generated using pymatgen
data_Nb6VCrS12
_symmetry_space_group_name_H-M   'P 1'
_cell_length_a   5.83838797
_cell_length_b   5.83838844
_cell_length_c   12.41509247
_cell_angle_alpha   90.00000000
_cell_angle_beta   90.00000000
_cell_angle_gamma   120.00000000
_symmetry_Int_Tables_number   1
_chemical_formula_structural   Nb6VCrS12
_chemical_formula_sum   'Nb6 V1 Cr1 S12'
_cell_volume   366.49371174
_cell_formula_units_Z   1
loop_
 _symmetry_equiv_pos_site_id
 _symmetry_equiv_pos_as_xyz
  1  'x, y, z'
loop_
 _atom_site_type_symbol
 _atom_site_label
 _atom_site_symmetry_multiplicity
 _atom_site_fract_x
 _atom_site_fract_y
 _atom_site_fract_z
 _atom_site_occupancy
  Nb  Nb0  1  0.33333338  0.66666670  0.24999999  1
  Nb  Nb1  1  0.66666669  0.33333335  0.74999997  1
  Nb  Nb2  1  0.66666669  0.33333335  0.49880398  1
  Nb  Nb3  1  0.33333338  0.66666670  0.99880396  1
  Nb  Nb4  1  0.33333338  0.66666670  0.50119598  1
  Nb  Nb5  1  0.66666669  0.33333335  0.00119600  1
  V  V6  1  0.00000000  0.00000000  0.49999998  1
  Cr  Cr7  1  0.00000000  0.00000000  0.00000000  1
  S  S8  1  0.66745907  0.99846306  0.87362197  1
  S  S9  1  0.33100402  0.33254102  0.87362197  1
  S  S10  1  0.00153704  0.66899604  0.87362197  1
  S  S11  1  0.99846303  0.33100402  0.37362199  1
  S  S12  1  0.33254102  0.33100402  0.12637800  1
  S  S13  1  0.33254100  0.00153700  0.37362199  1
  S  S14  1  0.66899605  0.66745904  0.37362199  1
  S  S15  1  0.33100407  0.99846306  0.62637798  1
  S  S16  1  0.66745905  0.66899604  0.62637798  1
  S  S17  1  0.66899600  0.00153700  0.12637800  1
  S  S18  1  0.99846305  0.66745904  0.12637800  1
  S  S19  1  0.00153702  0.33254102  0.62637798  1
