# generated using pymatgen
data_V(SeO3)2
_symmetry_space_group_name_H-M   'P 1'
_cell_length_a   5.70230150
_cell_length_b   5.70230150
_cell_length_c   6.26969242
_cell_angle_alpha   65.92456818
_cell_angle_beta   65.92456818
_cell_angle_gamma   60.14269257
_symmetry_Int_Tables_number   1
_chemical_formula_structural   V(SeO3)2
_chemical_formula_sum   'V1 Se2 O6'
_cell_volume   155.93095999
_cell_formula_units_Z   1
loop_
 _symmetry_equiv_pos_site_id
 _symmetry_equiv_pos_as_xyz
  1  'x, y, z'
loop_
 _atom_site_type_symbol
 _atom_site_label
 _atom_site_symmetry_multiplicity
 _atom_site_fract_x
 _atom_site_fract_y
 _atom_site_fract_z
 _atom_site_occupancy
  V  V0  1  0.00000000  0.00000000  0.00000000  1
  Se  Se1  1  0.35690403  0.35690402  0.90267396  1
  Se  Se2  1  0.64309606  0.64309603  0.09732594  1
  O  O3  1  0.24302502  0.24302501  0.76941097  1
  O  O4  1  0.75697507  0.75697504  0.23058893  1
  O  O5  1  0.29365304  0.76169704  0.21766395  1
  O  O6  1  0.76169705  0.29365301  0.21766395  1
  O  O7  1  0.70634705  0.23830301  0.78233596  1
  O  O8  1  0.23830304  0.70634703  0.78233595  1
