# generated using pymatgen
data_Na2Cu3H2N5
_symmetry_space_group_name_H-M   'P 1'
_cell_length_a   5.19754601
_cell_length_b   5.74821615
_cell_length_c   5.75486898
_cell_angle_alpha   119.41001129
_cell_angle_beta   90.00000000
_cell_angle_gamma   90.00000000
_symmetry_Int_Tables_number   1
_chemical_formula_structural   Na2Cu3H2N5
_chemical_formula_sum   'Na2 Cu3 H2 N5'
_cell_volume   149.77828653
_cell_formula_units_Z   1
loop_
 _symmetry_equiv_pos_site_id
 _symmetry_equiv_pos_as_xyz
  1  'x, y, z'
loop_
 _atom_site_type_symbol
 _atom_site_label
 _atom_site_symmetry_multiplicity
 _atom_site_fract_x
 _atom_site_fract_y
 _atom_site_fract_z
 _atom_site_occupancy
  Na  Na0  1  0.00891800  0.68718501  0.68860896  1
  Na  Na1  1  0.50891800  0.31281500  0.31139098  1
  Cu  Cu2  1  0.52733500  0.02533800  0.67368199  1
  Cu  Cu3  1  0.02733500  0.97466201  0.32631796  1
  Cu  Cu4  1  0.52244900  0.66957701  0.02713097  1
  H  H5  1  0.02244900  0.33042300  0.97286897  1
  N  N6  1  0.51013900  0.78094701  0.79827096  1
  N  N7  1  0.01013900  0.21905300  0.20172899  1
  N  N8  1  0.87596300  0.11838900  0.66521499  1
  N  N9  1  0.85339600  0.63939001  0.10299097  1
  N  N10  1  0.37596300  0.88161101  0.33478496  1
  H  H11  1  0.35339600  0.36061000  0.89700897  1
