# generated using pymatgen
data_Er3Zn3Ga2Ni
_symmetry_space_group_name_H-M   'P 1'
_cell_length_a   4.12248421
_cell_length_b   6.96552610
_cell_length_c   6.96552658
_cell_angle_alpha   120.00000000
_cell_angle_beta   90.00000000
_cell_angle_gamma   90.00000000
_symmetry_Int_Tables_number   1
_chemical_formula_structural   Er3Zn3Ga2Ni
_chemical_formula_sum   'Er3 Zn3 Ga2 Ni1'
_cell_volume   173.21979100
_cell_formula_units_Z   1
loop_
 _symmetry_equiv_pos_site_id
 _symmetry_equiv_pos_as_xyz
  1  'x, y, z'
loop_
 _atom_site_type_symbol
 _atom_site_label
 _atom_site_symmetry_multiplicity
 _atom_site_fract_x
 _atom_site_fract_y
 _atom_site_fract_z
 _atom_site_occupancy
  Er  Er0  1  0.49999997  0.57908100  1.00000001  1
  Er  Er1  1  0.49999997  0.42091900  0.42091901  1
  Er  Er2  1  0.49999997  0.00000000  0.57908099  1
  Ni  Ni3  1  -0.00000000  0.33333334  0.66666667  1
  Ga  Ga4  1  -0.00000000  0.66666667  0.33333336  1
  Ga  Ga5  1  0.49999997  0.00000000  -0.00000000  1
  Zn  Zn6  1  -0.00000000  0.25093800  0.00000001  1
  Zn  Zn7  1  -0.00000000  0.74906201  0.74906202  1
  Zn  Zn8  1  0.00000000  0.00000000  0.25093800  1
