# generated using pymatgen
data_Te2MoWSe2
_symmetry_space_group_name_H-M   'P 1'
_cell_length_a   3.44062209
_cell_length_b   3.44062185
_cell_length_c   39.05219269
_cell_angle_alpha   90.00000000
_cell_angle_beta   90.00000000
_cell_angle_gamma   120.00000000
_symmetry_Int_Tables_number   1
_chemical_formula_structural   Te2MoWSe2
_chemical_formula_sum   'Te4 Mo2 W2 Se4'
_cell_volume   400.35934688
_cell_formula_units_Z   2
loop_
 _symmetry_equiv_pos_site_id
 _symmetry_equiv_pos_as_xyz
  1  'x, y, z'
loop_
 _atom_site_type_symbol
 _atom_site_label
 _atom_site_symmetry_multiplicity
 _atom_site_fract_x
 _atom_site_fract_y
 _atom_site_fract_z
 _atom_site_occupancy
  Te  Te0  1  0.66666665  0.33333334  0.67068499  1
  Te  Te1  1  0.66666665  0.33333334  0.29495799  1
  Te  Te2  1  0.66666665  0.33333334  0.76571799  1
  Te  Te3  1  0.66666665  0.33333334  0.38997599  1
  W  W4  1  0.66666665  0.33333334  0.90608898  1
  Mo  Mo5  1  0.66666665  0.33333334  0.53033899  1
  Mo  Mo6  1  0.33333332  0.66666668  0.71821299  1
  W  W7  1  0.33333332  0.66666668  0.34247299  1
  Se  Se8  1  0.33333332  0.66666668  0.94795398  1
  Se  Se9  1  0.33333332  0.66666668  0.57222399  1
  Se  Se10  1  0.33333332  0.66666668  0.86417998  1
  Se  Se11  1  0.33333332  0.66666668  0.48844199  1
