# generated using pymatgen
data_NaBS3
_symmetry_space_group_name_H-M   'P 1'
_cell_length_a   6.03267384
_cell_length_b   7.67603207
_cell_length_c   8.99600124
_cell_angle_alpha   90.00000000
_cell_angle_beta   90.00000000
_cell_angle_gamma   90.00000000
_symmetry_Int_Tables_number   1
_chemical_formula_structural   NaBS3
_chemical_formula_sum   'Na4 B4 S12'
_cell_volume   416.57780988
_cell_formula_units_Z   4
loop_
 _symmetry_equiv_pos_site_id
 _symmetry_equiv_pos_as_xyz
  1  'x, y, z'
loop_
 _atom_site_type_symbol
 _atom_site_label
 _atom_site_symmetry_multiplicity
 _atom_site_fract_x
 _atom_site_fract_y
 _atom_site_fract_z
 _atom_site_occupancy
  Na  Na0  1  0.07079600  0.88595599  0.43320499  1
  Na  Na1  1  0.92920403  0.11404400  0.93320497  1
  Na  Na2  1  0.57079602  0.61404399  0.93320497  1
  Na  Na3  1  0.42920401  0.38595600  0.43320499  1
  B  B4  1  0.59622102  0.85377299  0.60438698  1
  B  B5  1  0.40377901  0.14622700  0.10438700  1
  B  B6  1  0.09622100  0.64622699  0.10438700  1
  B  B7  1  0.90377902  0.35377300  0.60438698  1
  S  S8  1  0.83463502  0.82688599  0.72659298  1
  S  S9  1  0.16536500  0.17311400  0.22659299  1
  S  S10  1  0.33463501  0.67311399  0.22659299  1
  S  S11  1  0.66536502  0.32688600  0.72659298  1
  S  S12  1  0.13406300  0.20427000  0.63555898  1
  S  S13  1  0.86593702  0.79572999  0.13555900  1
  S  S14  1  0.63406302  0.29573000  0.13555900  1
  S  S15  1  0.36593701  0.70426999  0.63555898  1
  S  S16  1  0.59568802  0.99796899  0.44607599  1
  S  S17  1  0.40431201  0.00203100  0.94607597  1
  S  S18  1  0.09568800  0.50203100  0.94607597  1
  S  S19  1  0.90431202  0.49796900  0.44607599  1
