# generated using pymatgen
data_K2Lu3CO10
_symmetry_space_group_name_H-M   'P 1'
_cell_length_a   5.92061996
_cell_length_b   6.22740507
_cell_length_c   8.41266155
_cell_angle_alpha   89.88856506
_cell_angle_beta   69.39719391
_cell_angle_gamma   89.68331146
_symmetry_Int_Tables_number   1
_chemical_formula_structural   K2Lu3CO10
_chemical_formula_sum   'K2 Lu3 C1 O10'
_cell_volume   290.33310652
_cell_formula_units_Z   1
loop_
 _symmetry_equiv_pos_site_id
 _symmetry_equiv_pos_as_xyz
  1  'x, y, z'
loop_
 _atom_site_type_symbol
 _atom_site_label
 _atom_site_symmetry_multiplicity
 _atom_site_fract_x
 _atom_site_fract_y
 _atom_site_fract_z
 _atom_site_occupancy
  K  K0  1  0.16497193  0.99574001  0.69132703  1
  K  K1  1  0.85629894  0.99574001  0.30867302  1
  Lu  Lu2  1  0.31454697  0.49600400  0.37972901  1
  Lu  Lu3  1  0.69427598  0.49600400  0.62027099  1
  Lu  Lu4  1  0.99421698  0.50709700  -0.00000000  1
  C  C5  1  0.49279401  0.00692000  -0.00000001  1
  O  O6  1  0.00509998  0.27566300  0.49897200  1
  O  O7  1  0.50473396  0.71793701  0.49922301  1
  O  O8  1  0.00395695  0.71793701  0.50077702  1
  O  O9  1  0.50407199  0.27566300  0.50102799  1
  O  O10  1  0.98389797  0.71091001  0.99999998  1
  O  O11  1  0.92905899  0.40813300  0.14038999  1
  O  O12  1  0.06944897  0.40813300  0.85961000  1
  O  O13  1  0.52601901  0.00114100  0.14043698  1
  O  O14  1  0.66645601  0.00114100  0.85956296  1
  O  O15  1  0.27914800  0.01883800  0.99999997  1
