# generated using pymatgen
data_SrLaNiO4
_symmetry_space_group_name_H-M   'P 1'
_cell_length_a   5.47752619
_cell_length_b   5.49907398
_cell_length_c   6.89304113
_cell_angle_alpha   90.00000000
_cell_angle_beta   113.41092682
_cell_angle_gamma   90.00000000
_symmetry_Int_Tables_number   1
_chemical_formula_structural   SrLaNiO4
_chemical_formula_sum   'Sr2 La2 Ni2 O8'
_cell_volume   190.53537844
_cell_formula_units_Z   2
loop_
 _symmetry_equiv_pos_site_id
 _symmetry_equiv_pos_as_xyz
  1  'x, y, z'
loop_
 _atom_site_type_symbol
 _atom_site_label
 _atom_site_symmetry_multiplicity
 _atom_site_fract_x
 _atom_site_fract_y
 _atom_site_fract_z
 _atom_site_occupancy
  Sr  Sr0  1  0.85543797  0.50000000  0.71087598  1
  Sr  Sr1  1  0.64382598  0.00000000  0.28765199  1
  La  La2  1  0.36037199  0.00000000  0.72074398  1
  La  La3  1  0.13902300  0.50000000  0.27804599  1
  Ni  Ni4  1  0.50042598  0.50000000  0.00085200  1
  Ni  Ni5  1  0.99736897  0.00000000  0.99473797  1
  O  O6  1  0.75431698  0.24755900  0.00078701  1
  O  O7  1  0.24646999  0.75244100  0.00078700  1
  O  O8  1  0.75431698  0.75244100  0.00078701  1
  O  O9  1  0.24646999  0.24755900  0.00078700  1
  O  O10  1  0.17740599  0.00000000  0.35481199  1
  O  O11  1  0.66073898  0.50000000  0.32147799  1
  O  O12  1  0.32867099  0.50000000  0.65734198  1
  O  O13  1  0.83515597  0.00000000  0.67031198  1
