# generated using pymatgen
data_LaScO3
_symmetry_space_group_name_H-M   'P 1'
_cell_length_a   5.77030277
_cell_length_b   5.98980188
_cell_length_c   8.34453773
_cell_angle_alpha   90.00000000
_cell_angle_beta   90.00000000
_cell_angle_gamma   90.00000000
_symmetry_Int_Tables_number   1
_chemical_formula_structural   LaScO3
_chemical_formula_sum   'La4 Sc4 O12'
_cell_volume   288.41201087
_cell_formula_units_Z   4
loop_
 _symmetry_equiv_pos_site_id
 _symmetry_equiv_pos_as_xyz
  1  'x, y, z'
loop_
 _atom_site_type_symbol
 _atom_site_label
 _atom_site_symmetry_multiplicity
 _atom_site_fract_x
 _atom_site_fract_y
 _atom_site_fract_z
 _atom_site_occupancy
  La  La0  1  0.01310500  0.44526401  0.25000001  1
  La  La1  1  0.98689504  0.55473601  0.75000002  1
  La  La2  1  0.51310502  0.05473600  0.75000002  1
  La  La3  1  0.48689502  0.94526402  0.25000001  1
  Sc  Sc4  1  0.00000000  0.00000000  0.00000000  1
  Sc  Sc5  1  0.50000002  0.50000001  0.00000000  1
  Sc  Sc6  1  0.00000000  0.00000000  0.50000002  1
  Sc  Sc7  1  0.50000002  0.50000001  0.50000002  1
  O  O8  1  0.31286101  0.18906500  0.06467300  1
  O  O9  1  0.68713903  0.81093502  0.93532703  1
  O  O10  1  0.81286103  0.31093501  0.93532703  1
  O  O11  1  0.68713903  0.81093502  0.56467302  1
  O  O12  1  0.18713901  0.68906501  0.06467300  1
  O  O13  1  0.31286101  0.18906500  0.43532701  1
  O  O14  1  0.18713901  0.68906501  0.43532701  1
  O  O15  1  0.81286103  0.31093501  0.56467302  1
  O  O16  1  0.62453802  0.55202901  0.25000001  1
  O  O17  1  0.37546201  0.44797101  0.75000002  1
  O  O18  1  0.12453800  0.94797102  0.75000002  1
  O  O19  1  0.87546203  0.05202900  0.25000001  1
