# generated using pymatgen
data_V6O7F5
_symmetry_space_group_name_H-M   'P 1'
_cell_length_a   5.44549799
_cell_length_b   5.44901466
_cell_length_c   7.09839392
_cell_angle_alpha   72.81664276
_cell_angle_beta   72.74781036
_cell_angle_gamma   72.28404999
_symmetry_Int_Tables_number   1
_chemical_formula_structural   V6O7F5
_chemical_formula_sum   'V6 O7 F5'
_cell_volume   186.67480904
_cell_formula_units_Z   1
loop_
 _symmetry_equiv_pos_site_id
 _symmetry_equiv_pos_as_xyz
  1  'x, y, z'
loop_
 _atom_site_type_symbol
 _atom_site_label
 _atom_site_symmetry_multiplicity
 _atom_site_fract_x
 _atom_site_fract_y
 _atom_site_fract_z
 _atom_site_occupancy
  V  V0  1  0.31691103  0.33174000  0.17459200  1
  V  V1  1  0.65787905  0.66790800  0.33184399  1
  V  V2  1  0.33956603  0.34916000  0.66698701  1
  V  V3  1  0.66901405  0.68413000  0.82928600  1
  V  V4  1  0.99199808  0.99474001  0.48932999  1
  V  V5  1  0.01939207  0.97839401  0.00938198  1
  O  O6  1  0.35309907  0.97219801  0.33555399  1
  O  O7  1  0.02831505  0.64598800  0.66508500  1
  O  O8  1  0.43369903  0.43236800  0.37214800  1
  O  O9  1  0.77176606  0.76897800  0.03799498  1
  O  O10  1  0.89156607  0.89381601  0.29836499  1
  O  O11  1  0.23313002  0.22932300  0.96275602  1
  F  F12  1  0.57112904  0.56795900  0.62836200  1
  F  F13  1  0.63963500  0.03569900  0.66376401  1
  O  O14  1  0.96508403  0.35865500  0.33675000  1
  F  F15  1  0.31252105  0.68590800  0.99981301  1
  F  F16  1  0.10205101  0.10468000  0.69896401  1
  F  F17  1  0.70324502  0.29835400  0.99902201  1
