# generated using pymatgen
data_Sr4CaIn2O6
_symmetry_space_group_name_H-M   'P 1'
_cell_length_a   5.65222216
_cell_length_b   6.71464014
_cell_length_c   6.71464014
_cell_angle_alpha   60.00000000
_cell_angle_beta   90.00000000
_cell_angle_gamma   90.00000000
_symmetry_Int_Tables_number   1
_chemical_formula_structural   Sr4CaIn2O6
_chemical_formula_sum   'Sr4 Ca1 In2 O6'
_cell_volume   220.69644603
_cell_formula_units_Z   1
loop_
 _symmetry_equiv_pos_site_id
 _symmetry_equiv_pos_as_xyz
  1  'x, y, z'
loop_
 _atom_site_type_symbol
 _atom_site_label
 _atom_site_symmetry_multiplicity
 _atom_site_fract_x
 _atom_site_fract_y
 _atom_site_fract_z
 _atom_site_occupancy
  Sr  Sr0  1  0.49999999  0.66666666  0.66666666  1
  Sr  Sr1  1  0.99999997  0.40407899  0.59592100  1
  Sr  Sr2  1  0.99999997  0.59592099  0.99999999  1
  Sr  Sr3  1  0.99999997  0.00000000  0.40407900  1
  Ca  Ca4  1  0.49999999  0.33333333  0.33333333  1
  In  In5  1  0.49999999  0.00000000  0.00000000  1
  In  In6  1  0.00000000  0.00000000  0.00000000  1
  O  O7  1  0.25450299  0.74775899  0.25224099  1
  O  O8  1  0.74549698  0.74775899  0.25224099  1
  O  O9  1  0.74549698  0.25224100  -0.00000000  1
  O  O10  1  0.25450299  0.00000000  0.74775900  1
  O  O11  1  0.74549698  0.00000000  0.74775900  1
  O  O12  1  0.25450299  0.25224100  -0.00000000  1
