# generated using pymatgen
data_TiAl3
_symmetry_space_group_name_H-M   'P 1'
_cell_length_a   3.90293908
_cell_length_b   3.90293908
_cell_length_c   16.61379623
_cell_angle_alpha   90.00000000
_cell_angle_beta   90.00000000
_cell_angle_gamma   90.00000000
_symmetry_Int_Tables_number   1
_chemical_formula_structural   TiAl3
_chemical_formula_sum   'Ti4 Al12'
_cell_volume   253.07685274
_cell_formula_units_Z   4
loop_
 _symmetry_equiv_pos_site_id
 _symmetry_equiv_pos_as_xyz
  1  'x, y, z'
loop_
 _atom_site_type_symbol
 _atom_site_label
 _atom_site_symmetry_multiplicity
 _atom_site_fract_x
 _atom_site_fract_y
 _atom_site_fract_z
 _atom_site_occupancy
  Ti  Ti0  1  0.49999999  0.49999999  0.38276102  1
  Ti  Ti1  1  0.00000000  0.00000000  0.88215704  1
  Ti  Ti2  1  0.00000000  0.00000000  0.11880801  1
  Ti  Ti3  1  0.49999999  0.49999999  0.61866503  1
  Al  Al4  1  0.49999999  0.00000000  0.00207400  1
  Al  Al5  1  -0.00000000  0.49999999  0.50031402  1
  Al  Al6  1  0.49999999  0.00000000  0.50031402  1
  Al  Al7  1  -0.00000000  0.49999999  0.00207400  1
  Al  Al8  1  -0.00000000  0.49999999  0.24789201  1
  Al  Al9  1  0.49999999  0.00000000  0.75001203  1
  Al  Al10  1  0.49999999  0.00000000  0.24789201  1
  Al  Al11  1  -0.00000000  0.49999999  0.75001203  1
  Al  Al12  1  0.00000000  0.00000000  0.62490603  1
  Al  Al13  1  0.00000000  0.00000000  0.37304902  1
  Al  Al14  1  0.49999999  0.49999999  0.87578304  1
  Al  Al15  1  0.49999999  0.49999999  0.12328801  1
