# generated using pymatgen
data_Ti2Fe7Sb4
_symmetry_space_group_name_H-M   'P 1'
_cell_length_a   5.35974979
_cell_length_b   5.35975027
_cell_length_c   8.78127003
_cell_angle_alpha   90.00000000
_cell_angle_beta   90.00000000
_cell_angle_gamma   120.00223541
_symmetry_Int_Tables_number   1
_chemical_formula_structural   Ti2Fe7Sb4
_chemical_formula_sum   'Ti2 Fe7 Sb4'
_cell_volume   218.45764710
_cell_formula_units_Z   1
loop_
 _symmetry_equiv_pos_site_id
 _symmetry_equiv_pos_as_xyz
  1  'x, y, z'
loop_
 _atom_site_type_symbol
 _atom_site_label
 _atom_site_symmetry_multiplicity
 _atom_site_fract_x
 _atom_site_fract_y
 _atom_site_fract_z
 _atom_site_occupancy
  Ti  Ti0  1  0.00000500  0.00000500  0.50000000  1
  Ti  Ti1  1  0.50002606  0.50002602  0.75515100  1
  Fe  Fe2  1  0.49995609  0.99999904  0.75524000  1
  Fe  Fe3  1  0.99999908  0.49995602  0.75524000  1
  Fe  Fe4  1  0.50002606  0.50002602  0.24484900  1
  Fe  Fe5  1  0.49995609  0.99999904  0.24476000  1
  Fe  Fe6  1  0.99999908  0.49995602  0.24476000  1
  Fe  Fe7  1  0.66675438  0.33342101  -0.00000000  1
  Fe  Fe8  1  0.33342106  0.66670402  -0.00000000  1
  Sb  Sb9  1  0.00006400  0.00006400  0.83544500  1
  Sb  Sb10  1  0.00006400  0.00006400  0.16455500  1
  Sb  Sb11  1  0.66672305  0.33325901  0.50000000  1
  Sb  Sb12  1  0.33326006  0.66672402  0.50000000  1
