# generated using pymatgen
data_CeNi4Sn
_symmetry_space_group_name_H-M   'P 1'
_cell_length_a   5.02845716
_cell_length_b   5.02845716
_cell_length_c   5.02845716
_cell_angle_alpha   60.00000000
_cell_angle_beta   60.00000000
_cell_angle_gamma   60.00000000
_symmetry_Int_Tables_number   1
_chemical_formula_structural   CeNi4Sn
_chemical_formula_sum   'Ce1 Ni4 Sn1'
_cell_volume   89.90612234
_cell_formula_units_Z   1
loop_
 _symmetry_equiv_pos_site_id
 _symmetry_equiv_pos_as_xyz
  1  'x, y, z'
loop_
 _atom_site_type_symbol
 _atom_site_label
 _atom_site_symmetry_multiplicity
 _atom_site_fract_x
 _atom_site_fract_y
 _atom_site_fract_z
 _atom_site_occupancy
  Ce  Ce0  1  0.74999997  0.74999997  0.74999997  1
  Ni  Ni1  1  0.87811996  0.37395998  0.37395998  1
  Ni  Ni2  1  0.37395898  0.87812096  0.37395998  1
  Ni  Ni3  1  0.37395898  0.37395998  0.37395998  1
  Ni  Ni4  1  0.37395898  0.37395998  0.87812096  1
  Sn  Sn5  1  0.00000000  0.00000000  0.00000000  1
