# generated using pymatgen
data_MgIn2Pd3
_symmetry_space_group_name_H-M   'P 1'
_cell_length_a   4.78820705
_cell_length_b   5.28034592
_cell_length_c   5.39181519
_cell_angle_alpha   60.68156052
_cell_angle_beta   90.00000000
_cell_angle_gamma   90.00000000
_symmetry_Int_Tables_number   1
_chemical_formula_structural   MgIn2Pd3
_chemical_formula_sum   'Mg1 In2 Pd3'
_cell_volume   118.86193990
_cell_formula_units_Z   1
loop_
 _symmetry_equiv_pos_site_id
 _symmetry_equiv_pos_as_xyz
  1  'x, y, z'
loop_
 _atom_site_type_symbol
 _atom_site_label
 _atom_site_symmetry_multiplicity
 _atom_site_fract_x
 _atom_site_fract_y
 _atom_site_fract_z
 _atom_site_occupancy
  Mg  Mg0  1  0.99999999  0.34324900  0.00000001  1
  In  In1  1  0.49999999  0.32768200  0.66055602  1
  Pd  Pd2  1  0.49999999  0.98823801  0.33944403  1
  In  In3  1  0.00000000  0.67230200  0.33304002  1
  Pd  Pd4  1  0.00000000  0.00534200  0.66696002  1
  Pd  Pd5  1  0.49999999  0.66318600  0.00000001  1
