# generated using pymatgen
data_Mg2Co6Sn4Os
_symmetry_space_group_name_H-M   'P 1'
_cell_length_a   5.33576822
_cell_length_b   5.33576727
_cell_length_c   8.63730335
_cell_angle_alpha   90.00000000
_cell_angle_beta   90.00000000
_cell_angle_gamma   120.00000000
_symmetry_Int_Tables_number   1
_chemical_formula_structural   Mg2Co6Sn4Os
_chemical_formula_sum   'Mg2 Co6 Sn4 Os1'
_cell_volume   212.96225629
_cell_formula_units_Z   1
loop_
 _symmetry_equiv_pos_site_id
 _symmetry_equiv_pos_as_xyz
  1  'x, y, z'
loop_
 _atom_site_type_symbol
 _atom_site_label
 _atom_site_symmetry_multiplicity
 _atom_site_fract_x
 _atom_site_fract_y
 _atom_site_fract_z
 _atom_site_occupancy
  Mg  Mg0  1  0.00000000  0.00000000  0.00000000  1
  Mg  Mg1  1  0.49999998  0.00000000  0.23266099  1
  Co  Co2  1  0.49999998  0.00000000  0.76733897  1
  Co  Co3  1  -0.00000003  0.50000000  0.23266099  1
  Co  Co4  1  -0.00000003  0.50000000  0.76733897  1
  Co  Co5  1  0.49999994  0.50000000  0.23266099  1
  Co  Co6  1  0.49999994  0.50000000  0.76733897  1
  Co  Co7  1  0.33333327  0.66666667  0.49999998  1
  Sn  Sn8  1  0.66666662  0.33333333  0.49999998  1
  Sn  Sn9  1  0.00000000  0.00000000  0.33270799  1
  Sn  Sn10  1  0.00000000  0.00000000  0.66729197  1
  Sn  Sn11  1  0.33333327  0.66666667  -0.00000000  1
  Os  Os12  1  0.66666662  0.33333333  0.99999996  1
