# generated using pymatgen
data_Na4CuPbO11
_symmetry_space_group_name_H-M   'P 1'
_cell_length_a   5.53843641
_cell_length_b   5.79992533
_cell_length_c   9.33213711
_cell_angle_alpha   72.56899261
_cell_angle_beta   89.74192810
_cell_angle_gamma   64.58771515
_symmetry_Int_Tables_number   1
_chemical_formula_structural   Na4CuPbO11
_chemical_formula_sum   'Na4 Cu1 Pb1 O11'
_cell_volume   255.64250154
_cell_formula_units_Z   1
loop_
 _symmetry_equiv_pos_site_id
 _symmetry_equiv_pos_as_xyz
  1  'x, y, z'
loop_
 _atom_site_type_symbol
 _atom_site_label
 _atom_site_symmetry_multiplicity
 _atom_site_fract_x
 _atom_site_fract_y
 _atom_site_fract_z
 _atom_site_occupancy
  Na  Na0  1  0.00462700  0.01420700  0.32996301  1
  Na  Na1  1  0.52527205  0.94577294  0.16146003  1
  Na  Na2  1  0.23340103  0.56473696  0.07141702  1
  Na  Na3  1  0.99401603  0.01997600  0.66487902  1
  Cu  Cu4  1  0.49421705  0.98689294  0.84078305  1
  Pb  Pb5  1  0.45808904  0.77810695  0.03330403  1
  O  O6  1  0.95024806  0.78131295  0.19463703  1
  O  O7  1  0.97013806  0.80602095  0.55596304  1
  O  O8  1  0.94518806  0.78549695  0.86894405  1
  O  O9  1  0.41228604  0.77752895  0.74189504  1
  O  O10  1  0.42358204  0.75612995  0.33318303  1
  O  O11  1  0.57484503  0.19111799  0.66569102  1
  O  O12  1  0.50768602  0.21557299  0.96377103  1
  O  O13  1  0.57145603  0.19796999  0.24883501  1
  O  O14  1  0.10122901  0.26036398  0.14112601  1
  O  O15  1  0.01005201  0.24154798  0.46984002  1
  O  O16  1  0.05990401  0.22218099  0.76804402  1
