# generated using pymatgen
data_SrTl3Cu2Ag2(I2O)2
_symmetry_space_group_name_H-M   'P 1'
_cell_length_a   4.89513826
_cell_length_b   4.89514399
_cell_length_c   20.48241043
_cell_angle_alpha   90.00000000
_cell_angle_beta   89.99999237
_cell_angle_gamma   119.99992371
_symmetry_Int_Tables_number   1
_chemical_formula_structural   SrTl3Cu2Ag2(I2O)2
_chemical_formula_sum   'Sr1 Tl3 Cu2 Ag2 I4 O2'
_cell_volume   425.05239111
_cell_formula_units_Z   1
loop_
 _symmetry_equiv_pos_site_id
 _symmetry_equiv_pos_as_xyz
  1  'x, y, z'
loop_
 _atom_site_type_symbol
 _atom_site_label
 _atom_site_symmetry_multiplicity
 _atom_site_fract_x
 _atom_site_fract_y
 _atom_site_fract_z
 _atom_site_occupancy
  Sr  Sr0  1  0.00000100  0.00000200  0.25000799  1
  Tl  Tl1  1  1.00000000  0.00000100  0.75000797  1
  Tl  Tl2  1  1.00000000  0.00000100  0.50000598  1
  Tl  Tl3  1  1.00000000  0.00000100  0.00000599  1
  Cu  Cu4  1  0.66666668  0.33333335  0.15112399  1
  Ag  Ag5  1  0.33333335  0.66666671  0.65111798  1
  Cu  Cu6  1  0.33333335  0.66666671  0.84883898  1
  Ag  Ag7  1  0.66666668  0.33333335  0.34883699  1
  I  I8  1  0.33333335  0.66666671  0.11106900  1
  I  I9  1  0.33333335  0.66666671  0.38894199  1
  I  I10  1  0.66666668  0.33333335  0.61106898  1
  I  I11  1  0.66666668  0.33333335  0.88894198  1
  O  O12  1  0.33333335  0.66666671  0.75001598  1
  O  O13  1  0.66666668  0.33333335  0.25001599  1
