# generated using pymatgen
data_NaSb(PO4)2
_symmetry_space_group_name_H-M   'P 1'
_cell_length_a   4.35617113
_cell_length_b   5.16817713
_cell_length_c   9.03767014
_cell_angle_alpha   76.95622253
_cell_angle_beta   88.30908966
_cell_angle_gamma   74.31158447
_symmetry_Int_Tables_number   1
_chemical_formula_structural   NaSb(PO4)2
_chemical_formula_sum   'Na1 Sb1 P2 O8'
_cell_volume   190.72714388
_cell_formula_units_Z   1
loop_
 _symmetry_equiv_pos_site_id
 _symmetry_equiv_pos_as_xyz
  1  'x, y, z'
loop_
 _atom_site_type_symbol
 _atom_site_label
 _atom_site_symmetry_multiplicity
 _atom_site_fract_x
 _atom_site_fract_y
 _atom_site_fract_z
 _atom_site_occupancy
  Na  Na0  1  -0.00000001  0.50000000  -0.00000002  1
  Sb  Sb1  1  0.00000000  0.00000000  0.50000003  1
  P  P2  1  0.44935798  0.12347400  0.73113204  1
  P  P3  1  0.55064197  0.87652599  0.26886799  1
  O  O4  1  0.47661997  0.63333899  0.24248500  1
  O  O5  1  0.67997598  0.03814500  0.14221902  1
  O  O6  1  0.32002397  0.96185499  0.85778102  1
  O  O7  1  0.77904096  0.76512399  0.41078701  1
  O  O8  1  0.22095899  0.23487600  0.58921303  1
  O  O9  1  0.74815596  0.91126199  0.68972702  1
  O  O10  1  0.25184399  0.08873800  0.31027302  1
  O  O11  1  0.52337998  0.36666100  0.75751504  1
