# generated using pymatgen
data_Fe(Co5S3)2
_symmetry_space_group_name_H-M   'P 1'
_cell_length_a   6.72912979
_cell_length_b   6.72912979
_cell_length_c   6.72912979
_cell_angle_alpha   109.47122192
_cell_angle_beta   109.47122192
_cell_angle_gamma   109.47122192
_symmetry_Int_Tables_number   1
_chemical_formula_structural   Fe(Co5S3)2
_chemical_formula_sum   'Fe1 Co10 S6'
_cell_volume   234.56045945
_cell_formula_units_Z   1
loop_
 _symmetry_equiv_pos_site_id
 _symmetry_equiv_pos_as_xyz
  1  'x, y, z'
loop_
 _atom_site_type_symbol
 _atom_site_label
 _atom_site_symmetry_multiplicity
 _atom_site_fract_x
 _atom_site_fract_y
 _atom_site_fract_z
 _atom_site_occupancy
  Fe  Fe0  1  0.00000000  0.00000000  0.00000000  1
  Co  Co1  1  0.50000005  0.50000003  0.50000005  1
  Co  Co2  1  0.00000000  0.00000000  0.50000001  1
  Co  Co3  1  0.00000003  0.50000003  0.00000003  1
  Co  Co4  1  0.50000008  1.00000007  1.00000009  1
  Co  Co5  1  0.14839003  0.35344002  0.50183004  1
  Co  Co6  1  0.85161007  0.64656004  0.49817007  1
  Co  Co7  1  0.14839005  0.64656004  0.79495006  1
  Co  Co8  1  0.85161005  0.35344002  0.20505005  1
  S  S9  1  0.64656005  0.49817003  0.85161007  1
  S  S10  1  0.35344004  0.50183003  0.14839004  1
  Co  Co11  1  0.35344003  0.20505001  0.85161004  1
  Co  Co12  1  0.64656007  0.79495005  0.14839006  1
  S  S13  1  0.79495004  0.14839001  0.64656004  1
  S  S14  1  0.20505006  0.85161006  0.35344006  1
  S  S15  1  0.50183003  0.14839001  0.35344003  1
  S  S16  1  0.49817007  0.85161006  0.64656008  1
