# generated using pymatgen
data_Li5V3O8
_symmetry_space_group_name_H-M   'P 1'
_cell_length_a   5.27507353
_cell_length_b   5.96758699
_cell_length_c   6.15230274
_cell_angle_alpha   60.99895859
_cell_angle_beta   73.54162598
_cell_angle_gamma   89.99133301
_symmetry_Int_Tables_number   1
_chemical_formula_structural   Li5V3O8
_chemical_formula_sum   'Li5 V3 O8'
_cell_volume   160.25821486
_cell_formula_units_Z   1
loop_
 _symmetry_equiv_pos_site_id
 _symmetry_equiv_pos_as_xyz
  1  'x, y, z'
loop_
 _atom_site_type_symbol
 _atom_site_label
 _atom_site_symmetry_multiplicity
 _atom_site_fract_x
 _atom_site_fract_y
 _atom_site_fract_z
 _atom_site_occupancy
  Li  Li0  1  0.99997805  0.00070000  0.49996097  1
  Li  Li1  1  0.99998807  0.49926400  0.49999596  1
  Li  Li2  1  0.49998706  0.74997700  0.99997798  1
  Li  Li3  1  0.49998704  0.24997700  0.99997899  1
  Li  Li4  1  0.49998506  0.74997300  0.49997997  1
  V  V5  1  0.00033302  0.50130300  0.99742900  1
  V  V6  1  0.99964410  0.99864200  0.00252795  1
  V  V7  1  0.49998504  0.24997400  0.49997798  1
  O  O8  1  0.25999803  0.38232000  0.23564899  1
  O  O9  1  0.26358905  0.88135900  0.23720798  1
  O  O10  1  0.73638606  0.61859700  0.76274797  1
  O  O11  1  0.73997404  0.11763700  0.76430898  1
  O  O12  1  0.75399004  0.12997000  0.24164897  1
  O  O13  1  0.75388007  0.62829700  0.24168696  1
  O  O14  1  0.24609505  0.87164800  0.75826798  1
  O  O15  1  0.24598603  0.36997200  0.75830899  1
