# generated using pymatgen
data_SrMnCo2O5
_symmetry_space_group_name_H-M   'P 1'
_cell_length_a   5.45644236
_cell_length_b   5.58643055
_cell_length_c   8.50574589
_cell_angle_alpha   109.14550781
_cell_angle_beta   108.69545746
_cell_angle_gamma   90.04433441
_symmetry_Int_Tables_number   1
_chemical_formula_structural   SrMnCo2O5
_chemical_formula_sum   'Sr2 Mn2 Co4 O10'
_cell_volume   230.37768369
_cell_formula_units_Z   2
loop_
 _symmetry_equiv_pos_site_id
 _symmetry_equiv_pos_as_xyz
  1  'x, y, z'
loop_
 _atom_site_type_symbol
 _atom_site_label
 _atom_site_symmetry_multiplicity
 _atom_site_fract_x
 _atom_site_fract_y
 _atom_site_fract_z
 _atom_site_occupancy
  Sr  Sr0  1  0.38738203  0.91345897  0.78531195  1
  Sr  Sr1  1  0.60206700  0.08649600  0.21463997  1
  Mn  Mn2  1  0.88745500  0.37190999  0.78537394  1
  Mn  Mn3  1  0.10207402  0.62813898  0.21467198  1
  Co  Co4  1  0.98681603  0.99996497  0.00001794  1
  Co  Co5  1  0.48681401  0.49990699  0.99995094  1
  Co  Co6  1  0.78032702  0.69046998  0.50000294  1
  Co  Co7  1  0.28042301  0.30959799  0.49996897  1
  O  O8  1  0.75256800  0.26643299  0.02690297  1
  O  O9  1  0.72573002  0.73356298  0.97306793  1
  O  O10  1  0.25289501  0.26098999  0.02694698  1
  O  O11  1  0.22606502  0.73901198  0.97315595  1
  O  O12  1  0.84235002  0.92678997  0.73763293  1
  O  O13  1  0.10450600  0.07294900  0.26218299  1
  O  O14  1  0.34224701  0.31056999  0.73765096  1
  O  O15  1  0.60467702  0.68941998  0.26246796  1
  O  O16  1  0.15381502  0.64758798  0.50002697  1
  O  O17  1  0.65378901  0.35273999  0.50002395  1
