# generated using pymatgen
data_Ce4S3N
_symmetry_space_group_name_H-M   'P 1'
_cell_length_a   4.74392414
_cell_length_b   4.74392414
_cell_length_c   9.41452885
_cell_angle_alpha   90.00000000
_cell_angle_beta   90.00000000
_cell_angle_gamma   90.00000000
_symmetry_Int_Tables_number   1
_chemical_formula_structural   Ce4S3N
_chemical_formula_sum   'Ce4 S3 N1'
_cell_volume   211.87224182
_cell_formula_units_Z   1
loop_
 _symmetry_equiv_pos_site_id
 _symmetry_equiv_pos_as_xyz
  1  'x, y, z'
loop_
 _atom_site_type_symbol
 _atom_site_label
 _atom_site_symmetry_multiplicity
 _atom_site_fract_x
 _atom_site_fract_y
 _atom_site_fract_z
 _atom_site_occupancy
  Ce  Ce0  1  0.00000000  0.00000000  0.00000000  1
  Ce  Ce1  1  0.49999999  0.49999999  -0.00000000  1
  Ce  Ce2  1  -0.00000000  0.49999999  0.67467701  1
  Ce  Ce3  1  0.49999999  0.00000000  0.32532301  1
  S  S4  1  -0.00000000  0.49999999  0.30603500  1
  S  S5  1  0.49999999  0.00000000  0.69396501  1
  S  S6  1  -0.00000000  0.49999999  0.91730601  1
  N  N7  1  0.49999999  0.00000000  0.08269400  1
