# generated using pymatgen
data_ErAlGe
_symmetry_space_group_name_H-M   'P 1'
_cell_length_a   4.05709600
_cell_length_b   5.56288576
_cell_length_c   5.73181391
_cell_angle_alpha   90.00000000
_cell_angle_beta   90.00000000
_cell_angle_gamma   111.38650513
_symmetry_Int_Tables_number   1
_chemical_formula_structural   ErAlGe
_chemical_formula_sum   'Er2 Al2 Ge2'
_cell_volume   120.45457459
_cell_formula_units_Z   2
loop_
 _symmetry_equiv_pos_site_id
 _symmetry_equiv_pos_as_xyz
  1  'x, y, z'
loop_
 _atom_site_type_symbol
 _atom_site_label
 _atom_site_symmetry_multiplicity
 _atom_site_fract_x
 _atom_site_fract_y
 _atom_site_fract_z
 _atom_site_occupancy
  Er  Er0  1  0.31022698  0.62045399  0.75000001  1
  Er  Er1  1  0.68977299  0.37954600  0.25000000  1
  Al  Al2  1  0.00000000  0.00000000  0.00000000  1
  Al  Al3  1  0.00000000  0.00000000  0.50000001  1
  Ge  Ge4  1  0.60690699  0.21381400  0.75000001  1
  Ge  Ge5  1  0.39309298  0.78618599  0.25000000  1
