# generated using pymatgen
data_LiMg3Co5Sb4
_symmetry_space_group_name_H-M   'P 1'
_cell_length_a   5.44245815
_cell_length_b   5.44245911
_cell_length_c   8.99853134
_cell_angle_alpha   90.00000000
_cell_angle_beta   90.00000000
_cell_angle_gamma   119.99999237
_symmetry_Int_Tables_number   1
_chemical_formula_structural   LiMg3Co5Sb4
_chemical_formula_sum   'Li1 Mg3 Co5 Sb4'
_cell_volume   230.83017013
_cell_formula_units_Z   1
loop_
 _symmetry_equiv_pos_site_id
 _symmetry_equiv_pos_as_xyz
  1  'x, y, z'
loop_
 _atom_site_type_symbol
 _atom_site_label
 _atom_site_symmetry_multiplicity
 _atom_site_fract_x
 _atom_site_fract_y
 _atom_site_fract_z
 _atom_site_occupancy
  Mg  Mg0  1  0.00000000  0.00000000  0.00000000  1
  Mg  Mg1  1  0.49999995  0.99999996  0.24785799  1
  Mg  Mg2  1  0.49999997  0.49999998  0.24785799  1
  Li  Li3  1  -0.00000002  0.49999998  0.24785799  1
  Co  Co4  1  0.49999995  0.99999996  0.75214197  1
  Co  Co5  1  0.49999997  0.49999998  0.75214197  1
  Co  Co6  1  -0.00000002  0.49999998  0.75214197  1
  Sb  Sb7  1  0.33333330  0.66666664  -0.00000000  1
  Sb  Sb8  1  0.66666664  0.33333332  -0.00000000  1
  Co  Co9  1  0.33333330  0.66666664  0.49999998  1
  Co  Co10  1  0.66666664  0.33333332  0.49999998  1
  Sb  Sb11  1  0.00000000  0.00000000  0.33151899  1
  Sb  Sb12  1  0.00000000  0.00000000  0.66848097  1
