# generated using pymatgen
data_La2Si3Au
_symmetry_space_group_name_H-M   'P 1'
_cell_length_a   4.20383978
_cell_length_b   4.20383978
_cell_length_c   7.90749502
_cell_angle_alpha   105.41530609
_cell_angle_beta   105.41530609
_cell_angle_gamma   90.00000000
_symmetry_Int_Tables_number   1
_chemical_formula_structural   La2Si3Au
_chemical_formula_sum   'La2 Si3 Au1'
_cell_volume   129.49365204
_cell_formula_units_Z   1
loop_
 _symmetry_equiv_pos_site_id
 _symmetry_equiv_pos_as_xyz
  1  'x, y, z'
loop_
 _atom_site_type_symbol
 _atom_site_label
 _atom_site_symmetry_multiplicity
 _atom_site_fract_x
 _atom_site_fract_y
 _atom_site_fract_z
 _atom_site_occupancy
  La  La0  1  0.58178304  0.58178304  0.16356602  1
  La  La1  1  0.33178303  0.83178305  0.66356603  1
  Si  Si2  1  0.16584201  0.16584201  0.33168401  1
  Si  Si3  1  0.91584206  0.41584203  0.83168403  1
  Si  Si4  1  0.99937508  0.99937506  0.99875005  1
  Au  Au5  1  0.74937505  0.24937502  0.49875002  1
