# generated using pymatgen
data_LiSb
_symmetry_space_group_name_H-M   'P 1'
_cell_length_a   4.45313406
_cell_length_b   4.45313454
_cell_length_c   7.39116621
_cell_angle_alpha   90.00000000
_cell_angle_beta   90.00000000
_cell_angle_gamma   119.99999237
_symmetry_Int_Tables_number   1
_chemical_formula_structural   LiSb
_chemical_formula_sum   'Li2 Sb2'
_cell_volume   126.93319727
_cell_formula_units_Z   2
loop_
 _symmetry_equiv_pos_site_id
 _symmetry_equiv_pos_as_xyz
  1  'x, y, z'
loop_
 _atom_site_type_symbol
 _atom_site_label
 _atom_site_symmetry_multiplicity
 _atom_site_fract_x
 _atom_site_fract_y
 _atom_site_fract_z
 _atom_site_occupancy
  Li  Li0  1  0.66666664  0.33333334  0.01873500  1
  Li  Li1  1  0.00000000  0.00000000  0.60932198  1
  Sb  Sb2  1  0.00000000  0.00000000  0.23478499  1
  Sb  Sb3  1  0.33333330  0.66666668  0.77715698  1
