# generated using pymatgen
data_Dy2Co3Si5
_symmetry_space_group_name_H-M   'P 1'
_cell_length_a   5.53974581
_cell_length_b   7.88136196
_cell_length_c   7.88136196
_cell_angle_alpha   74.36972809
_cell_angle_beta   69.42421722
_cell_angle_gamma   69.42421722
_symmetry_Int_Tables_number   1
_chemical_formula_structural   Dy2Co3Si5
_chemical_formula_sum   'Dy4 Co6 Si10'
_cell_volume   297.39533020
_cell_formula_units_Z   2
loop_
 _symmetry_equiv_pos_site_id
 _symmetry_equiv_pos_as_xyz
  1  'x, y, z'
loop_
 _atom_site_type_symbol
 _atom_site_label
 _atom_site_symmetry_multiplicity
 _atom_site_fract_x
 _atom_site_fract_y
 _atom_site_fract_z
 _atom_site_occupancy
  Dy  Dy0  1  0.63382405  0.59992899  0.13242296  1
  Dy  Dy1  1  0.36617603  0.40007099  0.86757696  1
  Dy  Dy2  1  0.86617507  0.86757699  0.40007194  1
  Dy  Dy3  1  0.13382501  0.13242300  0.59992798  1
  Co  Co4  1  0.75000008  0.99999999  -0.00000007  1
  Co  Co5  1  0.13786303  0.47019299  0.25407996  1
  Co  Co6  1  0.63786403  0.25407900  0.47019298  1
  Co  Co7  1  0.36213605  0.74592099  0.52980694  1
  Co  Co8  1  0.25000006  0.99999999  -0.00000007  1
  Co  Co9  1  0.86213705  0.52980699  0.74591996  1
  Si  Si10  1  0.89931004  0.25884000  0.94253997  1
  Si  Si11  1  0.10069004  0.74115999  0.05745994  1
  Si  Si12  1  0.60069002  0.05746000  0.74115999  1
  Si  Si13  1  0.39931006  0.94253999  0.25883993  1
  Si  Si14  1  0.47644506  0.77355499  0.77355493  1
  Si  Si15  1  0.02355501  0.22644500  0.22644498  1
  Si  Si16  1  0.52355503  0.22644500  0.22644499  1
  Si  Si17  1  0.75000005  0.49999999  0.49999996  1
  Si  Si18  1  0.25000003  0.49999999  0.49999995  1
  Si  Si19  1  0.97644507  0.77355499  0.77355494  1
