# generated using pymatgen
data_Dy4Si9Rh7
_symmetry_space_group_name_H-M   'P 1'
_cell_length_a   5.70874834
_cell_length_b   8.12456608
_cell_length_c   8.12456608
_cell_angle_alpha   93.19558716
_cell_angle_beta   109.75125885
_cell_angle_gamma   109.75125885
_symmetry_Int_Tables_number   1
_chemical_formula_structural   Dy4Si9Rh7
_chemical_formula_sum   'Dy4 Si9 Rh7'
_cell_volume   327.59126538
_cell_formula_units_Z   1
loop_
 _symmetry_equiv_pos_site_id
 _symmetry_equiv_pos_as_xyz
  1  'x, y, z'
loop_
 _atom_site_type_symbol
 _atom_site_label
 _atom_site_symmetry_multiplicity
 _atom_site_fract_x
 _atom_site_fract_y
 _atom_site_fract_z
 _atom_site_occupancy
  Dy  Dy0  1  0.23689194  0.59458698  0.86795794  1
  Dy  Dy1  1  0.26310798  0.13204199  0.40541298  1
  Dy  Dy2  1  0.76310794  0.40541298  0.13204195  1
  Dy  Dy3  1  0.73689189  0.86795797  0.59458691  1
  Si  Si4  1  0.16534197  0.26296799  0.06470698  1
  Si  Si5  1  0.33465790  0.93529296  0.73703192  1
  Si  Si6  1  0.83465790  0.73703197  0.93529292  1
  Si  Si7  1  0.66534197  0.06470700  0.26296798  1
  Si  Si8  1  0.24999992  0.79565797  0.20434194  1
  Si  Si9  1  0.74999996  0.20434199  0.79565796  1
  Si  Si10  1  0.24999995  0.48616398  0.51383595  1
  Si  Si11  1  0.74999993  0.51383598  0.48616394  1
  Si  Si12  1  0.24999997  0.22113599  0.77886397  1
  Rh  Rh13  1  0.74999990  0.77886397  0.22113593  1
  Rh  Rh14  1  0.36493794  0.54422698  0.25517595  1
  Rh  Rh15  1  0.13506192  0.74482397  0.45577294  1
  Rh  Rh16  1  0.63506194  0.45577298  0.74482394  1
  Rh  Rh17  1  0.86493795  0.25517599  0.54422695  1
  Rh  Rh18  1  0.24999999  0.00031600  0.99968398  1
  Rh  Rh19  1  0.74999988  0.99968396  0.00031591  1
