# generated using pymatgen
data_SrBiO3
_symmetry_space_group_name_H-M   'P 1'
_cell_length_a   6.02612495
_cell_length_b   6.02596712
_cell_length_c   8.52035332
_cell_angle_alpha   90.05352783
_cell_angle_beta   90.00000000
_cell_angle_gamma   90.00000000
_symmetry_Int_Tables_number   1
_chemical_formula_structural   SrBiO3
_chemical_formula_sum   'Sr4 Bi4 O12'
_cell_volume   309.40142184
_cell_formula_units_Z   4
loop_
 _symmetry_equiv_pos_site_id
 _symmetry_equiv_pos_as_xyz
  1  'x, y, z'
loop_
 _atom_site_type_symbol
 _atom_site_label
 _atom_site_symmetry_multiplicity
 _atom_site_fract_x
 _atom_site_fract_y
 _atom_site_fract_z
 _atom_site_occupancy
  Sr  Sr0  1  0.73482501  0.49659999  0.25022801  1
  Sr  Sr1  1  0.26517500  0.99659998  0.75022804  1
  Sr  Sr2  1  0.77415101  0.50704599  0.74992904  1
  Sr  Sr3  1  0.22584900  0.00704600  0.24992901  1
  Bi  Bi4  1  0.25083100  0.50024499  0.00019600  1
  Bi  Bi5  1  0.74916901  0.00024500  0.50019602  1
  Bi  Bi6  1  0.25089900  0.49995099  0.49969402  1
  Bi  Bi7  1  0.74910101  0.99995098  0.99969405  1
  O  O8  1  0.46410600  0.22041400  0.46066802  1
  O  O9  1  0.53589400  0.72041399  0.96066805  1
  O  O10  1  0.02255300  0.76715898  0.53051203  1
  O  O11  1  0.97744701  0.26715899  0.03051200  1
  O  O12  1  0.23423900  0.44705099  0.74703604  1
  O  O13  1  0.76576101  0.94705098  0.24703601  1
  O  O14  1  0.25858800  0.57440399  0.25352501  1
  O  O15  1  0.74141201  0.07440400  0.75352504  1
  O  O16  1  0.98007801  0.27520299  0.46996902  1
  O  O17  1  0.01992200  0.77520298  0.96996905  1
  O  O18  1  0.53109200  0.71192699  0.53824303  1
  O  O19  1  0.46890800  0.21192700  0.03824300  1
