# generated using pymatgen
data_CeSi2Pt
_symmetry_space_group_name_H-M   'P 1'
_cell_length_a   3.98294711
_cell_length_b   4.13695812
_cell_length_c   9.21108532
_cell_angle_alpha   102.93001556
_cell_angle_beta   90.02132416
_cell_angle_gamma   90.00433350
_symmetry_Int_Tables_number   1
_chemical_formula_structural   CeSi2Pt
_chemical_formula_sum   'Ce2 Si4 Pt2'
_cell_volume   147.92531212
_cell_formula_units_Z   2
loop_
 _symmetry_equiv_pos_site_id
 _symmetry_equiv_pos_as_xyz
  1  'x, y, z'
loop_
 _atom_site_type_symbol
 _atom_site_label
 _atom_site_symmetry_multiplicity
 _atom_site_fract_x
 _atom_site_fract_y
 _atom_site_fract_z
 _atom_site_occupancy
  Ce  Ce0  1  0.99846495  0.85654504  0.71807702  1
  Ce  Ce1  1  0.99799798  0.14314401  0.28225602  1
  Si  Si2  1  0.49755897  0.70916303  0.41713701  1
  Si  Si3  1  0.49713598  0.29119101  0.58308902  1
  Si  Si4  1  0.99823797  0.50064902  0.00001902  1
  Si  Si5  1  0.49896099  0.00354600  0.00019301  1
  Pt  Pt6  1  0.49830997  0.57862802  0.14984801  1
  Pt  Pt7  1  0.49786998  0.42946802  0.85020402  1
