# generated using pymatgen
data_NaNiSb2O5
_symmetry_space_group_name_H-M   'P 1'
_cell_length_a   3.89488196
_cell_length_b   3.89488196
_cell_length_c   7.96393013
_cell_angle_alpha   90.00000000
_cell_angle_beta   90.00000000
_cell_angle_gamma   90.00000000
_symmetry_Int_Tables_number   1
_chemical_formula_structural   NaNiSb2O5
_chemical_formula_sum   'Na1 Ni1 Sb2 O5'
_cell_volume   120.81366036
_cell_formula_units_Z   1
loop_
 _symmetry_equiv_pos_site_id
 _symmetry_equiv_pos_as_xyz
  1  'x, y, z'
loop_
 _atom_site_type_symbol
 _atom_site_label
 _atom_site_symmetry_multiplicity
 _atom_site_fract_x
 _atom_site_fract_y
 _atom_site_fract_z
 _atom_site_occupancy
  Na  Na0  1  0.50000000  0.50000000  0.74520699  1
  Ni  Ni1  1  0.50000000  0.50000000  0.20921200  1
  Sb  Sb2  1  0.00000000  0.00000000  0.44994699  1
  Sb  Sb3  1  0.00000000  0.00000000  0.99854598  1
  O  O4  1  0.50000000  0.00000000  0.02151600  1
  O  O5  1  -0.00000000  0.50000000  0.02151600  1
  O  O6  1  0.50000000  0.00000000  0.37870999  1
  O  O7  1  -0.00000000  0.50000000  0.37870999  1
  O  O8  1  0.00000000  0.00000000  0.68463599  1
