# generated using pymatgen
data_TiSbO3
_symmetry_space_group_name_H-M   'P 1'
_cell_length_a   3.75007510
_cell_length_b   5.93417597
_cell_length_c   6.11172390
_cell_angle_alpha   76.77889252
_cell_angle_beta   88.36961365
_cell_angle_gamma   88.67782593
_symmetry_Int_Tables_number   1
_chemical_formula_structural   TiSbO3
_chemical_formula_sum   'Ti2 Sb2 O6'
_cell_volume   132.33018136
_cell_formula_units_Z   2
loop_
 _symmetry_equiv_pos_site_id
 _symmetry_equiv_pos_as_xyz
  1  'x, y, z'
loop_
 _atom_site_type_symbol
 _atom_site_label
 _atom_site_symmetry_multiplicity
 _atom_site_fract_x
 _atom_site_fract_y
 _atom_site_fract_z
 _atom_site_occupancy
  Ti  Ti0  1  0.54273699  0.00794200  0.55317698  1
  Ti  Ti1  1  0.54858905  0.52252900  0.06645596  1
  Sb  Sb2  1  0.00153500  0.00525200  0.00244800  1
  Sb  Sb3  1  0.00367206  0.49641500  0.50482998  1
  O  O4  1  0.56982409  0.80070201  0.37060195  1
  O  O5  1  0.57162802  0.30651400  0.88009997  1
  O  O6  1  0.04255901  0.07884000  0.62347000  1
  O  O7  1  0.04348307  0.57286600  0.12055297  1
  O  O8  1  0.54495903  0.32756000  0.37232497  1
  O  O9  1  0.54761409  0.83018001  0.87143995  1
