# generated using pymatgen
data_Ca2PbS3
_symmetry_space_group_name_H-M   'P 1'
_cell_length_a   4.55817413
_cell_length_b   7.54576492
_cell_length_c   9.04117012
_cell_angle_alpha   90.00000000
_cell_angle_beta   90.00000000
_cell_angle_gamma   90.00000000
_symmetry_Int_Tables_number   1
_chemical_formula_structural   Ca2PbS3
_chemical_formula_sum   'Ca4 Pb2 S6'
_cell_volume   310.97023700
_cell_formula_units_Z   2
loop_
 _symmetry_equiv_pos_site_id
 _symmetry_equiv_pos_as_xyz
  1  'x, y, z'
loop_
 _atom_site_type_symbol
 _atom_site_label
 _atom_site_symmetry_multiplicity
 _atom_site_fract_x
 _atom_site_fract_y
 _atom_site_fract_z
 _atom_site_occupancy
  Ca  Ca0  1  0.24999999  0.24510200  0.89036999  1
  Ca  Ca1  1  0.74999998  0.75489801  0.10963000  1
  Ca  Ca2  1  0.24999999  0.74510201  0.60962999  1
  Ca  Ca3  1  0.74999998  0.25489800  0.39036999  1
  Pb  Pb4  1  0.24999999  0.01809400  0.16155400  1
  Pb  Pb5  1  0.74999998  0.98190601  0.83844599  1
  S  S6  1  0.24999999  0.51809401  0.33844600  1
  S  S7  1  0.74999998  0.48190600  0.66155399  1
  S  S8  1  0.74999998  0.35883400  0.07595400  1
  S  S9  1  0.24999999  0.64116601  0.92404599  1
  S  S10  1  0.74999998  0.85883401  0.42404599  1
  S  S11  1  0.24999999  0.14116600  0.57595399  1
