# generated using pymatgen
data_InSe
_symmetry_space_group_name_H-M   'P 1'
_cell_length_a   6.30585003
_cell_length_b   6.30585003
_cell_length_c   7.71087503
_cell_angle_alpha   114.13533020
_cell_angle_beta   114.13533020
_cell_angle_gamma   90.00000000
_symmetry_Int_Tables_number   1
_chemical_formula_structural   InSe
_chemical_formula_sum   'In4 Se4'
_cell_volume   250.15069151
_cell_formula_units_Z   4
loop_
 _symmetry_equiv_pos_site_id
 _symmetry_equiv_pos_as_xyz
  1  'x, y, z'
loop_
 _atom_site_type_symbol
 _atom_site_label
 _atom_site_symmetry_multiplicity
 _atom_site_fract_x
 _atom_site_fract_y
 _atom_site_fract_z
 _atom_site_occupancy
  In  In0  1  0.74999999  0.25000000  0.50000000  1
  In  In1  1  0.24999999  0.74999999  0.50000000  1
  In  In2  1  0.49999999  0.49999999  -0.00000001  1
  In  In3  1  0.00000000  0.00000000  0.00000000  1
  Se  Se4  1  0.89044098  0.89044099  0.28569799  1
  Se  Se5  1  0.39525699  0.39525700  0.28569800  1
  Se  Se6  1  0.10955899  0.60474299  0.71430201  1
  Se  Se7  1  0.60474299  0.10955900  0.71430201  1
