# generated using pymatgen
data_Cs2IrWO8
_symmetry_space_group_name_H-M   'P 1'
_cell_length_a   6.31312180
_cell_length_b   6.31312180
_cell_length_c   7.61762667
_cell_angle_alpha   114.48001862
_cell_angle_beta   114.48001862
_cell_angle_gamma   90.00000000
_symmetry_Int_Tables_number   1
_chemical_formula_structural   Cs2IrWO8
_chemical_formula_sum   'Cs2 Ir1 W1 O8'
_cell_volume   246.01046777
_cell_formula_units_Z   1
loop_
 _symmetry_equiv_pos_site_id
 _symmetry_equiv_pos_as_xyz
  1  'x, y, z'
loop_
 _atom_site_type_symbol
 _atom_site_label
 _atom_site_symmetry_multiplicity
 _atom_site_fract_x
 _atom_site_fract_y
 _atom_site_fract_z
 _atom_site_occupancy
  Cs  Cs0  1  0.74999999  0.75000001  0.49999997  1
  Cs  Cs1  1  0.25000000  0.25000000  0.50000000  1
  W  W2  1  -0.00000002  0.50000001  -0.00000002  1
  Ir  Ir3  1  0.50000001  0.00000000  -0.00000001  1
  O  O4  1  0.24289499  0.46001401  0.20290898  1
  O  O5  1  0.74289501  0.24289500  0.20290798  1
  O  O6  1  0.46001298  0.96001301  0.20290796  1
  O  O7  1  0.25710498  0.75710501  0.79709199  1
  O  O8  1  0.53998701  0.03998700  0.79709201  1
  O  O9  1  0.03998699  0.25710600  0.79709301  1
  O  O10  1  0.75710500  0.53998601  0.79709098  1
  O  O11  1  0.96001300  0.74289401  0.20290696  1
