# generated using pymatgen
data_AlPd3
_symmetry_space_group_name_H-M   'P 1'
_cell_length_a   4.65528202
_cell_length_b   5.75084782
_cell_length_c   5.75084782
_cell_angle_alpha   120.00000000
_cell_angle_beta   90.00000000
_cell_angle_gamma   90.00000000
_symmetry_Int_Tables_number   1
_chemical_formula_structural   AlPd3
_chemical_formula_sum   'Al2 Pd6'
_cell_volume   133.33383723
_cell_formula_units_Z   2
loop_
 _symmetry_equiv_pos_site_id
 _symmetry_equiv_pos_as_xyz
  1  'x, y, z'
loop_
 _atom_site_type_symbol
 _atom_site_label
 _atom_site_symmetry_multiplicity
 _atom_site_fract_x
 _atom_site_fract_y
 _atom_site_fract_z
 _atom_site_occupancy
  Al  Al0  1  0.75000000  0.16970700  0.83029296  1
  Al  Al1  1  0.25000000  0.83029301  0.66058594  1
  Pd  Pd2  1  0.25000000  0.33941400  0.16970698  1
  Pd  Pd3  1  0.75000000  0.66058601  0.83029294  1
  Pd  Pd4  1  0.75000000  0.16970700  0.33941398  1
  Pd  Pd5  1  0.25000000  0.83029301  0.16970696  1
  Pd  Pd6  1  0.75000000  0.66666667  0.33333329  1
  Pd  Pd7  1  0.25000000  0.33333334  0.66666663  1
