# generated using pymatgen
data_Li2TiO6
_symmetry_space_group_name_H-M   'P 1'
_cell_length_a   4.59455395
_cell_length_b   5.91396856
_cell_length_c   7.51255894
_cell_angle_alpha   90.76276398
_cell_angle_beta   90.70822144
_cell_angle_gamma   93.73918915
_symmetry_Int_Tables_number   1
_chemical_formula_structural   Li2TiO6
_chemical_formula_sum   'Li4 Ti2 O12'
_cell_volume   203.66111117
_cell_formula_units_Z   2
loop_
 _symmetry_equiv_pos_site_id
 _symmetry_equiv_pos_as_xyz
  1  'x, y, z'
loop_
 _atom_site_type_symbol
 _atom_site_label
 _atom_site_symmetry_multiplicity
 _atom_site_fract_x
 _atom_site_fract_y
 _atom_site_fract_z
 _atom_site_occupancy
  Li  Li0  1  0.01835800  0.00956800  0.00742300  1
  Li  Li1  1  0.46969001  0.47564199  0.99285300  1
  Li  Li2  1  0.99507102  0.66800398  0.33068801  1
  Li  Li3  1  0.48696800  0.80837498  0.67687901  1
  Ti  Ti4  1  0.48904401  0.16415900  0.32449200  1
  Ti  Ti5  1  0.01326700  0.34119799  0.66871500  1
  O  O6  1  0.30383001  0.20050999  0.10651200  1
  O  O7  1  0.30105900  0.52803199  0.77239400  1
  O  O8  1  0.79970001  0.98845597  0.22311102  1
  O  O9  1  0.20112000  0.68582898  0.11374801  1
  O  O10  1  0.29787600  0.85321398  0.44436201  1
  O  O11  1  0.69646701  0.48120299  0.21950201  1
  O  O12  1  0.79198001  0.65302598  0.55113201  1
  O  O13  1  0.20458200  0.34969899  0.44518300  1
  O  O14  1  0.71370501  0.81209298  0.90181501  1
  O  O15  1  0.70283802  0.14657000  0.55599700  1
  O  O16  1  0.80518602  0.31922099  0.88279400  1
  O  O17  1  0.20925801  0.01520100  0.78239999  1
