# generated using pymatgen
data_Ac3Mg
_symmetry_space_group_name_H-M   'P 1'
_cell_length_a   6.30725193
_cell_length_b   7.81938982
_cell_length_c   7.81939077
_cell_angle_alpha   60.00000381
_cell_angle_beta   90.00000000
_cell_angle_gamma   90.00000000
_symmetry_Int_Tables_number   1
_chemical_formula_structural   Ac3Mg
_chemical_formula_sum   'Ac6 Mg2'
_cell_volume   333.97703809
_cell_formula_units_Z   2
loop_
 _symmetry_equiv_pos_site_id
 _symmetry_equiv_pos_as_xyz
  1  'x, y, z'
loop_
 _atom_site_type_symbol
 _atom_site_label
 _atom_site_symmetry_multiplicity
 _atom_site_fract_x
 _atom_site_fract_y
 _atom_site_fract_z
 _atom_site_occupancy
  Ac  Ac0  1  0.25000000  0.82973001  0.34054002  1
  Ac  Ac1  1  0.25000000  0.82973001  0.82972900  1
  Ac  Ac2  1  0.25000000  0.34054100  0.82972899  1
  Ac  Ac3  1  0.75000001  0.17027000  0.65945999  1
  Ac  Ac4  1  0.75000001  0.17027000  0.17027100  1
  Ac  Ac5  1  0.75000001  0.65945901  0.17027102  1
  Mg  Mg6  1  0.75000001  0.66666667  0.66666667  1
  Mg  Mg7  1  0.25000000  0.33333334  0.33333333  1
