# generated using pymatgen
data_NaSr3Ca3Ti2O9
_symmetry_space_group_name_H-M   'P 1'
_cell_length_a   5.94576979
_cell_length_b   6.05613661
_cell_length_c   8.82230186
_cell_angle_alpha   72.88848877
_cell_angle_beta   80.00183868
_cell_angle_gamma   68.15439606
_symmetry_Int_Tables_number   1
_chemical_formula_structural   NaSr3Ca3Ti2O9
_chemical_formula_sum   'Na1 Sr3 Ca3 Ti2 O9'
_cell_volume   281.07466334
_cell_formula_units_Z   1
loop_
 _symmetry_equiv_pos_site_id
 _symmetry_equiv_pos_as_xyz
  1  'x, y, z'
loop_
 _atom_site_type_symbol
 _atom_site_label
 _atom_site_symmetry_multiplicity
 _atom_site_fract_x
 _atom_site_fract_y
 _atom_site_fract_z
 _atom_site_occupancy
  Na  Na0  1  0.78727100  0.57460399  0.17466102  1
  Sr  Sr1  1  0.21272899  0.42539599  0.82533899  1
  Sr  Sr2  1  0.73885201  0.21904099  0.97229199  1
  Sr  Sr3  1  0.26114798  0.78095898  0.02770802  1
  Ca  Ca4  1  0.73443100  0.47755999  0.57610101  1
  Ca  Ca5  1  0.26556899  0.52243999  0.42389900  1
  Ca  Ca6  1  0.22751297  0.96236198  0.61558101  1
  Ti  Ti7  1  0.77248702  0.03763800  0.38441900  1
  Ti  Ti8  1  0.71856499  0.84831798  0.75435501  1
  O  O9  1  0.28143500  0.15168200  0.24564500  1
  O  O10  1  0.95955100  0.71960198  0.61176402  1
  O  O11  1  0.04044899  0.28039799  0.38823600  1
  O  O12  1  0.88208000  0.81948398  0.92211401  1
  O  O13  1  0.11792000  0.18051600  0.07788600  1
  O  O14  1  0.52403499  0.64728998  0.80196200  1
  O  O15  1  0.47596500  0.35270999  0.19803801  1
  O  O16  1  0.46784498  0.83667698  0.35175302  1
  O  O17  1  0.53215501  0.16332300  0.64824700  1
