# generated using pymatgen
data_NaU(CO3)2
_symmetry_space_group_name_H-M   'P 1'
_cell_length_a   6.32374382
_cell_length_b   6.32374382
_cell_length_c   6.86245441
_cell_angle_alpha   103.72594452
_cell_angle_beta   103.72594452
_cell_angle_gamma   96.01366425
_symmetry_Int_Tables_number   1
_chemical_formula_structural   NaU(CO3)2
_chemical_formula_sum   'Na2 U2 C4 O12'
_cell_volume   255.17731135
_cell_formula_units_Z   2
loop_
 _symmetry_equiv_pos_site_id
 _symmetry_equiv_pos_as_xyz
  1  'x, y, z'
loop_
 _atom_site_type_symbol
 _atom_site_label
 _atom_site_symmetry_multiplicity
 _atom_site_fract_x
 _atom_site_fract_y
 _atom_site_fract_z
 _atom_site_occupancy
  Na  Na0  1  0.37968199  0.62031799  0.75000002  1
  Na  Na1  1  0.62031799  0.37968199  0.25000002  1
  U  U2  1  0.90452099  0.09547900  0.75000002  1
  U  U3  1  0.09547899  0.90452099  0.25000002  1
  C  C4  1  0.35432799  0.10947800  0.75595101  1
  C  C5  1  0.64567198  0.89052199  0.24404903  1
  C  C6  1  0.89052198  0.64567199  0.74404903  1
  C  C7  1  0.10947799  0.35432800  0.25595101  1
  O  O8  1  0.56025299  0.10472000  0.77878702  1
  O  O9  1  0.43974698  0.89527999  0.22121303  1
  O  O10  1  0.89527998  0.43974699  0.72121303  1
  O  O11  1  0.10471999  0.56025299  0.27878701  1
  O  O12  1  0.28134299  0.24988700  0.88350701  1
  O  O13  1  0.71865698  0.75011299  0.11649303  1
  O  O14  1  0.75011298  0.71865699  0.61649303  1
  O  O15  1  0.24988699  0.28134300  0.38350701  1
  O  O16  1  0.20101699  0.96531899  0.60434802  1
  O  O17  1  0.79898299  0.03468100  0.39565202  1
  O  O18  1  0.03468099  0.79898299  0.89565202  1
  O  O19  1  0.96531899  0.20101700  0.10434803  1
