# generated using pymatgen
data_LaGa2Pd
_symmetry_space_group_name_H-M   'P 1'
_cell_length_a   4.35009623
_cell_length_b   5.88350487
_cell_length_c   7.66667986
_cell_angle_alpha   90.00000000
_cell_angle_beta   90.00000000
_cell_angle_gamma   111.69623566
_symmetry_Int_Tables_number   1
_chemical_formula_structural   LaGa2Pd
_chemical_formula_sum   'La2 Ga4 Pd2'
_cell_volume   182.31875566
_cell_formula_units_Z   2
loop_
 _symmetry_equiv_pos_site_id
 _symmetry_equiv_pos_as_xyz
  1  'x, y, z'
loop_
 _atom_site_type_symbol
 _atom_site_label
 _atom_site_symmetry_multiplicity
 _atom_site_fract_x
 _atom_site_fract_y
 _atom_site_fract_z
 _atom_site_occupancy
  La  La0  1  0.06777199  0.13554400  0.25000000  1
  La  La1  1  0.93222790  0.86445601  0.75000001  1
  Ga  Ga2  1  0.35575294  0.71150601  0.04654000  1
  Ga  Ga3  1  0.35575294  0.71150601  0.45346001  1
  Ga  Ga4  1  0.64424695  0.28849400  0.95346002  1
  Ga  Ga5  1  0.64424695  0.28849400  0.54654001  1
  Pd  Pd6  1  0.78772592  0.57545201  0.25000000  1
  Pd  Pd7  1  0.21227396  0.42454801  0.75000001  1
