# generated using pymatgen
data_Y4CdInSe8
_symmetry_space_group_name_H-M   'P 1'
_cell_length_a   8.40692425
_cell_length_b   8.40692425
_cell_length_c   8.40692425
_cell_angle_alpha   60.00000000
_cell_angle_beta   60.00000000
_cell_angle_gamma   60.00000000
_symmetry_Int_Tables_number   1
_chemical_formula_structural   Y4CdInSe8
_chemical_formula_sum   'Y4 Cd1 In1 Se8'
_cell_volume   420.14229613
_cell_formula_units_Z   1
loop_
 _symmetry_equiv_pos_site_id
 _symmetry_equiv_pos_as_xyz
  1  'x, y, z'
loop_
 _atom_site_type_symbol
 _atom_site_label
 _atom_site_symmetry_multiplicity
 _atom_site_fract_x
 _atom_site_fract_y
 _atom_site_fract_z
 _atom_site_occupancy
  Y  Y0  1  0.37499999  0.37499999  0.37499999  1
  Y  Y1  1  0.37499999  0.87499998  0.37499999  1
  Y  Y2  1  0.37499999  0.37499999  0.87499998  1
  Y  Y3  1  0.87499998  0.37499999  0.37499999  1
  Cd  Cd4  1  0.00000000  0.00000000  0.00000000  1
  In  In5  1  0.74999998  0.74999998  0.74999998  1
  Se  Se6  1  0.13497800  0.62167398  0.62167398  1
  Se  Se7  1  0.62167298  0.62167398  0.13497900  1
  Se  Se8  1  0.62167298  0.62167398  0.62167398  1
  Se  Se9  1  0.62167298  0.13497900  0.62167398  1
  Se  Se10  1  0.12832700  0.61502098  0.12832600  1
  Se  Se11  1  0.12832700  0.12832600  0.12832600  1
  Se  Se12  1  0.12832700  0.12832600  0.61502098  1
  Se  Se13  1  0.61502198  0.12832600  0.12832600  1
