# generated using pymatgen
data_AlAg4
_symmetry_space_group_name_H-M   'P 1'
_cell_length_a   4.74320221
_cell_length_b   8.53177738
_cell_length_c   9.46156788
_cell_angle_alpha   106.10448456
_cell_angle_beta   90.00000000
_cell_angle_gamma   90.00000000
_symmetry_Int_Tables_number   1
_chemical_formula_structural   AlAg4
_chemical_formula_sum   'Al4 Ag16'
_cell_volume   367.86462172
_cell_formula_units_Z   4
loop_
 _symmetry_equiv_pos_site_id
 _symmetry_equiv_pos_as_xyz
  1  'x, y, z'
loop_
 _atom_site_type_symbol
 _atom_site_label
 _atom_site_symmetry_multiplicity
 _atom_site_fract_x
 _atom_site_fract_y
 _atom_site_fract_z
 _atom_site_occupancy
  Al  Al0  1  0.24999999  0.60369797  0.27510201  1
  Al  Al1  1  0.74999997  0.39630198  0.72489802  1
  Al  Al2  1  0.24999999  0.99303296  0.87269702  1
  Al  Al3  1  0.74999997  0.00696700  0.12730300  1
  Ag  Ag4  1  0.24999999  0.00556900  0.37925001  1
  Ag  Ag5  1  0.74999997  0.99443096  0.62075001  1
  Ag  Ag6  1  0.24999999  0.19962499  0.68172702  1
  Ag  Ag7  1  0.74999997  0.80037496  0.31827301  1
  Ag  Ag8  1  0.24999999  0.18782699  0.16982200  1
  Ag  Ag9  1  0.74999997  0.81217296  0.83017802  1
  Ag  Ag10  1  0.24999999  0.40017798  0.46625001  1
  Ag  Ag11  1  0.74999997  0.59982197  0.53375001  1
  Ag  Ag12  1  0.24999999  0.39828498  0.98555602  1
  Ag  Ag13  1  0.74999997  0.60171497  0.01444400  1
  Ag  Ag14  1  0.24999999  0.59579797  0.77600802  1
  Ag  Ag15  1  0.74999997  0.40420198  0.22399200  1
  Ag  Ag16  1  0.24999999  0.80601596  0.08560800  1
  Ag  Ag17  1  0.74999997  0.19398399  0.91439202  1
  Ag  Ag18  1  0.24999999  0.80286896  0.56766601  1
  Ag  Ag19  1  0.74999997  0.19713099  0.43233401  1
