# generated using pymatgen
data_Ce2AsSe3
_symmetry_space_group_name_H-M   'P 1'
_cell_length_a   4.09086180
_cell_length_b   4.09086180
_cell_length_c   8.42516994
_cell_angle_alpha   90.00000000
_cell_angle_beta   90.00000000
_cell_angle_gamma   90.00000000
_symmetry_Int_Tables_number   1
_chemical_formula_structural   Ce2AsSe3
_chemical_formula_sum   'Ce2 As1 Se3'
_cell_volume   140.99648486
_cell_formula_units_Z   1
loop_
 _symmetry_equiv_pos_site_id
 _symmetry_equiv_pos_as_xyz
  1  'x, y, z'
loop_
 _atom_site_type_symbol
 _atom_site_label
 _atom_site_symmetry_multiplicity
 _atom_site_fract_x
 _atom_site_fract_y
 _atom_site_fract_z
 _atom_site_occupancy
  Ce  Ce0  1  -0.00000000  0.50000002  0.72580000  1
  Ce  Ce1  1  0.50000002  0.00000000  0.27420000  1
  As  As2  1  0.00000000  0.00000000  0.00000000  1
  Se  Se3  1  0.50000002  0.50000002  -0.00000000  1
  Se  Se4  1  -0.00000000  0.50000002  0.36850700  1
  Se  Se5  1  0.50000002  0.00000000  0.63149300  1
