# generated using pymatgen
data_NbNiP
_symmetry_space_group_name_H-M   'P 1'
_cell_length_a   3.54815793
_cell_length_b   6.03801489
_cell_length_c   6.84222412
_cell_angle_alpha   90.00000000
_cell_angle_beta   90.00000000
_cell_angle_gamma   90.00000000
_symmetry_Int_Tables_number   1
_chemical_formula_structural   NbNiP
_chemical_formula_sum   'Nb4 Ni4 P4'
_cell_volume   146.58664921
_cell_formula_units_Z   4
loop_
 _symmetry_equiv_pos_site_id
 _symmetry_equiv_pos_as_xyz
  1  'x, y, z'
loop_
 _atom_site_type_symbol
 _atom_site_label
 _atom_site_symmetry_multiplicity
 _atom_site_fract_x
 _atom_site_fract_y
 _atom_site_fract_z
 _atom_site_occupancy
  Nb  Nb0  1  0.25000000  0.97551302  0.32228599  1
  Nb  Nb1  1  0.25000000  0.47551301  0.17771400  1
  Nb  Nb2  1  0.75000001  0.02448700  0.67771399  1
  Nb  Nb3  1  0.75000001  0.52448701  0.82228599  1
  Ni  Ni4  1  0.25000000  0.85966702  0.93846398  1
  Ni  Ni5  1  0.25000000  0.35966701  0.56153599  1
  Ni  Ni6  1  0.75000001  0.14033300  0.06153600  1
  Ni  Ni7  1  0.75000001  0.64033301  0.43846399  1
  P  P8  1  0.25000000  0.23225100  0.87752498  1
  P  P9  1  0.25000000  0.73225101  0.62247499  1
  P  P10  1  0.75000001  0.76774901  0.12247500  1
  P  P11  1  0.75000001  0.26774900  0.37752499  1
