# generated using pymatgen
data_SrNi3B3P4
_symmetry_space_group_name_H-M   'P 1'
_cell_length_a   5.35512495
_cell_length_b   6.12143803
_cell_length_c   6.12143803
_cell_angle_alpha   60.00000000
_cell_angle_beta   90.00000000
_cell_angle_gamma   90.00000000
_symmetry_Int_Tables_number   1
_chemical_formula_structural   SrNi3B3P4
_chemical_formula_sum   'Sr1 Ni3 B3 P4'
_cell_volume   173.78294569
_cell_formula_units_Z   1
loop_
 _symmetry_equiv_pos_site_id
 _symmetry_equiv_pos_as_xyz
  1  'x, y, z'
loop_
 _atom_site_type_symbol
 _atom_site_label
 _atom_site_symmetry_multiplicity
 _atom_site_fract_x
 _atom_site_fract_y
 _atom_site_fract_z
 _atom_site_occupancy
  Sr  Sr0  1  0.50000000  0.00000000  0.00000000  1
  B  B1  1  0.56818601  0.33333333  0.33333333  1
  B  B2  1  0.43181400  0.66666667  0.66666667  1
  Ni  Ni3  1  0.06582700  0.66666667  0.66666667  1
  Ni  Ni4  1  0.93417301  0.33333333  0.33333333  1
  P  P5  1  0.75031201  0.51558900  0.96882201  1
  P  P6  1  0.75031201  0.96882200  0.51558899  1
  B  B7  1  0.75031201  0.51558900  0.51558900  1
  P  P8  1  0.24968800  0.48441100  0.03117799  1
  P  P9  1  0.24968800  0.03117800  0.48441101  1
  Ni  Ni10  1  0.24968800  0.48441100  0.48441100  1
