# generated using pymatgen
data_Sm2Co17
_symmetry_space_group_name_H-M   'P 1'
_cell_length_a   6.46440077
_cell_length_b   6.46440077
_cell_length_c   6.46440077
_cell_angle_alpha   81.80494690
_cell_angle_beta   81.80494690
_cell_angle_gamma   81.80494690
_symmetry_Int_Tables_number   1
_chemical_formula_structural   Sm2Co17
_chemical_formula_sum   'Sm2 Co17'
_cell_volume   262.58093211
_cell_formula_units_Z   1
loop_
 _symmetry_equiv_pos_site_id
 _symmetry_equiv_pos_as_xyz
  1  'x, y, z'
loop_
 _atom_site_type_symbol
 _atom_site_label
 _atom_site_symmetry_multiplicity
 _atom_site_fract_x
 _atom_site_fract_y
 _atom_site_fract_z
 _atom_site_occupancy
  Sm  Sm0  1  0.34754300  0.34754300  0.34754296  1
  Sm  Sm1  1  0.65245701  0.65245701  0.65245693  1
  Co  Co2  1  0.10276900  0.10276900  0.10276899  1
  Co  Co3  1  0.89723101  0.89723101  0.89723090  1
  Co  Co4  1  0.00000000  0.00000000  0.50000001  1
  Co  Co5  1  0.50000001  0.00000000  -0.00000003  1
  Co  Co6  1  -0.00000000  0.50000001  0.99999999  1
  Co  Co7  1  0.29842400  0.70157601  -0.00000007  1
  Co  Co8  1  -0.00000000  0.29842400  0.70157600  1
  Co  Co9  1  0.70157601  0.00000000  0.29842396  1
  Co  Co10  1  -0.00000000  0.70157601  0.29842396  1
  Co  Co11  1  0.29842400  0.00000000  0.70157600  1
  Co  Co12  1  0.70157601  0.29842400  -0.00000007  1
  Co  Co13  1  0.65776101  0.65776101  0.15830992  1
  Co  Co14  1  0.15831000  0.65776101  0.65776096  1
  Co  Co15  1  0.65776101  0.15831000  0.65776096  1
  Co  Co16  1  0.34223900  0.34223900  0.84168997  1
  Co  Co17  1  0.84169001  0.34223900  0.34223893  1
  Co  Co18  1  0.34223900  0.84169001  0.34223893  1
