# generated using pymatgen
data_Pm
_symmetry_space_group_name_H-M   'P 1'
_cell_length_a   6.05247021
_cell_length_b   7.35150385
_cell_length_c   7.35150385
_cell_angle_alpha   120.00000000
_cell_angle_beta   90.00000000
_cell_angle_gamma   90.00000000
_symmetry_Int_Tables_number   1
_chemical_formula_structural   Pm
_chemical_formula_sum   Pm8
_cell_volume   283.27984097
_cell_formula_units_Z   8
loop_
 _symmetry_equiv_pos_site_id
 _symmetry_equiv_pos_as_xyz
  1  'x, y, z'
loop_
 _atom_site_type_symbol
 _atom_site_label
 _atom_site_symmetry_multiplicity
 _atom_site_fract_x
 _atom_site_fract_y
 _atom_site_fract_z
 _atom_site_occupancy
  Pm  Pm0  1  0.74999997  0.83322001  0.16677898  1
  Pm  Pm1  1  0.74999997  0.33355900  0.16677899  1
  Pm  Pm2  1  0.74999997  0.83322001  0.66643998  1
  Pm  Pm3  1  0.24999999  0.16678000  0.83322099  1
  Pm  Pm4  1  0.24999999  0.66644101  0.83322098  1
  Pm  Pm5  1  0.24999999  0.16678000  0.33356000  1
  Pm  Pm6  1  0.24999999  0.66666667  0.33333332  1
  Pm  Pm7  1  0.74999997  0.33333334  0.66666666  1
