# generated using pymatgen
data_PrTl3
_symmetry_space_group_name_H-M   'P 1'
_cell_length_a   5.20905685
_cell_length_b   7.14221621
_cell_length_c   7.14221621
_cell_angle_alpha   120.00000000
_cell_angle_beta   90.00000000
_cell_angle_gamma   90.00000000
_symmetry_Int_Tables_number   1
_chemical_formula_structural   PrTl3
_chemical_formula_sum   'Pr2 Tl6'
_cell_volume   230.12071507
_cell_formula_units_Z   2
loop_
 _symmetry_equiv_pos_site_id
 _symmetry_equiv_pos_as_xyz
  1  'x, y, z'
loop_
 _atom_site_type_symbol
 _atom_site_label
 _atom_site_symmetry_multiplicity
 _atom_site_fract_x
 _atom_site_fract_y
 _atom_site_fract_z
 _atom_site_occupancy
  Pr  Pr0  1  0.25000001  0.66666666  0.33333337  1
  Pr  Pr1  1  0.75000002  0.33333333  0.66666670  1
  Tl  Tl2  1  0.75000002  0.84232899  0.15767104  1
  Tl  Tl3  1  0.75000002  0.31534200  0.15767102  1
  Tl  Tl4  1  0.75000002  0.84232899  0.68465806  1
  Tl  Tl5  1  0.25000001  0.15767100  0.84232903  1
  Tl  Tl6  1  0.25000001  0.68465799  0.84232906  1
  Tl  Tl7  1  0.25000001  0.15767100  0.31534202  1
