# generated using pymatgen
data_NaGeO3
_symmetry_space_group_name_H-M   'P 1'
_cell_length_a   5.72381163
_cell_length_b   7.13633537
_cell_length_c   7.13633537
_cell_angle_alpha   85.06236267
_cell_angle_beta   78.81996918
_cell_angle_gamma   78.81996918
_symmetry_Int_Tables_number   1
_chemical_formula_structural   NaGeO3
_chemical_formula_sum   'Na4 Ge4 O12'
_cell_volume   280.18338707
_cell_formula_units_Z   4
loop_
 _symmetry_equiv_pos_site_id
 _symmetry_equiv_pos_as_xyz
  1  'x, y, z'
loop_
 _atom_site_type_symbol
 _atom_site_label
 _atom_site_symmetry_multiplicity
 _atom_site_fract_x
 _atom_site_fract_y
 _atom_site_fract_z
 _atom_site_occupancy
  Na  Na0  1  0.24999997  0.31177601  0.68822402  1
  Na  Na1  1  0.74999993  0.68822403  0.31177601  1
  Na  Na2  1  0.24999992  0.89597903  0.10402103  1
  Na  Na3  1  0.74999997  0.10402100  0.89597900  1
  Ge  Ge4  1  0.70808493  0.62645202  0.80451202  1
  Ge  Ge5  1  0.29191496  0.37354801  0.19548801  1
  Ge  Ge6  1  0.79191496  0.19548801  0.37354798  1
  Ge  Ge7  1  0.20808493  0.80451203  0.62645205  1
  O  O8  1  0.02387097  0.33457901  0.36581603  1
  O  O9  1  0.47612894  0.63418402  0.66542103  1
  O  O10  1  0.97612892  0.66542102  0.63418401  1
  O  O11  1  0.52387096  0.36581601  0.33457900  1
  O  O12  1  0.71494497  0.09474500  0.60245899  1
  O  O13  1  0.78505495  0.39754101  0.90525501  1
  O  O14  1  0.28505492  0.90525503  0.39754104  1
  O  O15  1  0.21494495  0.60245902  0.09474502  1
  O  O16  1  0.37100398  0.18152901  0.03817599  1
  O  O17  1  0.12899592  0.96182404  0.81847106  1
  O  O18  1  0.62899592  0.81847103  0.96182404  1
  O  O19  1  0.87100397  0.03817600  0.18152897  1
