# generated using pymatgen
data_V2GeO6
_symmetry_space_group_name_H-M   'P 1'
_cell_length_a   5.17340183
_cell_length_b   6.89412308
_cell_length_c   7.44329214
_cell_angle_alpha   89.99959564
_cell_angle_beta   90.71552277
_cell_angle_gamma   89.99909973
_symmetry_Int_Tables_number   1
_chemical_formula_structural   V2GeO6
_chemical_formula_sum   'V4 Ge2 O12'
_cell_volume   265.45227001
_cell_formula_units_Z   2
loop_
 _symmetry_equiv_pos_site_id
 _symmetry_equiv_pos_as_xyz
  1  'x, y, z'
loop_
 _atom_site_type_symbol
 _atom_site_label
 _atom_site_symmetry_multiplicity
 _atom_site_fract_x
 _atom_site_fract_y
 _atom_site_fract_z
 _atom_site_occupancy
  V  V0  1  0.49999898  0.49999999  0.49999998  1
  V  V1  1  0.00000100  0.00000100  0.00000100  1
  V  V2  1  0.51236798  0.17478400  0.19819200  1
  V  V3  1  0.98762596  0.67477999  0.30181799  1
  Ge  Ge4  1  0.01237400  0.32522000  0.69818198  1
  Ge  Ge5  1  0.48763197  0.82521599  0.80180796  1
  O  O6  1  0.55059197  0.58383299  0.74613598  1
  O  O7  1  0.94940296  0.08382300  0.75386502  1
  O  O8  1  0.44940798  0.41616700  0.25386399  1
  O  O9  1  0.05059699  0.91617699  0.24613495  1
  O  O10  1  0.20237698  0.78026699  0.91638396  1
  O  O11  1  0.29761099  0.28027300  0.58361999  1
  O  O12  1  0.19698098  0.66313299  0.48983496  1
  O  O13  1  0.30301099  0.16313400  0.01015600  1
  O  O14  1  0.80301897  0.33686700  0.51016500  1
  O  O15  1  0.69698896  0.83686699  0.98984397  1
  O  O16  1  0.70238897  0.71972699  0.41637898  1
  O  O17  1  0.79762197  0.21973300  0.08361601  1
