# generated using pymatgen
data_NbSiNi
_symmetry_space_group_name_H-M   'P 1'
_cell_length_a   3.82585406
_cell_length_b   5.99812508
_cell_length_c   7.25677490
_cell_angle_alpha   90.00000000
_cell_angle_beta   90.00000000
_cell_angle_gamma   90.00000000
_symmetry_Int_Tables_number   1
_chemical_formula_structural   NbSiNi
_chemical_formula_sum   'Nb4 Si4 Ni4'
_cell_volume   166.52811628
_cell_formula_units_Z   4
loop_
 _symmetry_equiv_pos_site_id
 _symmetry_equiv_pos_as_xyz
  1  'x, y, z'
loop_
 _atom_site_type_symbol
 _atom_site_label
 _atom_site_symmetry_multiplicity
 _atom_site_fract_x
 _atom_site_fract_y
 _atom_site_fract_z
 _atom_site_occupancy
  Nb  Nb0  1  0.74999999  0.96959699  0.18119100  1
  Nb  Nb1  1  0.25000000  0.53040299  0.68119101  1
  Nb  Nb2  1  0.74999999  0.46959699  0.31880900  1
  Nb  Nb3  1  0.25000000  0.03040300  0.81880901  1
  Si  Si4  1  0.25000000  0.76407799  0.37774001  1
  Si  Si5  1  0.25000000  0.26407800  0.12226000  1
  Si  Si6  1  0.74999999  0.23592200  0.62226001  1
  Si  Si7  1  0.74999999  0.73592199  0.87774001  1
  Ni  Ni8  1  0.25000000  0.16174800  0.43609001  1
  Ni  Ni9  1  0.25000000  0.66174799  0.06391000  1
  Ni  Ni10  1  0.74999999  0.33825200  0.93609001  1
  Ni  Ni11  1  0.74999999  0.83825199  0.56391001  1
