# generated using pymatgen
data_CsTl(CrS3)2
_symmetry_space_group_name_H-M   'P 1'
_cell_length_a   5.90219402
_cell_length_b   7.03568983
_cell_length_c   7.03568983
_cell_angle_alpha   119.36626434
_cell_angle_beta   90.00000000
_cell_angle_gamma   90.00000000
_symmetry_Int_Tables_number   1
_chemical_formula_structural   CsTl(CrS3)2
_chemical_formula_sum   'Cs1 Tl1 Cr2 S6'
_cell_volume   254.62180422
_cell_formula_units_Z   1
loop_
 _symmetry_equiv_pos_site_id
 _symmetry_equiv_pos_as_xyz
  1  'x, y, z'
loop_
 _atom_site_type_symbol
 _atom_site_label
 _atom_site_symmetry_multiplicity
 _atom_site_fract_x
 _atom_site_fract_y
 _atom_site_fract_z
 _atom_site_occupancy
  Tl  Tl0  1  0.24504900  0.33611599  0.66388399  1
  Cs  Cs1  1  0.74504900  0.66388399  0.33611599  1
  Cr  Cr2  1  0.98676300  0.02583300  0.97416699  1
  Cr  Cr3  1  0.48676300  0.97416699  0.02583298  1
  S  S4  1  0.75691900  0.16344500  0.32996699  1
  S  S5  1  0.75691900  0.67003299  0.83655498  1
  S  S6  1  0.72538200  0.17071700  0.82928299  1
  S  S7  1  0.25691900  0.32996699  0.16344499  1
  S  S8  1  0.25691900  0.83655499  0.67003298  1
  S  S9  1  0.22538200  0.82928299  0.17071698  1
