# generated using pymatgen
data_CsLiI2
_symmetry_space_group_name_H-M   'P 1'
_cell_length_a   4.88608980
_cell_length_b   10.55066013
_cell_length_c   13.57360077
_cell_angle_alpha   90.00000000
_cell_angle_beta   90.00000000
_cell_angle_gamma   103.38856506
_symmetry_Int_Tables_number   1
_chemical_formula_structural   CsLiI2
_chemical_formula_sum   'Cs4 Li4 I8'
_cell_volume   680.72167963
_cell_formula_units_Z   4
loop_
 _symmetry_equiv_pos_site_id
 _symmetry_equiv_pos_as_xyz
  1  'x, y, z'
loop_
 _atom_site_type_symbol
 _atom_site_label
 _atom_site_symmetry_multiplicity
 _atom_site_fract_x
 _atom_site_fract_y
 _atom_site_fract_z
 _atom_site_occupancy
  Cs  Cs0  1  0.65709602  0.31419199  0.01584200  1
  Cs  Cs1  1  0.34290399  0.68580797  0.51584201  1
  Cs  Cs2  1  0.48947099  0.97894196  0.23697100  1
  Cs  Cs3  1  0.51052902  0.02105800  0.73697101  1
  Li  Li4  1  0.13199000  0.26397999  0.45267601  1
  Li  Li5  1  0.86801001  0.73601997  0.95267602  1
  Li  Li6  1  0.71906802  0.43813598  0.71571101  1
  Li  Li7  1  0.28093200  0.56186397  0.21571100  1
  I  I8  1  0.68878002  0.37755998  0.51713901  1
  I  I9  1  0.31121999  0.62243997  0.01713900  1
  I  I10  1  0.85344001  0.70687997  0.74497701  1
  I  I11  1  0.14656000  0.29311999  0.24497700  1
  I  I12  1  0.00011500  0.00023000  0.49486901  1
  I  I13  1  0.99988501  0.99976995  0.99486902  1
  I  I14  1  0.16258900  0.32517799  0.78012401  1
  I  I15  1  0.83741101  0.67482197  0.28012400  1
