# generated using pymatgen
data_LaCo3(CuO3)4
_symmetry_space_group_name_H-M   'P 1'
_cell_length_a   6.55180454
_cell_length_b   6.55180454
_cell_length_c   6.55180454
_cell_angle_alpha   109.47122192
_cell_angle_beta   109.47122192
_cell_angle_gamma   109.47122192
_symmetry_Int_Tables_number   1
_chemical_formula_structural   LaCo3(CuO3)4
_chemical_formula_sum   'La1 Co3 Cu4 O12'
_cell_volume   216.50148868
_cell_formula_units_Z   1
loop_
 _symmetry_equiv_pos_site_id
 _symmetry_equiv_pos_as_xyz
  1  'x, y, z'
loop_
 _atom_site_type_symbol
 _atom_site_label
 _atom_site_symmetry_multiplicity
 _atom_site_fract_x
 _atom_site_fract_y
 _atom_site_fract_z
 _atom_site_occupancy
  La  La0  1  0.00000000  0.00000000  0.00000000  1
  Co  Co1  1  0.00000003  0.50000000  0.50000001  1
  Co  Co2  1  0.00000000  0.00000000  0.49999998  1
  Co  Co3  1  0.50000002  0.50000000  0.50000002  1
  Cu  Cu4  1  0.49999999  0.00000000  0.50000000  1
  Cu  Cu5  1  0.00000003  0.50000000  0.00000003  1
  Cu  Cu6  1  0.49999999  0.00000000  0.99999998  1
  Cu  Cu7  1  0.50000002  0.50000000  1.00000001  1
  O  O8  1  0.17520605  0.86956101  0.69435503  1
  O  O9  1  0.82479399  0.13043900  0.30564502  1
  O  O10  1  0.17520603  0.48085100  0.30564502  1
  O  O11  1  0.82479401  0.51914900  0.69435503  1
  O  O12  1  0.86956102  0.69435501  0.17520605  1
  O  O13  1  0.13043902  0.30564500  0.82479399  1
  O  O14  1  0.51914903  0.69435501  0.82479403  1
  O  O15  1  0.48085101  0.30564500  0.17520602  1
  O  O16  1  0.30564505  0.82479401  0.13043905  1
  O  O17  1  0.69435500  0.17520600  0.86956100  1
  O  O18  1  0.30564500  0.17520600  0.48085100  1
  O  O19  1  0.69435504  0.82479401  0.51914905  1
