# generated using pymatgen
data_Rb2ZrO4
_symmetry_space_group_name_H-M   'P 1'
_cell_length_a   4.36708403
_cell_length_b   4.36708403
_cell_length_c   7.80795956
_cell_angle_alpha   106.23966980
_cell_angle_beta   106.23966980
_cell_angle_gamma   90.00000000
_symmetry_Int_Tables_number   1
_chemical_formula_structural   Rb2ZrO4
_chemical_formula_sum   'Rb2 Zr1 O4'
_cell_volume   136.76819368
_cell_formula_units_Z   1
loop_
 _symmetry_equiv_pos_site_id
 _symmetry_equiv_pos_as_xyz
  1  'x, y, z'
loop_
 _atom_site_type_symbol
 _atom_site_label
 _atom_site_symmetry_multiplicity
 _atom_site_fract_x
 _atom_site_fract_y
 _atom_site_fract_z
 _atom_site_occupancy
  Rb  Rb0  1  0.14491300  0.14491300  0.28982600  1
  Rb  Rb1  1  0.85508700  0.85508700  0.71017399  1
  Zr  Zr2  1  0.50000000  0.50000000  0.00000000  1
  O  O3  1  0.36440600  0.36440600  0.72881199  1
  O  O4  1  0.63559400  0.63559400  0.27118800  1
  O  O5  1  0.00000000  0.50000000  0.00000000  1
  O  O6  1  0.50000000  0.00000000  0.00000000  1
