# generated using pymatgen
data_BaSr(CN)2
_symmetry_space_group_name_H-M   'P 1'
_cell_length_a   4.05954456
_cell_length_b   4.05954456
_cell_length_c   9.21831608
_cell_angle_alpha   77.27985382
_cell_angle_beta   77.27985382
_cell_angle_gamma   59.99999237
_symmetry_Int_Tables_number   1
_chemical_formula_structural   BaSr(CN)2
_chemical_formula_sum   'Ba1 Sr1 C2 N2'
_cell_volume   127.24045125
_cell_formula_units_Z   1
loop_
 _symmetry_equiv_pos_site_id
 _symmetry_equiv_pos_as_xyz
  1  'x, y, z'
loop_
 _atom_site_type_symbol
 _atom_site_label
 _atom_site_symmetry_multiplicity
 _atom_site_fract_x
 _atom_site_fract_y
 _atom_site_fract_z
 _atom_site_occupancy
  Ba  Ba0  1  0.75183098  0.75183098  0.74450700  1
  Sr  Sr1  1  0.24816899  0.24816899  0.25549300  1
  C  C2  1  0.49999998  0.49999999  0.50000000  1
  C  C3  1  0.00000000  0.00000000  0.00000000  1
  N  N4  1  0.55063998  0.55063999  0.34808001  1
  N  N5  1  0.44935999  0.44935999  0.65191999  1
