# generated using pymatgen
data_La2Co(SiIr)4
_symmetry_space_group_name_H-M   'P 1'
_cell_length_a   5.52331400
_cell_length_b   5.64608240
_cell_length_c   6.28241253
_cell_angle_alpha   77.58367920
_cell_angle_beta   63.92256927
_cell_angle_gamma   60.71671677
_symmetry_Int_Tables_number   1
_chemical_formula_structural   La2Co(SiIr)4
_chemical_formula_sum   'La2 Co1 Si4 Ir4'
_cell_volume   153.48604710
_cell_formula_units_Z   1
loop_
 _symmetry_equiv_pos_site_id
 _symmetry_equiv_pos_as_xyz
  1  'x, y, z'
loop_
 _atom_site_type_symbol
 _atom_site_label
 _atom_site_symmetry_multiplicity
 _atom_site_fract_x
 _atom_site_fract_y
 _atom_site_fract_z
 _atom_site_occupancy
  La  La0  1  0.85700599  0.00000000  0.28598803  1
  La  La1  1  0.14299400  0.00000000  0.71401202  1
  Co  Co2  1  0.79166799  0.67720001  0.73946404  1
  Si  Si3  1  0.20833200  0.32280000  0.26053601  1
  Si  Si4  1  0.53113199  0.67720001  0.26053603  1
  Si  Si5  1  0.46886799  0.32280000  0.73946403  1
  Ir  Ir6  1  0.49999999  0.00000000  0.00000001  1
  Ir  Ir7  1  -0.00000000  0.50000001  0.00000000  1
  Ir  Ir8  1  0.49999999  0.50000001  0.00000002  1
  Si  Si9  1  0.25000000  0.50000001  0.50000002  1
  Ir  Ir10  1  0.74999999  0.50000001  0.50000003  1
