# generated using pymatgen
data_Na3ZrO4
_symmetry_space_group_name_H-M   'P 1'
_cell_length_a   5.75844383
_cell_length_b   5.95982885
_cell_length_c   6.80317688
_cell_angle_alpha   90.00000000
_cell_angle_beta   90.00000000
_cell_angle_gamma   109.98985291
_symmetry_Int_Tables_number   1
_chemical_formula_structural   Na3ZrO4
_chemical_formula_sum   'Na6 Zr2 O8'
_cell_volume   219.41407794
_cell_formula_units_Z   2
loop_
 _symmetry_equiv_pos_site_id
 _symmetry_equiv_pos_as_xyz
  1  'x, y, z'
loop_
 _atom_site_type_symbol
 _atom_site_label
 _atom_site_symmetry_multiplicity
 _atom_site_fract_x
 _atom_site_fract_y
 _atom_site_fract_z
 _atom_site_occupancy
  Na  Na0  1  0.75000002  0.00000000  0.38242701  1
  Na  Na1  1  0.24999997  0.49999999  0.39476701  1
  Na  Na2  1  0.74999999  0.49999999  0.12878200  1
  Na  Na3  1  0.24999997  0.49999999  0.87121802  1
  Na  Na4  1  0.24999994  0.99999998  0.61757301  1
  Na  Na5  1  0.74999999  0.49999999  0.60523301  1
  Zr  Zr6  1  0.74999996  0.99999998  0.86406802  1
  Zr  Zr7  1  0.24999994  0.99999998  0.13593200  1
  O  O8  1  0.96768601  0.23687500  0.65432601  1
  O  O9  1  0.53231396  0.76312499  0.65432601  1
  O  O10  1  0.03231395  0.76312499  0.34567401  1
  O  O11  1  0.46768600  0.23687500  0.34567401  1
  O  O12  1  0.50014100  0.20866700  0.89859302  1
  O  O13  1  0.99985898  0.79133298  0.89859302  1
  O  O14  1  0.00014099  0.20866700  0.10140700  1
  O  O15  1  0.49985896  0.79133298  0.10140700  1
