# generated using pymatgen
data_La3Re3C10
_symmetry_space_group_name_H-M   'P 1'
_cell_length_a   5.38502884
_cell_length_b   5.75634813
_cell_length_c   6.43048716
_cell_angle_alpha   90.00000000
_cell_angle_beta   90.00000000
_cell_angle_gamma   90.00000000
_symmetry_Int_Tables_number   1
_chemical_formula_structural   La3Re3C10
_chemical_formula_sum   'La3 Re3 C10'
_cell_volume   199.33288844
_cell_formula_units_Z   1
loop_
 _symmetry_equiv_pos_site_id
 _symmetry_equiv_pos_as_xyz
  1  'x, y, z'
loop_
 _atom_site_type_symbol
 _atom_site_label
 _atom_site_symmetry_multiplicity
 _atom_site_fract_x
 _atom_site_fract_y
 _atom_site_fract_z
 _atom_site_occupancy
  La  La0  1  0.75000002  0.50050999  0.16270000  1
  La  La1  1  0.75000002  0.00051000  0.33729999  1
  La  La2  1  0.25000001  0.49948999  0.83729998  1
  Re  Re3  1  0.25000001  0.99948998  0.66269998  1
  C  C4  1  0.91329203  0.12931200  0.96308998  1
  Re  Re5  1  0.58670802  0.62931199  0.53690999  1
  Re  Re6  1  0.41329201  0.87068798  0.03691000  1
  C  C7  1  0.08670800  0.37068799  0.46308999  1
  C  C8  1  0.08670800  0.87068798  0.03691000  1
  C  C9  1  0.41329201  0.37068799  0.46308999  1
  C  C10  1  0.58670802  0.12931200  0.96308998  1
  C  C11  1  0.91329203  0.62931199  0.53690999  1
  C  C12  1  0.75000002  0.30739599  0.68412698  1
  C  C13  1  0.75000002  0.80739598  0.81587298  1
  C  C14  1  0.25000001  0.69260398  0.31587299  1
  C  C15  1  0.25000001  0.19260400  0.18412700  1
