# generated using pymatgen
data_Mg5Pt11
_symmetry_space_group_name_H-M   'P 1'
_cell_length_a   5.67771101
_cell_length_b   5.67771101
_cell_length_c   8.16627979
_cell_angle_alpha   90.00000000
_cell_angle_beta   90.00000000
_cell_angle_gamma   90.00000000
_symmetry_Int_Tables_number   1
_chemical_formula_structural   Mg5Pt11
_chemical_formula_sum   'Mg5 Pt11'
_cell_volume   263.25148080
_cell_formula_units_Z   1
loop_
 _symmetry_equiv_pos_site_id
 _symmetry_equiv_pos_as_xyz
  1  'x, y, z'
loop_
 _atom_site_type_symbol
 _atom_site_label
 _atom_site_symmetry_multiplicity
 _atom_site_fract_x
 _atom_site_fract_y
 _atom_site_fract_z
 _atom_site_occupancy
  Mg  Mg0  1  0.50000000  0.50000000  0.00000000  1
  Mg  Mg1  1  0.00000000  0.00000000  0.00000000  1
  Mg  Mg2  1  0.00000000  0.50000000  0.50000001  1
  Mg  Mg3  1  0.50000000  0.00000000  0.50000001  1
  Mg  Mg4  1  0.00000000  0.00000000  0.50000001  1
  Pt  Pt5  1  0.00000000  0.50000000  0.00000000  1
  Pt  Pt6  1  0.50000000  0.00000000  0.00000000  1
  Pt  Pt7  1  0.50000000  0.50000000  0.50000001  1
  Pt  Pt8  1  0.24940600  0.24940600  0.24995201  1
  Pt  Pt9  1  0.75059400  0.75059400  0.75004802  1
  Pt  Pt10  1  0.75059400  0.75059400  0.24995201  1
  Pt  Pt11  1  0.75059400  0.24940600  0.24995201  1
  Pt  Pt12  1  0.75059400  0.24940600  0.75004802  1
  Pt  Pt13  1  0.24940600  0.24940600  0.75004802  1
  Pt  Pt14  1  0.24940600  0.75059400  0.75004802  1
  Pt  Pt15  1  0.24940600  0.75059400  0.24995201  1
