# generated using pymatgen
data_SrGeAu3
_symmetry_space_group_name_H-M   'P 1'
_cell_length_a   4.87124777
_cell_length_b   4.87124777
_cell_length_c   6.51579475
_cell_angle_alpha   111.95035553
_cell_angle_beta   111.95035553
_cell_angle_gamma   90.00000000
_symmetry_Int_Tables_number   1
_chemical_formula_structural   SrGeAu3
_chemical_formula_sum   'Sr1 Ge1 Au3'
_cell_volume   131.24345003
_cell_formula_units_Z   1
loop_
 _symmetry_equiv_pos_site_id
 _symmetry_equiv_pos_as_xyz
  1  'x, y, z'
loop_
 _atom_site_type_symbol
 _atom_site_label
 _atom_site_symmetry_multiplicity
 _atom_site_fract_x
 _atom_site_fract_y
 _atom_site_fract_z
 _atom_site_occupancy
  Sr  Sr0  1  0.00112900  0.00112900  0.00225800  1
  Ge  Ge1  1  0.66001606  0.66001604  0.32003205  1
  Au  Au2  1  0.24965404  0.74965405  0.49930804  1
  Au  Au3  1  0.42784604  0.42784603  0.85569204  1
  Au  Au4  1  0.74965405  0.24965402  0.49930804  1
