# generated using pymatgen
data_Na2V2O5
_symmetry_space_group_name_H-M   'P 1'
_cell_length_a   3.80697203
_cell_length_b   6.06862354
_cell_length_c   6.73078775
_cell_angle_alpha   99.02326965
_cell_angle_beta   90.00000000
_cell_angle_gamma   108.27995300
_symmetry_Int_Tables_number   1
_chemical_formula_structural   Na2V2O5
_chemical_formula_sum   'Na2 V2 O5'
_cell_volume   145.62652644
_cell_formula_units_Z   1
loop_
 _symmetry_equiv_pos_site_id
 _symmetry_equiv_pos_as_xyz
  1  'x, y, z'
loop_
 _atom_site_type_symbol
 _atom_site_label
 _atom_site_symmetry_multiplicity
 _atom_site_fract_x
 _atom_site_fract_y
 _atom_site_fract_z
 _atom_site_occupancy
  Na  Na0  1  0.59870399  0.19740800  0.35189400  1
  Na  Na1  1  0.40129598  0.80259198  0.64810600  1
  V  V2  1  0.85262098  0.70524198  0.09182701  1
  V  V3  1  0.14737899  0.29475799  0.90817298  1
  O  O4  1  0.67790299  0.35580599  0.98916098  1
  O  O5  1  0.32209698  0.64419398  0.01083901  1
  O  O6  1  0.87433797  0.74867598  0.35261301  1
  O  O7  1  0.12566199  0.25132399  0.64738699  1
  O  O8  1  0.00000000  0.00000000  0.00000000  1
