# generated using pymatgen
data_Nd2In7
_symmetry_space_group_name_H-M   'P 1'
_cell_length_a   4.72709417
_cell_length_b   7.63803196
_cell_length_c   7.63803148
_cell_angle_alpha   120.00000000
_cell_angle_beta   90.00000000
_cell_angle_gamma   90.00000000
_symmetry_Int_Tables_number   1
_chemical_formula_structural   Nd2In7
_chemical_formula_sum   'Nd2 In7'
_cell_volume   238.82940765
_cell_formula_units_Z   1
loop_
 _symmetry_equiv_pos_site_id
 _symmetry_equiv_pos_as_xyz
  1  'x, y, z'
loop_
 _atom_site_type_symbol
 _atom_site_label
 _atom_site_symmetry_multiplicity
 _atom_site_fract_x
 _atom_site_fract_y
 _atom_site_fract_z
 _atom_site_occupancy
  Nd  Nd0  1  -0.00000000  0.42933899  -0.00000002  1
  Nd  Nd1  1  0.99999996  0.57066099  0.57066096  1
  In  In2  1  -0.00000000  0.99999998  0.42933894  1
  In  In3  1  0.49999998  0.75694198  -0.00000004  1
  In  In4  1  0.49999998  0.24305799  0.24305798  1
  In  In5  1  0.49999998  0.99999998  0.75694193  1
  In  In6  1  0.49999998  0.33333333  0.66666664  1
  In  In7  1  0.49999998  0.66666665  0.33333329  1
  In  In8  1  0.00000000  0.00000000  0.00000000  1
