# generated using pymatgen
data_Tm4GeAs3
_symmetry_space_group_name_H-M   'P 1'
_cell_length_a   4.21624804
_cell_length_b   4.21624708
_cell_length_c   12.06115055
_cell_angle_alpha   90.00000000
_cell_angle_beta   90.00000000
_cell_angle_gamma   120.00000763
_symmetry_Int_Tables_number   1
_chemical_formula_structural   Tm4GeAs3
_chemical_formula_sum   'Tm4 Ge1 As3'
_cell_volume   185.68274262
_cell_formula_units_Z   1
loop_
 _symmetry_equiv_pos_site_id
 _symmetry_equiv_pos_as_xyz
  1  'x, y, z'
loop_
 _atom_site_type_symbol
 _atom_site_label
 _atom_site_symmetry_multiplicity
 _atom_site_fract_x
 _atom_site_fract_y
 _atom_site_fract_z
 _atom_site_occupancy
  Tm  Tm0  1  0.00000000  0.00000000  0.50000002  1
  Tm  Tm1  1  0.00000000  0.00000000  0.74474403  1
  Tm  Tm2  1  0.00000000  0.00000000  0.25525601  1
  Tm  Tm3  1  0.00000000  0.00000000  0.00000000  1
  Ge  Ge4  1  0.66666667  0.33333335  0.12264800  1
  As  As5  1  0.66666667  0.33333335  0.62590202  1
  As  As6  1  0.33333335  0.66666670  0.87735203  1
  As  As7  1  0.33333335  0.66666670  0.37409801  1
