# generated using pymatgen
data_Na3TaO6
_symmetry_space_group_name_H-M   'P 1'
_cell_length_a   5.81650305
_cell_length_b   5.81650305
_cell_length_c   8.46269894
_cell_angle_alpha   90.00000000
_cell_angle_beta   90.00000000
_cell_angle_gamma   90.00000000
_symmetry_Int_Tables_number   1
_chemical_formula_structural   Na3TaO6
_chemical_formula_sum   'Na6 Ta2 O12'
_cell_volume   286.30755683
_cell_formula_units_Z   2
loop_
 _symmetry_equiv_pos_site_id
 _symmetry_equiv_pos_as_xyz
  1  'x, y, z'
loop_
 _atom_site_type_symbol
 _atom_site_label
 _atom_site_symmetry_multiplicity
 _atom_site_fract_x
 _atom_site_fract_y
 _atom_site_fract_z
 _atom_site_occupancy
  Na  Na0  1  -0.00000000  0.50000001  0.25000000  1
  Na  Na1  1  0.50000001  0.00000000  0.75000000  1
  Na  Na2  1  0.00000000  0.00000000  0.00000000  1
  Na  Na3  1  0.50000001  0.50000001  0.50000000  1
  Na  Na4  1  0.50000001  0.00000000  0.25000000  1
  Na  Na5  1  -0.00000000  0.50000001  0.75000000  1
  Ta  Ta6  1  0.00000000  0.00000000  0.50000000  1
  Ta  Ta7  1  0.50000001  0.50000001  -0.00000000  1
  O  O8  1  0.00000000  0.00000000  0.26371635  1
  O  O9  1  0.50000001  0.50000001  0.23628365  1
  O  O10  1  0.00000000  0.00000000  0.73628365  1
  O  O11  1  0.50000001  0.50000001  0.76371635  1
  O  O12  1  0.34415160  0.19236841  0.01307812  1
  O  O13  1  0.65584843  0.80763162  0.01307812  1
  O  O14  1  0.80763162  0.34415160  0.98692189  1
  O  O15  1  0.19236841  0.65584843  0.98692189  1
  O  O16  1  0.84415161  0.30763161  0.51307812  1
  O  O17  1  0.15584841  0.69236842  0.51307812  1
  O  O18  1  0.30763161  0.15584841  0.48692188  1
  O  O19  1  0.69236842  0.84415161  0.48692188  1
