# generated using pymatgen
data_YAl13Pd
_symmetry_space_group_name_H-M   'P 1'
_cell_length_a   6.43949080
_cell_length_b   6.43949080
_cell_length_c   6.43949080
_cell_angle_alpha   90.00000000
_cell_angle_beta   90.00000000
_cell_angle_gamma   90.00000000
_symmetry_Int_Tables_number   1
_chemical_formula_structural   YAl13Pd
_chemical_formula_sum   'Y1 Al13 Pd1'
_cell_volume   267.02663333
_cell_formula_units_Z   1
loop_
 _symmetry_equiv_pos_site_id
 _symmetry_equiv_pos_as_xyz
  1  'x, y, z'
loop_
 _atom_site_type_symbol
 _atom_site_label
 _atom_site_symmetry_multiplicity
 _atom_site_fract_x
 _atom_site_fract_y
 _atom_site_fract_z
 _atom_site_occupancy
  Y  Y0  1  0.50000002  0.50000002  0.00000000  1
  Al  Al1  1  0.50000002  0.00000000  0.50000002  1
  Al  Al2  1  0.00000000  0.50000002  0.50000002  1
  Al  Al3  1  0.50000002  0.50000002  0.50000002  1
  Al  Al4  1  0.21073601  0.21073601  0.78926403  1
  Al  Al5  1  0.21073601  0.78926403  0.21073601  1
  Al  Al6  1  0.78926403  0.21073601  0.21073601  1
  Al  Al7  1  0.78926403  0.78926403  0.78926403  1
  Al  Al8  1  0.78926403  0.78926403  0.21073601  1
  Al  Al9  1  0.78926403  0.21073601  0.78926403  1
  Al  Al10  1  0.21073601  0.78926403  0.78926403  1
  Al  Al11  1  0.21073601  0.21073601  0.21073601  1
  Pd  Pd12  1  0.00000000  0.00000000  0.50000002  1
  Al  Al13  1  0.00000000  0.50000002  0.00000000  1
  Al  Al14  1  0.50000002  0.00000000  -0.00000000  1
