# generated using pymatgen
data_TiInCo2
_symmetry_space_group_name_H-M   'P 1'
_cell_length_a   4.25194836
_cell_length_b   4.25185442
_cell_length_c   4.25313187
_cell_angle_alpha   60.03263855
_cell_angle_beta   60.02236557
_cell_angle_gamma   60.03322220
_symmetry_Int_Tables_number   1
_chemical_formula_structural   TiInCo2
_chemical_formula_sum   'Ti1 In1 Co2'
_cell_volume   54.40635513
_cell_formula_units_Z   1
loop_
 _symmetry_equiv_pos_site_id
 _symmetry_equiv_pos_as_xyz
  1  'x, y, z'
loop_
 _atom_site_type_symbol
 _atom_site_label
 _atom_site_symmetry_multiplicity
 _atom_site_fract_x
 _atom_site_fract_y
 _atom_site_fract_z
 _atom_site_occupancy
  Ti  Ti0  1  0.24993001  0.25001800  0.25004199  1
  In  In1  1  0.75006103  0.74996401  0.74999297  1
  Co  Co2  1  0.00002400  0.00002700  0.00007400  1
  Co  Co3  1  0.49998502  0.49998900  0.49988998  1
