# generated using pymatgen
data_ZrGe2
_symmetry_space_group_name_H-M   'P 1'
_cell_length_a   5.72502184
_cell_length_b   5.73621321
_cell_length_c   10.07323456
_cell_angle_alpha   81.84753418
_cell_angle_beta   73.49076080
_cell_angle_gamma   60.06451797
_symmetry_Int_Tables_number   1
_chemical_formula_structural   ZrGe2
_chemical_formula_sum   'Zr4 Ge8'
_cell_volume   274.85282439
_cell_formula_units_Z   4
loop_
 _symmetry_equiv_pos_site_id
 _symmetry_equiv_pos_as_xyz
  1  'x, y, z'
loop_
 _atom_site_type_symbol
 _atom_site_label
 _atom_site_symmetry_multiplicity
 _atom_site_fract_x
 _atom_site_fract_y
 _atom_site_fract_z
 _atom_site_occupancy
  Zr  Zr0  1  0.12302500  0.50000002  0.75395005  1
  Zr  Zr1  1  0.37697500  0.50000002  0.24605003  1
  Zr  Zr2  1  0.62697501  0.00000000  0.74605004  1
  Zr  Zr3  1  0.37302501  0.00000000  0.25395002  1
  Ge  Ge4  1  0.08118799  0.83762403  0.50000005  1
  Ge  Ge5  1  0.41881201  0.16237601  0.50000003  1
  Ge  Ge6  1  0.66881201  0.66237602  0.00000003  1
  Ge  Ge7  1  0.33118800  0.33762401  0.00000001  1
  Ge  Ge8  1  0.83283201  0.50000002  0.33433604  1
  Ge  Ge9  1  0.66716801  0.50000002  0.66566405  1
  Ge  Ge10  1  0.91716802  0.00000000  0.16566402  1
  Ge  Ge11  1  0.08283199  1.00000003  0.83433607  1
