# generated using pymatgen
data_SmGa2
_symmetry_space_group_name_H-M   'P 1'
_cell_length_a   4.56885386
_cell_length_b   5.74694586
_cell_length_c   6.02783394
_cell_angle_alpha   81.31529999
_cell_angle_beta   67.72949982
_cell_angle_gamma   66.57784271
_symmetry_Int_Tables_number   1
_chemical_formula_structural   SmGa2
_chemical_formula_sum   'Sm2 Ga4'
_cell_volume   134.39753563
_cell_formula_units_Z   2
loop_
 _symmetry_equiv_pos_site_id
 _symmetry_equiv_pos_as_xyz
  1  'x, y, z'
loop_
 _atom_site_type_symbol
 _atom_site_label
 _atom_site_symmetry_multiplicity
 _atom_site_fract_x
 _atom_site_fract_y
 _atom_site_fract_z
 _atom_site_occupancy
  Sm  Sm0  1  0.53351502  0.22696000  0.70601000  1
  Sm  Sm1  1  0.46648504  0.77303998  0.29398999  1
  Ga  Ga2  1  0.83924703  0.21077100  0.11073500  1
  Ga  Ga3  1  0.16075303  0.78922898  0.88926499  1
  Ga  Ga4  1  0.18561902  0.35064899  0.27811300  1
  Ga  Ga5  1  0.81438105  0.64935099  0.72188700  1
