# generated using pymatgen
data_Na4LiHg2F9
_symmetry_space_group_name_H-M   'P 1'
_cell_length_a   6.69654608
_cell_length_b   6.69654608
_cell_length_c   6.69654608
_cell_angle_alpha   90.00000000
_cell_angle_beta   90.00000000
_cell_angle_gamma   90.00000000
_symmetry_Int_Tables_number   1
_chemical_formula_structural   Na4LiHg2F9
_chemical_formula_sum   'Na4 Li1 Hg2 F9'
_cell_volume   300.29810003
_cell_formula_units_Z   1
loop_
 _symmetry_equiv_pos_site_id
 _symmetry_equiv_pos_as_xyz
  1  'x, y, z'
loop_
 _atom_site_type_symbol
 _atom_site_label
 _atom_site_symmetry_multiplicity
 _atom_site_fract_x
 _atom_site_fract_y
 _atom_site_fract_z
 _atom_site_occupancy
  Li  Li0  1  0.49999999  0.49999999  0.49999999  1
  Na  Na1  1  0.00000000  0.00000000  0.00000000  1
  Na  Na2  1  0.49999999  0.00000000  0.74999999  1
  Na  Na3  1  -0.00000000  0.25000000  0.49999999  1
  Na  Na4  1  0.74999999  0.49999999  0.00000000  1
  Hg  Hg5  1  0.49999999  0.00000000  0.25000000  1
  Hg  Hg6  1  -0.00000000  0.74999999  0.49999999  1
  F  F7  1  0.25000000  0.49999999  0.00000000  1
  F  F8  1  0.74999999  0.25000000  0.74999999  1
  F  F9  1  0.25000000  0.74999999  0.25000000  1
  F  F10  1  0.74999999  0.74999999  0.25000000  1
  F  F11  1  0.25000000  0.25000000  0.74999999  1
  F  F12  1  0.25000000  0.74999999  0.74999999  1
  F  F13  1  0.74999999  0.25000000  0.25000000  1
  F  F14  1  0.25000000  0.25000000  0.25000000  1
  F  F15  1  0.74999999  0.74999999  0.74999999  1
