# generated using pymatgen
data_VFe5
_symmetry_space_group_name_H-M   'P 1'
_cell_length_a   4.56838703
_cell_length_b   4.56838703
_cell_length_c   4.58964777
_cell_angle_alpha   105.34876251
_cell_angle_beta   105.34876251
_cell_angle_gamma   117.91419220
_symmetry_Int_Tables_number   1
_chemical_formula_structural   VFe5
_chemical_formula_sum   'V1 Fe5'
_cell_volume   72.64088834
_cell_formula_units_Z   1
loop_
 _symmetry_equiv_pos_site_id
 _symmetry_equiv_pos_as_xyz
  1  'x, y, z'
loop_
 _atom_site_type_symbol
 _atom_site_label
 _atom_site_symmetry_multiplicity
 _atom_site_fract_x
 _atom_site_fract_y
 _atom_site_fract_z
 _atom_site_occupancy
  V  V0  1  0.82994407  0.32994404  0.15988808  1
  Fe  Fe1  1  0.17005610  0.67005607  0.84011211  1
  Fe  Fe2  1  0.75000013  0.75000008  1.00000015  1
  Fe  Fe3  1  0.25000004  0.25000003  1.00000007  1
  Fe  Fe4  1  0.66736114  0.83263909  0.50000014  1
  Fe  Fe5  1  0.33263903  0.16736102  0.50000005  1
