# generated using pymatgen
data_Nb3CrS6
_symmetry_space_group_name_H-M   'P 1'
_cell_length_a   5.80352211
_cell_length_b   5.80352259
_cell_length_c   12.55670738
_cell_angle_alpha   90.00000000
_cell_angle_beta   90.00000000
_cell_angle_gamma   120.00000000
_symmetry_Int_Tables_number   1
_chemical_formula_structural   Nb3CrS6
_chemical_formula_sum   'Nb6 Cr2 S12'
_cell_volume   366.26019960
_cell_formula_units_Z   2
loop_
 _symmetry_equiv_pos_site_id
 _symmetry_equiv_pos_as_xyz
  1  'x, y, z'
loop_
 _atom_site_type_symbol
 _atom_site_label
 _atom_site_symmetry_multiplicity
 _atom_site_fract_x
 _atom_site_fract_y
 _atom_site_fract_z
 _atom_site_occupancy
  Nb  Nb0  1  0.66666667  0.33333333  0.74999998  1
  Nb  Nb1  1  0.33333336  0.66666667  0.24999999  1
  Nb  Nb2  1  0.00000000  0.00000000  0.49999998  1
  Nb  Nb3  1  0.00000000  0.00000000  0.00000000  1
  Nb  Nb4  1  0.66666667  0.33333333  0.00197100  1
  Nb  Nb5  1  0.33333336  0.66666667  0.99802897  1
  Cr  Cr6  1  0.33333336  0.66666667  0.50197098  1
  Cr  Cr7  1  0.66666667  0.33333333  0.49802898  1
  S  S8  1  0.66802799  0.00220000  0.62647498  1
  S  S9  1  0.33417201  0.33197200  0.62647498  1
  S  S10  1  0.99780002  0.66582800  0.62647498  1
  S  S11  1  0.66582804  0.99780000  0.37352499  1
  S  S12  1  0.00220003  0.66802800  0.37352499  1
  S  S13  1  0.33197201  0.33417200  0.37352499  1
  S  S14  1  0.33197205  0.99780000  0.12647500  1
  S  S15  1  0.66582802  0.66802800  0.12647500  1
  S  S16  1  0.00220002  0.33417200  0.12647500  1
  S  S17  1  0.33417199  0.00220000  0.87352497  1
  S  S18  1  0.99780000  0.33197200  0.87352497  1
  S  S19  1  0.66802802  0.66582800  0.87352497  1
