# generated using pymatgen
data_Dy5In3
_symmetry_space_group_name_H-M   'P 1'
_cell_length_a   8.04871273
_cell_length_b   8.04871273
_cell_length_c   9.20095921
_cell_angle_alpha   115.93711853
_cell_angle_beta   115.93711853
_cell_angle_gamma   90.00000000
_symmetry_Int_Tables_number   1
_chemical_formula_structural   Dy5In3
_chemical_formula_sum   'Dy10 In6'
_cell_volume   468.34472599
_cell_formula_units_Z   2
loop_
 _symmetry_equiv_pos_site_id
 _symmetry_equiv_pos_as_xyz
  1  'x, y, z'
loop_
 _atom_site_type_symbol
 _atom_site_label
 _atom_site_symmetry_multiplicity
 _atom_site_fract_x
 _atom_site_fract_y
 _atom_site_fract_z
 _atom_site_occupancy
  Dy  Dy0  1  0.50000003  0.50000000  0.00000000  1
  Dy  Dy1  1  0.00000000  0.00000000  0.00000000  1
  Dy  Dy2  1  0.48924803  0.98924901  0.30197496  1
  Dy  Dy3  1  0.81272605  0.31272700  0.30197502  1
  Dy  Dy4  1  0.98924806  0.81272700  0.30197500  1
  Dy  Dy5  1  0.31272602  0.48924900  0.30197498  1
  Dy  Dy6  1  0.51075203  0.01075100  0.69802501  1
  Dy  Dy7  1  0.18727401  0.68727300  0.69802495  1
  Dy  Dy8  1  0.01075200  0.18727300  0.69802497  1
  Dy  Dy9  1  0.68727404  0.51075100  0.69802499  1
  In  In10  1  0.75000005  0.75000000  0.49999999  1
  In  In11  1  0.25000002  0.25000000  0.49999999  1
  In  In12  1  0.13428801  0.63428800  -0.00000003  1
  In  In13  1  0.86571206  0.36571200  0.00000003  1
  In  In14  1  0.63428804  0.86571200  -0.00000001  1
  In  In15  1  0.36571202  0.13428800  0.00000001  1
