# generated using pymatgen
data_DySiIr
_symmetry_space_group_name_H-M   'P 1'
_cell_length_a   4.37992477
_cell_length_b   6.96032476
_cell_length_c   7.25011396
_cell_angle_alpha   90.00000000
_cell_angle_beta   90.00000000
_cell_angle_gamma   90.00000000
_symmetry_Int_Tables_number   1
_chemical_formula_structural   DySiIr
_chemical_formula_sum   'Dy4 Si4 Ir4'
_cell_volume   221.02479109
_cell_formula_units_Z   4
loop_
 _symmetry_equiv_pos_site_id
 _symmetry_equiv_pos_as_xyz
  1  'x, y, z'
loop_
 _atom_site_type_symbol
 _atom_site_label
 _atom_site_symmetry_multiplicity
 _atom_site_fract_x
 _atom_site_fract_y
 _atom_site_fract_z
 _atom_site_occupancy
  Dy  Dy0  1  0.25000001  0.98951503  0.80756200  1
  Dy  Dy1  1  0.75000004  0.01048500  0.19243800  1
  Dy  Dy2  1  0.25000001  0.48951502  0.69243800  1
  Dy  Dy3  1  0.75000004  0.51048502  0.30756200  1
  Si  Si4  1  0.25000001  0.29447001  0.10749700  1
  Si  Si5  1  0.75000004  0.70553002  0.89250300  1
  Si  Si6  1  0.25000001  0.79447003  0.39250300  1
  Si  Si7  1  0.75000004  0.20553001  0.60749700  1
  Ir  Ir8  1  0.75000004  0.84344503  0.56220900  1
  Ir  Ir9  1  0.25000001  0.15655501  0.43779100  1
  Ir  Ir10  1  0.75000004  0.34344501  0.93779100  1
  Ir  Ir11  1  0.25000001  0.65655502  0.06220900  1
