# generated using pymatgen
data_LaScS3
_symmetry_space_group_name_H-M   'P 1'
_cell_length_a   6.56026888
_cell_length_b   7.01785278
_cell_length_c   9.59823227
_cell_angle_alpha   90.00000000
_cell_angle_beta   90.00000000
_cell_angle_gamma   90.00000000
_symmetry_Int_Tables_number   1
_chemical_formula_structural   LaScS3
_chemical_formula_sum   'La4 Sc4 S12'
_cell_volume   441.89302707
_cell_formula_units_Z   4
loop_
 _symmetry_equiv_pos_site_id
 _symmetry_equiv_pos_as_xyz
  1  'x, y, z'
loop_
 _atom_site_type_symbol
 _atom_site_label
 _atom_site_symmetry_multiplicity
 _atom_site_fract_x
 _atom_site_fract_y
 _atom_site_fract_z
 _atom_site_occupancy
  La  La0  1  0.47189701  0.58932102  0.24999999  1
  La  La1  1  0.02810300  0.08932100  0.24999999  1
  La  La2  1  0.52810301  0.41067901  0.74999998  1
  La  La3  1  0.97189702  0.91067903  0.74999998  1
  Sc  Sc4  1  -0.00000000  0.50000002  0.00000000  1
  Sc  Sc5  1  0.50000001  0.00000000  0.49999999  1
  Sc  Sc6  1  -0.00000000  0.50000002  0.49999999  1
  Sc  Sc7  1  0.50000001  0.00000000  -0.00000000  1
  S  S8  1  0.88021002  0.46728701  0.24999999  1
  S  S9  1  0.61979001  0.96728703  0.24999999  1
  S  S10  1  0.11979000  0.53271302  0.74999998  1
  S  S11  1  0.38021001  0.03271300  0.74999998  1
  S  S12  1  0.68341201  0.69040402  0.93880397  1
  S  S13  1  0.81658802  0.19040401  0.56119598  1
  S  S14  1  0.31658801  0.30959601  0.43880399  1
  S  S15  1  0.18341200  0.80959603  0.06119600  1
  S  S16  1  0.31658801  0.30959601  0.06119600  1
  S  S17  1  0.18341200  0.80959603  0.43880399  1
  S  S18  1  0.68341201  0.69040402  0.56119598  1
  S  S19  1  0.81658802  0.19040401  0.93880397  1
