# generated using pymatgen
data_CeGe3Ir
_symmetry_space_group_name_H-M   'P 1'
_cell_length_a   4.38970995
_cell_length_b   4.38970995
_cell_length_c   6.13329458
_cell_angle_alpha   110.96877289
_cell_angle_beta   110.96877289
_cell_angle_gamma   90.00000000
_symmetry_Int_Tables_number   1
_chemical_formula_structural   CeGe3Ir
_chemical_formula_sum   'Ce1 Ge3 Ir1'
_cell_volume   101.93306746
_cell_formula_units_Z   1
loop_
 _symmetry_equiv_pos_site_id
 _symmetry_equiv_pos_as_xyz
  1  'x, y, z'
loop_
 _atom_site_type_symbol
 _atom_site_label
 _atom_site_symmetry_multiplicity
 _atom_site_fract_x
 _atom_site_fract_y
 _atom_site_fract_z
 _atom_site_occupancy
  Ce  Ce0  1  0.99178703  0.99178602  0.98357301  1
  Ge  Ge1  1  0.75026102  0.25026101  0.50052200  1
  Ge  Ge2  1  0.25026102  0.75026102  0.50052200  1
  Ge  Ge3  1  0.38627401  0.38627301  0.77254699  1
  Ir  Ir4  1  0.62141802  0.62141901  0.24283701  1
