# generated using pymatgen
data_ScGe
_symmetry_space_group_name_H-M   'P 1'
_cell_length_a   5.22844458
_cell_length_b   5.22844458
_cell_length_c   9.52573490
_cell_angle_alpha   97.93180847
_cell_angle_beta   97.93180847
_cell_angle_gamma   119.81322479
_symmetry_Int_Tables_number   1
_chemical_formula_structural   ScGe
_chemical_formula_sum   'Sc6 Ge6'
_cell_volume   217.21264324
_cell_formula_units_Z   6
loop_
 _symmetry_equiv_pos_site_id
 _symmetry_equiv_pos_as_xyz
  1  'x, y, z'
loop_
 _atom_site_type_symbol
 _atom_site_label
 _atom_site_symmetry_multiplicity
 _atom_site_fract_x
 _atom_site_fract_y
 _atom_site_fract_z
 _atom_site_occupancy
  Sc  Sc0  1  0.08329900  0.08329900  0.16659799  1
  Sc  Sc1  1  0.91670097  0.91670099  0.83340197  1
  Sc  Sc2  1  0.16670097  0.66670100  0.33340199  1
  Sc  Sc3  1  0.33329896  0.83329900  0.66659798  1
  Sc  Sc4  1  0.58424199  0.41575800  0.49999998  1
  Sc  Sc5  1  0.91575802  0.08424200  0.49999999  1
  Ge  Ge6  1  0.66575800  0.33424200  -0.00000000  1
  Ge  Ge7  1  0.33424197  0.66575800  -0.00000001  1
  Ge  Ge8  1  0.62668198  0.62668200  0.25336399  1
  Ge  Ge9  1  0.37331799  0.37331800  0.74663598  1
  Ge  Ge10  1  0.62331801  0.12331800  0.24663599  1
  Ge  Ge11  1  0.87668200  0.37668200  0.75336398  1
