# generated using pymatgen
data_CuSe
_symmetry_space_group_name_H-M   'P 1'
_cell_length_a   5.76565599
_cell_length_b   5.76565599
_cell_length_c   7.03184748
_cell_angle_alpha   114.20278168
_cell_angle_beta   114.20278168
_cell_angle_gamma   90.00000000
_symmetry_Int_Tables_number   1
_chemical_formula_structural   CuSe
_chemical_formula_sum   'Cu4 Se4'
_cell_volume   190.45968114
_cell_formula_units_Z   4
loop_
 _symmetry_equiv_pos_site_id
 _symmetry_equiv_pos_as_xyz
  1  'x, y, z'
loop_
 _atom_site_type_symbol
 _atom_site_label
 _atom_site_symmetry_multiplicity
 _atom_site_fract_x
 _atom_site_fract_y
 _atom_site_fract_z
 _atom_site_occupancy
  Cu  Cu0  1  0.49999996  0.49999998  0.99999996  1
  Cu  Cu1  1  0.74999997  0.24999999  0.49999996  1
  Cu  Cu2  1  0.24999995  0.74999998  0.49999995  1
  Cu  Cu3  1  0.00000000  0.00000000  0.00000000  1
  Se  Se4  1  0.10387496  0.63637498  0.73724496  1
  Se  Se5  1  0.63336998  0.10087000  0.73724498  1
  Se  Se6  1  0.36362497  0.36662999  0.26275496  1
  Se  Se7  1  0.89912993  0.89612497  0.26275490  1
