# generated using pymatgen
data_NpAl2
_symmetry_space_group_name_H-M   'P 1'
_cell_length_a   5.22656012
_cell_length_b   5.22656012
_cell_length_c   5.35306215
_cell_angle_alpha   60.77869797
_cell_angle_beta   60.77869797
_cell_angle_gamma   60.00000000
_symmetry_Int_Tables_number   1
_chemical_formula_structural   NpAl2
_chemical_formula_sum   'Np2 Al4'
_cell_volume   104.60002812
_cell_formula_units_Z   2
loop_
 _symmetry_equiv_pos_site_id
 _symmetry_equiv_pos_as_xyz
  1  'x, y, z'
loop_
 _atom_site_type_symbol
 _atom_site_label
 _atom_site_symmetry_multiplicity
 _atom_site_fract_x
 _atom_site_fract_y
 _atom_site_fract_z
 _atom_site_occupancy
  Np  Np0  1  0.12662801  0.12662800  0.62011601  1
  Np  Np1  1  0.87337205  0.87337199  0.37988395  1
  Al  Al2  1  0.50000003  0.50000000  0.49999998  1
  Al  Al3  1  0.00000002  0.50000000  -0.00000002  1
  Al  Al4  1  0.50000000  0.00000000  -0.00000001  1
  Al  Al5  1  0.50000003  0.50000000  -0.00000003  1
