# generated using pymatgen
data_La3Au4
_symmetry_space_group_name_H-M   'P 1'
_cell_length_a   5.97702026
_cell_length_b   8.28896427
_cell_length_c   8.28896427
_cell_angle_alpha   114.41483307
_cell_angle_beta   103.90782166
_cell_angle_gamma   103.90782166
_symmetry_Int_Tables_number   1
_chemical_formula_structural   La3Au4
_chemical_formula_sum   'La6 Au8'
_cell_volume   335.09763075
_cell_formula_units_Z   2
loop_
 _symmetry_equiv_pos_site_id
 _symmetry_equiv_pos_as_xyz
  1  'x, y, z'
loop_
 _atom_site_type_symbol
 _atom_site_label
 _atom_site_symmetry_multiplicity
 _atom_site_fract_x
 _atom_site_fract_y
 _atom_site_fract_z
 _atom_site_occupancy
  La  La0  1  0.71931391  0.74522098  0.11926093  1
  La  La1  1  0.60005290  0.88073898  0.62595993  1
  La  La2  1  0.97409294  0.37403999  0.25477896  1
  La  La3  1  0.28068597  0.25477899  0.88073899  1
  La  La4  1  0.39994698  0.11926100  0.37403999  1
  La  La5  1  0.02590694  0.62595998  0.74522096  1
  Au  Au6  1  0.77794395  0.33301899  0.83408498  1
  Au  Au7  1  0.44492494  0.50106599  0.66698097  1
  Au  Au8  1  0.94385896  0.16591500  0.49893398  1
  Au  Au9  1  0.55507494  0.49893399  0.33301896  1
  Au  Au10  1  0.22205593  0.66698098  0.16591494  1
  Au  Au11  1  0.05614092  0.83408498  0.50106594  1
  Au  Au12  1  0.49999989  0.99999997  -0.00000009  1
  Au  Au13  1  0.00000000  0.00000000  0.00000000  1
