# generated using pymatgen
data_LiTiFeO4
_symmetry_space_group_name_H-M   'P 1'
_cell_length_a   6.08749342
_cell_length_b   6.08749390
_cell_length_c   6.08749342
_cell_angle_alpha   92.32785797
_cell_angle_beta   118.19668579
_cell_angle_gamma   119.13588715
_symmetry_Int_Tables_number   1
_chemical_formula_structural   LiTiFeO4
_chemical_formula_sum   'Li2 Ti2 Fe2 O8'
_cell_volume   162.57213932
_cell_formula_units_Z   2
loop_
 _symmetry_equiv_pos_site_id
 _symmetry_equiv_pos_as_xyz
  1  'x, y, z'
loop_
 _atom_site_type_symbol
 _atom_site_label
 _atom_site_symmetry_multiplicity
 _atom_site_fract_x
 _atom_site_fract_y
 _atom_site_fract_z
 _atom_site_occupancy
  Li  Li0  1  -0.00000000  0.00465200  0.00465200  1
  Li  Li1  1  0.50000001  0.74534800  0.24534799  1
  Ti  Ti2  1  0.75000002  0.37500000  0.12500003  1
  Ti  Ti3  1  0.25000000  0.37500000  0.62499999  1
  Fe  Fe4  1  0.24999999  0.87500000  0.62499996  1
  Fe  Fe5  1  0.75000002  0.37500000  0.62500002  1
  O  O6  1  0.23198900  0.61960300  0.38761398  1
  O  O7  1  0.76801103  0.15562500  0.38761404  1
  O  O8  1  0.77517502  0.60833800  0.38351401  1
  O  O9  1  0.27517601  0.14166200  0.41683701  1
  O  O10  1  0.22482400  0.60833800  0.83316297  1
  O  O11  1  0.72482503  0.14166200  0.86648603  1
  O  O12  1  0.73198902  0.59437500  0.86238601  1
  O  O13  1  0.26801101  0.13039700  0.86238600  1
