# generated using pymatgen
data_GdGa3
_symmetry_space_group_name_H-M   'P 1'
_cell_length_a   4.66103888
_cell_length_b   6.47982407
_cell_length_c   6.47982407
_cell_angle_alpha   120.00000000
_cell_angle_beta   90.00000000
_cell_angle_gamma   90.00000000
_symmetry_Int_Tables_number   1
_chemical_formula_structural   GdGa3
_chemical_formula_sum   'Gd2 Ga6'
_cell_volume   169.48832428
_cell_formula_units_Z   2
loop_
 _symmetry_equiv_pos_site_id
 _symmetry_equiv_pos_as_xyz
  1  'x, y, z'
loop_
 _atom_site_type_symbol
 _atom_site_label
 _atom_site_symmetry_multiplicity
 _atom_site_fract_x
 _atom_site_fract_y
 _atom_site_fract_z
 _atom_site_occupancy
  Gd  Gd0  1  0.75000002  0.66666665  0.33333331  1
  Gd  Gd1  1  0.25000001  0.33333333  0.66666664  1
  Ga  Ga2  1  0.75000002  0.14137500  0.85862497  1
  Ga  Ga3  1  0.25000001  0.85862498  0.71724996  1
  Ga  Ga4  1  0.25000001  0.28274999  0.14137499  1
  Ga  Ga5  1  0.75000002  0.71724999  0.85862496  1
  Ga  Ga6  1  0.75000002  0.14137500  0.28274999  1
  Ga  Ga7  1  0.25000001  0.85862498  0.14137498  1
