# generated using pymatgen
data_Er3InNi4
_symmetry_space_group_name_H-M   'P 1'
_cell_length_a   4.10291386
_cell_length_b   5.36575794
_cell_length_c   6.94964790
_cell_angle_alpha   90.00000000
_cell_angle_beta   90.00000000
_cell_angle_gamma   90.00000000
_symmetry_Int_Tables_number   1
_chemical_formula_structural   Er3InNi4
_chemical_formula_sum   'Er3 In1 Ni4'
_cell_volume   152.99818466
_cell_formula_units_Z   1
loop_
 _symmetry_equiv_pos_site_id
 _symmetry_equiv_pos_as_xyz
  1  'x, y, z'
loop_
 _atom_site_type_symbol
 _atom_site_label
 _atom_site_symmetry_multiplicity
 _atom_site_fract_x
 _atom_site_fract_y
 _atom_site_fract_z
 _atom_site_occupancy
  Er  Er0  1  0.25000001  0.13351200  0.18001800  1
  Er  Er1  1  0.75000003  0.86648801  0.81998201  1
  Er  Er2  1  0.75000003  0.63351201  0.31998200  1
  In  In3  1  0.25000001  0.36648800  0.68001801  1
  Ni  Ni4  1  0.25000001  0.62818901  0.03720700  1
  Ni  Ni5  1  0.75000003  0.37181100  0.96279301  1
  Ni  Ni6  1  0.75000003  0.12818900  0.46279301  1
  Ni  Ni7  1  0.25000001  0.87181101  0.53720701  1
