# generated using pymatgen
data_Dy3Pd4
_symmetry_space_group_name_H-M   'P 1'
_cell_length_a   5.66555929
_cell_length_b   7.73475170
_cell_length_c   7.73475170
_cell_angle_alpha   114.24118805
_cell_angle_beta   104.13221741
_cell_angle_gamma   104.13221741
_symmetry_Int_Tables_number   1
_chemical_formula_structural   Dy3Pd4
_chemical_formula_sum   'Dy6 Pd8'
_cell_volume   276.04011411
_cell_formula_units_Z   2
loop_
 _symmetry_equiv_pos_site_id
 _symmetry_equiv_pos_as_xyz
  1  'x, y, z'
loop_
 _atom_site_type_symbol
 _atom_site_label
 _atom_site_symmetry_multiplicity
 _atom_site_fract_x
 _atom_site_fract_y
 _atom_site_fract_z
 _atom_site_occupancy
  Dy  Dy0  1  0.27994607  0.87621503  0.25447802  1
  Dy  Dy1  1  0.40373102  0.37826301  0.12378502  1
  Dy  Dy2  1  0.02546806  0.74552203  0.62173702  1
  Dy  Dy3  1  0.72005399  0.12378500  0.74552203  1
  Dy  Dy4  1  0.59626904  0.62173702  0.87621504  1
  Dy  Dy5  1  0.97453200  0.25447801  0.37826304  1
  Pd  Pd6  1  0.00000000  0.00000000  0.00000000  1
  Pd  Pd7  1  0.49999999  0.00000000  0.00000001  1
  Pd  Pd8  1  0.55282001  0.32381501  0.48898503  1
  Pd  Pd9  1  0.22900501  0.16517001  0.67618502  1
  Pd  Pd10  1  0.06383504  0.51101502  0.83483002  1
  Pd  Pd11  1  0.44718004  0.67618502  0.51101503  1
  Pd  Pd12  1  0.77099505  0.83483003  0.32381503  1
  Pd  Pd13  1  0.93616502  0.48898502  0.16517003  1
