# generated using pymatgen
data_CeZn2Ni3
_symmetry_space_group_name_H-M   'P 1'
_cell_length_a   4.07132483
_cell_length_b   5.02814579
_cell_length_c   5.11129999
_cell_angle_alpha   118.53904724
_cell_angle_beta   90.00000000
_cell_angle_gamma   90.00000000
_symmetry_Int_Tables_number   1
_chemical_formula_structural   CeZn2Ni3
_chemical_formula_sum   'Ce1 Zn2 Ni3'
_cell_volume   91.92055976
_cell_formula_units_Z   1
loop_
 _symmetry_equiv_pos_site_id
 _symmetry_equiv_pos_as_xyz
  1  'x, y, z'
loop_
 _atom_site_type_symbol
 _atom_site_label
 _atom_site_symmetry_multiplicity
 _atom_site_fract_x
 _atom_site_fract_y
 _atom_site_fract_z
 _atom_site_occupancy
  Ce  Ce0  1  -0.00000000  0.50000004  0.50000005  1
  Zn  Zn1  1  0.50000002  0.00000000  -0.00000000  1
  Zn  Zn2  1  0.50000002  0.00000000  0.50000001  1
  Ni  Ni3  1  -0.00000000  0.83229406  0.16271107  1
  Ni  Ni4  1  -0.00000000  0.16770601  0.83728903  1
  Ni  Ni5  1  0.50000002  0.50000004  0.00000004  1
