# generated using pymatgen
data_LiCuF5
_symmetry_space_group_name_H-M   'P 1'
_cell_length_a   5.95145226
_cell_length_b   5.95145226
_cell_length_c   5.95145226
_cell_angle_alpha   76.95809937
_cell_angle_beta   72.57916260
_cell_angle_gamma   118.35601044
_symmetry_Int_Tables_number   1
_chemical_formula_structural   LiCuF5
_chemical_formula_sum   'Li2 Cu2 F10'
_cell_volume   159.10668222
_cell_formula_units_Z   2
loop_
 _symmetry_equiv_pos_site_id
 _symmetry_equiv_pos_as_xyz
  1  'x, y, z'
loop_
 _atom_site_type_symbol
 _atom_site_label
 _atom_site_symmetry_multiplicity
 _atom_site_fract_x
 _atom_site_fract_y
 _atom_site_fract_z
 _atom_site_occupancy
  Li  Li0  1  0.50000005  0.50000004  0.49999997  1
  Li  Li1  1  0.50000005  0.50000004  -0.00000004  1
  Cu  Cu2  1  0.00000000  0.00000000  0.50000001  1
  Cu  Cu3  1  0.50000009  1.00000008  -0.00000008  1
  F  F4  1  0.00000000  0.00000000  0.00000000  1
  F  F5  1  0.00000004  0.50000004  -0.00000004  1
  F  F6  1  0.43711203  0.25000002  0.81288800  1
  F  F7  1  0.59103203  0.24450702  0.16446098  1
  F  F8  1  0.93711208  0.75000006  0.81288795  1
  F  F9  1  0.90896808  0.74450706  0.34652494  1
  F  F10  1  0.09103202  0.25549302  0.65347499  1
  F  F11  1  0.06288802  0.25000002  0.18711198  1
  F  F12  1  0.40896807  0.75549306  0.83553895  1
  F  F13  1  0.56288807  0.75000006  0.18711194  1
