# generated using pymatgen
data_HfNbC2
_symmetry_space_group_name_H-M   'P 1'
_cell_length_a   3.17683005
_cell_length_b   3.17683005
_cell_length_c   5.50452757
_cell_angle_alpha   73.22792053
_cell_angle_beta   73.22792053
_cell_angle_gamma   60.00000000
_symmetry_Int_Tables_number   1
_chemical_formula_structural   HfNbC2
_chemical_formula_sum   'Hf1 Nb1 C2'
_cell_volume   45.36104439
_cell_formula_units_Z   1
loop_
 _symmetry_equiv_pos_site_id
 _symmetry_equiv_pos_as_xyz
  1  'x, y, z'
loop_
 _atom_site_type_symbol
 _atom_site_label
 _atom_site_symmetry_multiplicity
 _atom_site_fract_x
 _atom_site_fract_y
 _atom_site_fract_z
 _atom_site_occupancy
  Hf  Hf0  1  0.25659601  0.25659600  0.23021200  1
  Nb  Nb1  1  0.74340402  0.74340399  0.76978799  1
  C  C2  1  0.00000000  0.00000000  0.00000000  1
  C  C3  1  0.50000001  0.50000000  0.49999999  1
