# generated using pymatgen
data_V(BiO2)3
_symmetry_space_group_name_H-M   'P 1'
_cell_length_a   6.17589808
_cell_length_b   6.17589808
_cell_length_c   6.77319431
_cell_angle_alpha   62.87666702
_cell_angle_beta   62.87666702
_cell_angle_gamma   60.00000000
_symmetry_Int_Tables_number   1
_chemical_formula_structural   V(BiO2)3
_chemical_formula_sum   'V1 Bi3 O6'
_cell_volume   190.21855718
_cell_formula_units_Z   1
loop_
 _symmetry_equiv_pos_site_id
 _symmetry_equiv_pos_as_xyz
  1  'x, y, z'
loop_
 _atom_site_type_symbol
 _atom_site_label
 _atom_site_symmetry_multiplicity
 _atom_site_fract_x
 _atom_site_fract_y
 _atom_site_fract_z
 _atom_site_occupancy
  V  V0  1  0.00000000  0.00000000  0.00000000  1
  Bi  Bi1  1  0.32880500  0.32880500  0.01358502  1
  Bi  Bi2  1  0.67119501  0.67119499  0.98641504  1
  Bi  Bi3  1  0.50000000  0.50000000  0.50000003  1
  O  O4  1  0.58244101  0.90324599  0.26335804  1
  O  O5  1  0.25095501  0.58244100  0.26335802  1
  O  O6  1  0.90324600  0.25095500  0.26335803  1
  O  O7  1  0.09675401  0.74904499  0.73664203  1
  O  O8  1  0.74904500  0.41755900  0.73664204  1
  O  O9  1  0.41755900  0.09675400  0.73664202  1
