# generated using pymatgen
data_LiCa2CdN4
_symmetry_space_group_name_H-M   'P 1'
_cell_length_a   5.16240406
_cell_length_b   5.60989141
_cell_length_c   5.16240406
_cell_angle_alpha   117.39460754
_cell_angle_beta   90.00000000
_cell_angle_gamma   117.39460754
_symmetry_Int_Tables_number   1
_chemical_formula_structural   LiCa2CdN4
_chemical_formula_sum   'Li1 Ca2 Cd1 N4'
_cell_volume   113.52474468
_cell_formula_units_Z   1
loop_
 _symmetry_equiv_pos_site_id
 _symmetry_equiv_pos_as_xyz
  1  'x, y, z'
loop_
 _atom_site_type_symbol
 _atom_site_label
 _atom_site_symmetry_multiplicity
 _atom_site_fract_x
 _atom_site_fract_y
 _atom_site_fract_z
 _atom_site_occupancy
  Li  Li0  1  0.00000000  0.00000000  0.00000000  1
  Ca  Ca1  1  0.25000001  0.50000001  0.75000000  1
  Ca  Ca2  1  0.49999999  0.00000000  0.49999999  1
  Cd  Cd3  1  0.75000000  0.50000001  0.25000001  1
  N  N4  1  0.95550300  0.25000001  0.37500000  1
  N  N5  1  0.12500002  0.75000002  0.04449702  1
  N  N6  1  0.29449700  0.25000001  0.87500000  1
  N  N7  1  0.62500001  0.75000002  0.70550301  1
