# generated using pymatgen
data_VP2O7
_symmetry_space_group_name_H-M   'P 1'
_cell_length_a   4.94679117
_cell_length_b   7.06792927
_cell_length_c   8.14247131
_cell_angle_alpha   90.00000000
_cell_angle_beta   90.00000000
_cell_angle_gamma   108.90911102
_symmetry_Int_Tables_number   1
_chemical_formula_structural   VP2O7
_chemical_formula_sum   'V2 P4 O14'
_cell_volume   269.32624726
_cell_formula_units_Z   2
loop_
 _symmetry_equiv_pos_site_id
 _symmetry_equiv_pos_as_xyz
  1  'x, y, z'
loop_
 _atom_site_type_symbol
 _atom_site_label
 _atom_site_symmetry_multiplicity
 _atom_site_fract_x
 _atom_site_fract_y
 _atom_site_fract_z
 _atom_site_occupancy
  V  V0  1  0.78823195  0.27854099  0.99122396  1
  V  V1  1  0.21176794  0.72145897  0.49122398  1
  P  P2  1  0.22757499  0.08933500  0.21967899  1
  P  P3  1  0.60787894  0.48068898  0.31578299  1
  P  P4  1  0.77242490  0.91066496  0.71967897  1
  P  P5  1  0.39212095  0.51931098  0.81578297  1
  O  O6  1  0.26646895  0.51904998  0.64488198  1
  O  O7  1  0.73353094  0.48094998  0.14488199  1
  O  O8  1  0.40497097  0.25433499  0.35229599  1
  O  O9  1  0.97371495  0.14672399  0.16077599  1
  O  O10  1  0.43440794  0.62314598  0.32567099  1
  O  O11  1  0.59502892  0.74566497  0.85229597  1
  O  O12  1  0.16185996  0.47392298  0.95005696  1
  O  O13  1  0.83813993  0.52607698  0.45005698  1
  O  O14  1  0.42408498  0.09207000  0.07082000  1
  O  O15  1  0.14313292  0.89261897  0.31087399  1
  O  O16  1  0.56559195  0.37685399  0.82567097  1
  O  O17  1  0.02628493  0.85327597  0.66077597  1
  O  O18  1  0.85686696  0.10738100  0.81087397  1
  O  O19  1  0.57591491  0.90792996  0.57081998  1
