# generated using pymatgen
data_LaAlCo4
_symmetry_space_group_name_H-M   'P 1'
_cell_length_a   4.22934580
_cell_length_b   4.22934580
_cell_length_c   5.67991781
_cell_angle_alpha   90.00000000
_cell_angle_beta   90.00000000
_cell_angle_gamma   90.00000000
_symmetry_Int_Tables_number   1
_chemical_formula_structural   LaAlCo4
_chemical_formula_sum   'La1 Al1 Co4'
_cell_volume   101.59876810
_cell_formula_units_Z   1
loop_
 _symmetry_equiv_pos_site_id
 _symmetry_equiv_pos_as_xyz
  1  'x, y, z'
loop_
 _atom_site_type_symbol
 _atom_site_label
 _atom_site_symmetry_multiplicity
 _atom_site_fract_x
 _atom_site_fract_y
 _atom_site_fract_z
 _atom_site_occupancy
  La  La0  1  0.00000000  0.00000000  0.50000002  1
  Al  Al1  1  0.50000002  0.50000002  0.74577002  1
  Co  Co2  1  0.50000002  0.50000002  0.25423001  1
  Co  Co3  1  0.00000000  0.00000000  0.00000000  1
  Co  Co4  1  0.50000002  0.00000000  -0.00000000  1
  Co  Co5  1  0.00000000  0.50000002  0.00000000  1
