# generated using pymatgen
data_NaHgAu2
_symmetry_space_group_name_H-M   'P 1'
_cell_length_a   5.09822607
_cell_length_b   5.09822655
_cell_length_c   9.07618141
_cell_angle_alpha   90.00000000
_cell_angle_beta   90.00000000
_cell_angle_gamma   119.99999237
_symmetry_Int_Tables_number   1
_chemical_formula_structural   NaHgAu2
_chemical_formula_sum   'Na2 Hg2 Au4'
_cell_volume   204.30173389
_cell_formula_units_Z   2
loop_
 _symmetry_equiv_pos_site_id
 _symmetry_equiv_pos_as_xyz
  1  'x, y, z'
loop_
 _atom_site_type_symbol
 _atom_site_label
 _atom_site_symmetry_multiplicity
 _atom_site_fract_x
 _atom_site_fract_y
 _atom_site_fract_z
 _atom_site_occupancy
  Na  Na0  1  0.66666664  0.33333333  0.07992000  1
  Na  Na1  1  0.33333328  0.66666666  0.57991997  1
  Hg  Hg2  1  0.00000000  0.00000000  0.74999997  1
  Hg  Hg3  1  0.00000000  0.00000000  0.24999999  1
  Au  Au4  1  0.66666664  0.33333333  0.42007998  1
  Au  Au5  1  0.33333328  0.66666666  0.92007996  1
  Au  Au6  1  0.33333328  0.66666666  0.24999999  1
  Au  Au7  1  0.66666664  0.33333333  0.74999997  1
