# generated using pymatgen
data_Ce3HfSb5
_symmetry_space_group_name_H-M   'P 1'
_cell_length_a   6.31411886
_cell_length_b   9.44923973
_cell_length_c   9.44923878
_cell_angle_alpha   120.00000000
_cell_angle_beta   90.00000000
_cell_angle_gamma   90.00000000
_symmetry_Int_Tables_number   1
_chemical_formula_structural   Ce3HfSb5
_chemical_formula_sum   'Ce6 Hf2 Sb10'
_cell_volume   488.24418070
_cell_formula_units_Z   2
loop_
 _symmetry_equiv_pos_site_id
 _symmetry_equiv_pos_as_xyz
  1  'x, y, z'
loop_
 _atom_site_type_symbol
 _atom_site_label
 _atom_site_symmetry_multiplicity
 _atom_site_fract_x
 _atom_site_fract_y
 _atom_site_fract_z
 _atom_site_occupancy
  Ce  Ce0  1  0.75000002  0.38183500  0.38183500  1
  Ce  Ce1  1  0.25000001  0.61816500  0.61816500  1
  Ce  Ce2  1  0.75000002  0.00000000  0.61816503  1
  Ce  Ce3  1  0.25000001  0.00000000  0.38183502  1
  Ce  Ce4  1  0.75000002  0.61816500  1.00000001  1
  Ce  Ce5  1  0.25000001  0.38183500  1.00000003  1
  Hf  Hf6  1  0.00000000  0.00000000  0.00000000  1
  Hf  Hf7  1  0.50000001  0.00000000  -0.00000000  1
  Sb  Sb8  1  0.75000002  0.73331200  0.73331200  1
  Sb  Sb9  1  0.25000001  0.26668800  0.26668800  1
  Sb  Sb10  1  0.75000002  0.00000000  0.26668801  1
  Sb  Sb11  1  0.25000001  0.00000000  0.73331204  1
  Sb  Sb12  1  0.75000002  0.26668800  -0.00000001  1
  Sb  Sb13  1  0.25000001  0.73331200  -0.00000004  1
  Sb  Sb14  1  1.00000002  0.66666667  0.33333331  1
  Sb  Sb15  1  -0.00000000  0.33333333  0.66666668  1
  Sb  Sb16  1  0.50000001  0.33333333  0.66666668  1
  Sb  Sb17  1  0.50000001  0.66666667  0.33333331  1
