# generated using pymatgen
data_LiFeO2
_symmetry_space_group_name_H-M   'P 1'
_cell_length_a   5.84759188
_cell_length_b   5.90019178
_cell_length_c   5.88208389
_cell_angle_alpha   119.89852905
_cell_angle_beta   90.00000000
_cell_angle_gamma   119.70552826
_symmetry_Int_Tables_number   1
_chemical_formula_structural   LiFeO2
_chemical_formula_sum   'Li4 Fe4 O8'
_cell_volume   144.35661876
_cell_formula_units_Z   4
loop_
 _symmetry_equiv_pos_site_id
 _symmetry_equiv_pos_as_xyz
  1  'x, y, z'
loop_
 _atom_site_type_symbol
 _atom_site_label
 _atom_site_symmetry_multiplicity
 _atom_site_fract_x
 _atom_site_fract_y
 _atom_site_fract_z
 _atom_site_occupancy
  Li  Li0  1  0.50000001  0.00000000  1.00000002  1
  Li  Li1  1  -0.00000004  0.49999998  0.49999999  1
  Li  Li2  1  0.49999997  0.49999998  0.49999999  1
  Li  Li3  1  0.00000000  0.00000000  0.50000001  1
  Fe  Fe4  1  0.00000000  0.00000000  0.00000000  1
  Fe  Fe5  1  0.49999997  0.49999998  -0.00000001  1
  Fe  Fe6  1  0.99999998  0.49999998  1.00000000  1
  Fe  Fe7  1  0.50000001  0.00000000  0.50000001  1
  O  O8  1  0.74999998  0.49999998  0.22744299  1
  O  O9  1  0.24961192  0.99922396  0.24961198  1
  O  O10  1  0.74961193  0.99922396  0.24961198  1
  O  O11  1  0.24999996  0.49999998  0.77255700  1
  O  O12  1  0.24999996  0.49999998  0.25792699  1
  O  O13  1  0.75038802  0.00077600  0.75038801  1
  O  O14  1  0.25038801  0.00077600  0.75038801  1
  O  O15  1  0.74999998  0.49999998  0.74207300  1
