# generated using pymatgen
data_Al3Cr2CuS8
_symmetry_space_group_name_H-M   'P 1'
_cell_length_a   7.22721815
_cell_length_b   7.22721815
_cell_length_c   7.22721815
_cell_angle_alpha   60.00000000
_cell_angle_beta   60.00000000
_cell_angle_gamma   60.00000000
_symmetry_Int_Tables_number   1
_chemical_formula_structural   Al3Cr2CuS8
_chemical_formula_sum   'Al3 Cr2 Cu1 S8'
_cell_volume   266.93068073
_cell_formula_units_Z   1
loop_
 _symmetry_equiv_pos_site_id
 _symmetry_equiv_pos_as_xyz
  1  'x, y, z'
loop_
 _atom_site_type_symbol
 _atom_site_label
 _atom_site_symmetry_multiplicity
 _atom_site_fract_x
 _atom_site_fract_y
 _atom_site_fract_z
 _atom_site_occupancy
  Al  Al0  1  0.88303201  0.88303101  0.35090600  1
  Cr  Cr1  1  0.88303201  0.88303101  0.88303101  1
  Al  Al2  1  0.88303201  0.35090600  0.88303101  1
  Cr  Cr3  1  0.35090700  0.88303101  0.88303101  1
  Al  Al4  1  0.50000000  0.50000000  0.50000000  1
  Cu  Cu5  1  0.25000000  0.25000000  0.25000000  1
  S  S6  1  0.63307800  0.63307700  0.10076800  1
  S  S7  1  0.63307800  0.63307700  0.63307700  1
  S  S8  1  0.63307800  0.10076800  0.63307700  1
  S  S9  1  0.10076900  0.63307700  0.63307700  1
  S  S10  1  0.11654600  0.11654500  0.65036400  1
  S  S11  1  0.11654600  0.11654500  0.11654500  1
  S  S12  1  0.11654600  0.65036400  0.11654500  1
  S  S13  1  0.65036500  0.11654500  0.11654500  1
