# generated using pymatgen
data_TmTh
_symmetry_space_group_name_H-M   'P 1'
_cell_length_a   3.49575806
_cell_length_b   3.49575782
_cell_length_c   5.40402889
_cell_angle_alpha   90.00000000
_cell_angle_beta   90.00000000
_cell_angle_gamma   120.00000000
_symmetry_Int_Tables_number   1
_chemical_formula_structural   TmTh
_chemical_formula_sum   'Tm1 Th1'
_cell_volume   57.19143569
_cell_formula_units_Z   1
loop_
 _symmetry_equiv_pos_site_id
 _symmetry_equiv_pos_as_xyz
  1  'x, y, z'
loop_
 _atom_site_type_symbol
 _atom_site_label
 _atom_site_symmetry_multiplicity
 _atom_site_fract_x
 _atom_site_fract_y
 _atom_site_fract_z
 _atom_site_occupancy
  Tm  Tm0  1  0.66666664  0.33333333  -0.00000000  1
  Th  Th1  1  0.33333330  0.66666665  0.50000001  1
