# generated using pymatgen
data_TlAg2HgCl6
_symmetry_space_group_name_H-M   'P 1'
_cell_length_a   7.82655048
_cell_length_b   7.82655048
_cell_length_c   7.82655048
_cell_angle_alpha   60.53104401
_cell_angle_beta   60.53104401
_cell_angle_gamma   60.53104401
_symmetry_Int_Tables_number   1
_chemical_formula_structural   TlAg2HgCl6
_chemical_formula_sum   'Tl1 Ag2 Hg1 Cl6'
_cell_volume   343.06491200
_cell_formula_units_Z   1
loop_
 _symmetry_equiv_pos_site_id
 _symmetry_equiv_pos_as_xyz
  1  'x, y, z'
loop_
 _atom_site_type_symbol
 _atom_site_label
 _atom_site_symmetry_multiplicity
 _atom_site_fract_x
 _atom_site_fract_y
 _atom_site_fract_z
 _atom_site_occupancy
  Tl  Tl0  1  0.28984902  0.28984901  0.28984898  1
  Hg  Hg1  1  0.78984906  0.78984903  0.78984895  1
  Ag  Ag2  1  0.98685308  0.98685304  0.98685294  1
  Ag  Ag3  1  0.48685304  0.48685302  0.48685297  1
  Cl  Cl4  1  0.86763105  0.19319501  0.69097098  1
  Cl  Cl5  1  0.69097106  0.86763103  0.19319494  1
  Cl  Cl6  1  0.19319503  0.69097103  0.86763098  1
  Cl  Cl7  1  0.36763102  0.19097101  0.69319500  1
  Cl  Cl8  1  0.19097103  0.69319503  0.36763097  1
  Cl  Cl9  1  0.69319505  0.36763101  0.19097096  1
