# generated using pymatgen
data_LuGa4
_symmetry_space_group_name_H-M   'P 1'
_cell_length_a   4.31427813
_cell_length_b   6.12010002
_cell_length_c   7.91939545
_cell_angle_alpha   112.73064423
_cell_angle_beta   105.80634308
_cell_angle_gamma   90.00000000
_symmetry_Int_Tables_number   1
_chemical_formula_structural   LuGa4
_chemical_formula_sum   'Lu2 Ga8'
_cell_volume   184.25941354
_cell_formula_units_Z   2
loop_
 _symmetry_equiv_pos_site_id
 _symmetry_equiv_pos_as_xyz
  1  'x, y, z'
loop_
 _atom_site_type_symbol
 _atom_site_label
 _atom_site_symmetry_multiplicity
 _atom_site_fract_x
 _atom_site_fract_y
 _atom_site_fract_z
 _atom_site_occupancy
  Lu  Lu0  1  0.60943395  0.35943399  0.21886797  1
  Lu  Lu1  1  0.39056595  0.64056598  0.78113197  1
  Ga  Ga2  1  -0.00000003  0.49999999  -0.00000002  1
  Ga  Ga3  1  0.00000000  0.00000000  0.00000000  1
  Ga  Ga4  1  0.39584397  0.14584400  0.79168799  1
  Ga  Ga5  1  0.60415593  0.85415598  0.20831195  1
  Ga  Ga6  1  0.80149495  0.28759799  0.60298997  1
  Ga  Ga7  1  0.19850595  0.71240298  0.39701097  1
  Ga  Ga8  1  0.19850498  0.18460800  0.39700999  1
  Ga  Ga9  1  0.80149492  0.81539198  0.60298995  1
