# generated using pymatgen
data_NbSbS3
_symmetry_space_group_name_H-M   'P 1'
_cell_length_a   3.89236999
_cell_length_b   9.17792892
_cell_length_c   14.52096653
_cell_angle_alpha   90.00000000
_cell_angle_beta   90.00000000
_cell_angle_gamma   90.00000000
_symmetry_Int_Tables_number   1
_chemical_formula_structural   NbSbS3
_chemical_formula_sum   'Nb4 Sb4 S12'
_cell_volume   518.74548471
_cell_formula_units_Z   4
loop_
 _symmetry_equiv_pos_site_id
 _symmetry_equiv_pos_as_xyz
  1  'x, y, z'
loop_
 _atom_site_type_symbol
 _atom_site_label
 _atom_site_symmetry_multiplicity
 _atom_site_fract_x
 _atom_site_fract_y
 _atom_site_fract_z
 _atom_site_occupancy
  Nb  Nb0  1  0.25000000  0.15969900  0.94604403  1
  Nb  Nb1  1  0.25000000  0.65969901  0.55395602  1
  Nb  Nb2  1  0.75000000  0.84030101  0.05395600  1
  Nb  Nb3  1  0.75000000  0.34030100  0.44604401  1
  Sb  Sb4  1  0.75000000  0.47812900  0.82874603  1
  Sb  Sb5  1  0.75000000  0.97812901  0.67125402  1
  Sb  Sb6  1  0.25000000  0.52187100  0.17125401  1
  Sb  Sb7  1  0.25000000  0.02187100  0.32874601  1
  S  S8  1  0.75000000  0.34215200  0.00729400  1
  S  S9  1  0.75000000  0.84215201  0.49270602  1
  S  S10  1  0.25000000  0.65784801  0.99270603  1
  S  S11  1  0.25000000  0.15784800  0.50729402  1
  S  S12  1  0.25000000  0.28755000  0.79008303  1
  S  S13  1  0.25000000  0.78755001  0.70991702  1
  S  S14  1  0.75000000  0.71245001  0.20991701  1
  S  S15  1  0.75000000  0.21245000  0.29008301  1
  S  S16  1  0.75000000  0.98168601  0.89598003  1
  S  S17  1  0.75000000  0.48168600  0.60402002  1
  S  S18  1  0.25000000  0.01831400  0.10402000  1
  S  S19  1  0.25000000  0.51831400  0.39598001  1
