# generated using pymatgen
data_Li2NO4
_symmetry_space_group_name_H-M   'P 1'
_cell_length_a   3.01045799
_cell_length_b   4.30925417
_cell_length_c   4.81092644
_cell_angle_alpha   92.53324127
_cell_angle_beta   90.00000000
_cell_angle_gamma   90.00000000
_symmetry_Int_Tables_number   1
_chemical_formula_structural   Li2NO4
_chemical_formula_sum   'Li2 N1 O4'
_cell_volume   62.35033268
_cell_formula_units_Z   1
loop_
 _symmetry_equiv_pos_site_id
 _symmetry_equiv_pos_as_xyz
  1  'x, y, z'
loop_
 _atom_site_type_symbol
 _atom_site_label
 _atom_site_symmetry_multiplicity
 _atom_site_fract_x
 _atom_site_fract_y
 _atom_site_fract_z
 _atom_site_occupancy
  Li  Li0  1  0.00000000  0.00000000  0.00000000  1
  Li  Li1  1  0.50000000  0.49999998  0.50000002  1
  N  N2  1  0.50000000  0.49999998  0.00000001  1
  O  O3  1  0.00000000  0.73861897  0.66502902  1
  O  O4  1  0.50000000  0.73907597  0.14325502  1
  O  O5  1  0.50000000  0.26092399  0.85674502  1
  O  O6  1  0.00000000  0.26138099  0.33497101  1
