# generated using pymatgen
data_Li2MnO4
_symmetry_space_group_name_H-M   'P 1'
_cell_length_a   5.83594227
_cell_length_b   5.83594227
_cell_length_c   5.83594227
_cell_angle_alpha   61.54419327
_cell_angle_beta   61.54419327
_cell_angle_gamma   61.54419327
_symmetry_Int_Tables_number   1
_chemical_formula_structural   Li2MnO4
_chemical_formula_sum   'Li4 Mn2 O8'
_cell_volume   145.41608389
_cell_formula_units_Z   2
loop_
 _symmetry_equiv_pos_site_id
 _symmetry_equiv_pos_as_xyz
  1  'x, y, z'
loop_
 _atom_site_type_symbol
 _atom_site_label
 _atom_site_symmetry_multiplicity
 _atom_site_fract_x
 _atom_site_fract_y
 _atom_site_fract_z
 _atom_site_occupancy
  Li  Li0  1  0.12427299  0.12427300  0.12427301  1
  Li  Li1  1  0.87572693  0.87572700  0.87572708  1
  Li  Li2  1  0.49999999  0.00000000  0.50000002  1
  Li  Li3  1  -0.00000003  0.50000000  0.50000003  1
  Mn  Mn4  1  0.49999996  0.50000000  0.00000004  1
  Mn  Mn5  1  0.49999996  0.50000000  0.50000005  1
  O  O6  1  0.26469798  0.26469800  0.26469802  1
  O  O7  1  0.26848698  0.26848700  0.70890303  1
  O  O8  1  0.70890297  0.26848700  0.26848704  1
  O  O9  1  0.26848696  0.70890300  0.26848705  1
  O  O10  1  0.73151297  0.29109700  0.73151305  1
  O  O11  1  0.29109696  0.73151300  0.73151305  1
  O  O12  1  0.73151295  0.73151300  0.29109706  1
  O  O13  1  0.73530195  0.73530200  0.73530207  1
