# generated using pymatgen
data_CdAg3Se2
_symmetry_space_group_name_H-M   'P 1'
_cell_length_a   4.66517782
_cell_length_b   4.66517830
_cell_length_c   11.27157307
_cell_angle_alpha   90.00000000
_cell_angle_beta   90.00000000
_cell_angle_gamma   120.00000000
_symmetry_Int_Tables_number   1
_chemical_formula_structural   CdAg3Se2
_chemical_formula_sum   'Cd1 Ag3 Se2'
_cell_volume   212.44749344
_cell_formula_units_Z   1
loop_
 _symmetry_equiv_pos_site_id
 _symmetry_equiv_pos_as_xyz
  1  'x, y, z'
loop_
 _atom_site_type_symbol
 _atom_site_label
 _atom_site_symmetry_multiplicity
 _atom_site_fract_x
 _atom_site_fract_y
 _atom_site_fract_z
 _atom_site_occupancy
  Cd  Cd0  1  0.66666671  0.33333334  0.33648400  1
  Ag  Ag1  1  0.00000000  0.00000000  0.00313500  1
  Ag  Ag2  1  0.33333337  0.66666668  0.66163600  1
  Ag  Ag3  1  0.00000000  0.00000000  0.74965300  1
  Se  Se4  1  0.33333337  0.66666668  0.40446200  1
  Se  Se5  1  0.66666671  0.33333334  0.09463000  1
