# generated using pymatgen
data_Y2SbO5
_symmetry_space_group_name_H-M   'P 1'
_cell_length_a   3.48349690
_cell_length_b   5.41251898
_cell_length_c   11.47968578
_cell_angle_alpha   90.00000000
_cell_angle_beta   90.00000000
_cell_angle_gamma   90.00000000
_symmetry_Int_Tables_number   1
_chemical_formula_structural   Y2SbO5
_chemical_formula_sum   'Y4 Sb2 O10'
_cell_volume   216.44365645
_cell_formula_units_Z   2
loop_
 _symmetry_equiv_pos_site_id
 _symmetry_equiv_pos_as_xyz
  1  'x, y, z'
loop_
 _atom_site_type_symbol
 _atom_site_label
 _atom_site_symmetry_multiplicity
 _atom_site_fract_x
 _atom_site_fract_y
 _atom_site_fract_z
 _atom_site_occupancy
  Y  Y0  1  0.25000001  0.40377200  0.56557801  1
  Y  Y1  1  0.25000001  0.09622800  0.06557800  1
  Y  Y2  1  0.75000002  0.59622800  0.43442201  1
  Sb  Sb3  1  0.75000002  0.90377200  0.93442202  1
  Y  Y4  1  0.25000001  0.45763000  0.86050102  1
  Sb  Sb5  1  0.25000001  0.04237000  0.36050101  1
  O  O6  1  0.75000002  0.54237000  0.13949900  1
  O  O7  1  0.75000002  0.95763000  0.63949901  1
  O  O8  1  0.25000001  0.75376700  0.52519901  1
  O  O9  1  0.25000001  0.74623300  0.02519900  1
  O  O10  1  0.75000002  0.24623300  0.47480101  1
  O  O11  1  0.75000002  0.25376700  0.97480102  1
  O  O12  1  0.25000001  0.19977600  0.70234201  1
  O  O13  1  0.25000001  0.30022400  0.20234200  1
  O  O14  1  0.75000002  0.80022400  0.29765801  1
  O  O15  1  0.75000002  0.69977600  0.79765802  1
