# generated using pymatgen
data_La2CeS4
_symmetry_space_group_name_H-M   'P 1'
_cell_length_a   7.52613497
_cell_length_b   7.52613497
_cell_length_c   7.52613497
_cell_angle_alpha   70.60799408
_cell_angle_beta   70.48915863
_cell_angle_gamma   109.51084137
_symmetry_Int_Tables_number   1
_chemical_formula_structural   La2CeS4
_chemical_formula_sum   'La4 Ce2 S8'
_cell_volume   328.16594144
_cell_formula_units_Z   2
loop_
 _symmetry_equiv_pos_site_id
 _symmetry_equiv_pos_as_xyz
  1  'x, y, z'
loop_
 _atom_site_type_symbol
 _atom_site_label
 _atom_site_symmetry_multiplicity
 _atom_site_fract_x
 _atom_site_fract_y
 _atom_site_fract_z
 _atom_site_occupancy
  La  La0  1  0.12267497  0.62155299  0.75440301  1
  La  La1  1  0.49999998  0.24999999  0.25000002  1
  La  La2  1  0.87732498  0.12292200  0.50112203  1
  La  La3  1  0.37595496  0.75440198  0.12292302  1
  Ce  Ce4  1  0.62404497  0.50112299  0.62155202  1
  Ce  Ce5  1  0.00000000  0.00000000  0.00000000  1
  S  S6  1  0.39406399  0.02418900  0.72694101  1
  S  S7  1  0.60593595  0.87899498  0.36987502  1
  S  S8  1  0.25027498  0.37577099  0.52448101  1
  S  S9  1  0.09974796  0.87450398  0.37577101  1
  S  S10  1  0.75112996  0.72694099  0.87899503  1
  S  S11  1  0.74972498  0.22524400  0.87450402  1
  S  S12  1  0.90025196  0.52448099  0.22524403  1
  S  S13  1  0.24886998  0.36987499  0.02418901  1
