# generated using pymatgen
data_MgCd
_symmetry_space_group_name_H-M   'P 1'
_cell_length_a   3.12537599
_cell_length_b   5.06918907
_cell_length_c   8.37524414
_cell_angle_alpha   90.00000000
_cell_angle_beta   100.75350952
_cell_angle_gamma   90.00000000
_symmetry_Int_Tables_number   1
_chemical_formula_structural   MgCd
_chemical_formula_sum   'Mg3 Cd3'
_cell_volume   130.35983978
_cell_formula_units_Z   3
loop_
 _symmetry_equiv_pos_site_id
 _symmetry_equiv_pos_as_xyz
  1  'x, y, z'
loop_
 _atom_site_type_symbol
 _atom_site_label
 _atom_site_symmetry_multiplicity
 _atom_site_fract_x
 _atom_site_fract_y
 _atom_site_fract_z
 _atom_site_occupancy
  Mg  Mg0  1  0.44481101  0.25000000  0.88962197  1
  Mg  Mg1  1  0.55518901  0.74999999  0.11037800  1
  Cd  Cd2  1  0.10882200  0.25000000  0.21764399  1
  Mg  Mg3  1  0.77933101  0.25000000  0.55866199  1
  Cd  Cd4  1  0.22066900  0.74999999  0.44133799  1
  Cd  Cd5  1  0.89117801  0.74999999  0.78235598  1
