# generated using pymatgen
data_Na2TiF6
_symmetry_space_group_name_H-M   'P 1'
_cell_length_a   3.60521507
_cell_length_b   6.08152390
_cell_length_c   6.08152390
_cell_angle_alpha   120.00000000
_cell_angle_beta   90.00000000
_cell_angle_gamma   90.00000000
_symmetry_Int_Tables_number   1
_chemical_formula_structural   Na2TiF6
_chemical_formula_sum   'Na2 Ti1 F6'
_cell_volume   115.47464739
_cell_formula_units_Z   1
loop_
 _symmetry_equiv_pos_site_id
 _symmetry_equiv_pos_as_xyz
  1  'x, y, z'
loop_
 _atom_site_type_symbol
 _atom_site_label
 _atom_site_symmetry_multiplicity
 _atom_site_fract_x
 _atom_site_fract_y
 _atom_site_fract_z
 _atom_site_occupancy
  Na  Na0  1  0.49999999  0.66666667  0.33333331  1
  Na  Na1  1  0.49999999  0.33333333  0.66666664  1
  Ti  Ti2  1  0.00000000  0.00000000  0.00000000  1
  F  F3  1  0.99999998  0.37464900  0.37464898  1
  F  F4  1  -0.00000000  1.00000000  0.62535096  1
  F  F5  1  -0.00000000  0.62535100  0.99999996  1
  F  F6  1  0.49999999  0.75129500  0.75129496  1
  F  F7  1  0.49999999  1.00000000  0.24870497  1
  F  F8  1  0.49999999  0.24870500  0.99999997  1
