# generated using pymatgen
data_DySiRh
_symmetry_space_group_name_H-M   'P 1'
_cell_length_a   4.36050606
_cell_length_b   7.04347277
_cell_length_c   7.10913420
_cell_angle_alpha   90.00000000
_cell_angle_beta   90.00000000
_cell_angle_gamma   90.00000000
_symmetry_Int_Tables_number   1
_chemical_formula_structural   DySiRh
_chemical_formula_sum   'Dy4 Si4 Rh4'
_cell_volume   218.34358980
_cell_formula_units_Z   4
loop_
 _symmetry_equiv_pos_site_id
 _symmetry_equiv_pos_as_xyz
  1  'x, y, z'
loop_
 _atom_site_type_symbol
 _atom_site_label
 _atom_site_symmetry_multiplicity
 _atom_site_fract_x
 _atom_site_fract_y
 _atom_site_fract_z
 _atom_site_occupancy
  Dy  Dy0  1  0.25000000  0.98358703  0.81455398  1
  Dy  Dy1  1  0.74999999  0.01641300  0.18544599  1
  Dy  Dy2  1  0.25000000  0.48358702  0.68544598  1
  Dy  Dy3  1  0.74999999  0.51641302  0.31455399  1
  Si  Si4  1  0.25000000  0.30592701  0.10556700  1
  Si  Si5  1  0.74999999  0.69407302  0.89443298  1
  Si  Si6  1  0.25000000  0.80592703  0.39443299  1
  Si  Si7  1  0.74999999  0.19407301  0.60556698  1
  Rh  Rh8  1  0.74999999  0.84765803  0.56789098  1
  Rh  Rh9  1  0.25000000  0.15234201  0.43210899  1
  Rh  Rh10  1  0.74999999  0.34765801  0.93210897  1
  Rh  Rh11  1  0.25000000  0.65234202  0.06789100  1
