# generated using pymatgen
data_BaBiO3
_symmetry_space_group_name_H-M   'P 1'
_cell_length_a   6.10526133
_cell_length_b   6.10526133
_cell_length_c   6.13553572
_cell_angle_alpha   90.30870819
_cell_angle_beta   119.49687958
_cell_angle_gamma   119.98462677
_symmetry_Int_Tables_number   1
_chemical_formula_structural   BaBiO3
_chemical_formula_sum   'Ba2 Bi2 O6'
_cell_volume   162.53883761
_cell_formula_units_Z   2
loop_
 _symmetry_equiv_pos_site_id
 _symmetry_equiv_pos_as_xyz
  1  'x, y, z'
loop_
 _atom_site_type_symbol
 _atom_site_label
 _atom_site_symmetry_multiplicity
 _atom_site_fract_x
 _atom_site_fract_y
 _atom_site_fract_z
 _atom_site_occupancy
  Ba  Ba0  1  0.99586501  0.24907100  0.24493598  1
  Ba  Ba1  1  0.00413498  0.75092901  0.75506400  1
  Bi  Bi2  1  0.50000000  0.50000001  -0.00000001  1
  Bi  Bi3  1  0.50000001  0.00000000  0.49999999  1
  O  O4  1  0.95995000  0.69942401  0.19472998  1
  O  O5  1  0.04004999  0.30057600  0.80527000  1
  O  O6  1  0.49530600  0.23478000  0.19472999  1
  O  O7  1  0.43974500  0.27086400  0.71060899  1
  O  O8  1  0.50469399  0.76522001  0.80526999  1
  O  O9  1  0.56025499  0.72913601  0.28939099  1
