# generated using pymatgen
data_LiMgNO3
_symmetry_space_group_name_H-M   'P 1'
_cell_length_a   3.94768405
_cell_length_b   3.94768405
_cell_length_c   5.67416668
_cell_angle_alpha   110.35676575
_cell_angle_beta   110.35676575
_cell_angle_gamma   90.00000000
_symmetry_Int_Tables_number   1
_chemical_formula_structural   LiMgNO3
_chemical_formula_sum   'Li1 Mg1 N1 O3'
_cell_volume   76.98672139
_cell_formula_units_Z   1
loop_
 _symmetry_equiv_pos_site_id
 _symmetry_equiv_pos_as_xyz
  1  'x, y, z'
loop_
 _atom_site_type_symbol
 _atom_site_label
 _atom_site_symmetry_multiplicity
 _atom_site_fract_x
 _atom_site_fract_y
 _atom_site_fract_z
 _atom_site_occupancy
  Li  Li0  1  0.75000002  0.25000000  0.50000006  1
  Mg  Mg1  1  0.00000000  0.00000000  0.00000000  1
  N  N2  1  0.54334701  0.04334700  0.08669403  1
  O  O3  1  0.20771601  0.20771600  0.41543203  1
  O  O4  1  0.95665303  0.45665301  0.91330608  1
  O  O5  1  0.79228404  0.79228401  0.58456809  1
