# generated using pymatgen
data_LiMnO3
_symmetry_space_group_name_H-M   'P 1'
_cell_length_a   5.22872210
_cell_length_b   5.60819340
_cell_length_c   7.60590506
_cell_angle_alpha   90.00000000
_cell_angle_beta   90.00000000
_cell_angle_gamma   91.11111450
_symmetry_Int_Tables_number   1
_chemical_formula_structural   LiMnO3
_chemical_formula_sum   'Li4 Mn4 O12'
_cell_volume   222.99122489
_cell_formula_units_Z   4
loop_
 _symmetry_equiv_pos_site_id
 _symmetry_equiv_pos_as_xyz
  1  'x, y, z'
loop_
 _atom_site_type_symbol
 _atom_site_label
 _atom_site_symmetry_multiplicity
 _atom_site_fract_x
 _atom_site_fract_y
 _atom_site_fract_z
 _atom_site_occupancy
  Li  Li0  1  0.97446892  0.92379402  -0.00000000  1
  Li  Li1  1  0.48075796  0.56808301  0.50000000  1
  Li  Li2  1  0.02724299  0.07649800  0.50000000  1
  Li  Li3  1  0.51690596  0.43625101  -0.00000000  1
  Mn  Mn4  1  0.49958799  0.00167700  0.75195099  1
  Mn  Mn5  1  0.00085097  0.49834701  0.24817700  1
  Mn  Mn6  1  0.49958799  0.00167700  0.24804900  1
  Mn  Mn7  1  0.00085097  0.49834701  0.75182299  1
  O  O8  1  0.81270097  0.18835200  0.81602399  1
  O  O9  1  0.68517394  0.68216001  0.17884000  1
  O  O10  1  0.18635995  0.81160902  0.31333200  1
  O  O11  1  0.30866797  0.30996301  0.68273599  1
  O  O12  1  0.18635995  0.81160902  0.68666799  1
  O  O13  1  0.30866797  0.30996301  0.31726400  1
  O  O14  1  0.81270097  0.18835200  0.18397600  1
  O  O15  1  0.68517394  0.68216001  0.82115999  1
  O  O16  1  0.37070599  0.06473600  0.99999999  1
  O  O17  1  0.14540696  0.55301101  -0.00000000  1
  O  O18  1  0.62933893  0.94594802  0.50000000  1
  O  O19  1  0.86848496  0.44746401  0.50000000  1
