# generated using pymatgen
data_LiNiO2
_symmetry_space_group_name_H-M   'P 1'
_cell_length_a   5.16549301
_cell_length_b   5.16552353
_cell_length_c   5.78231907
_cell_angle_alpha   89.99822998
_cell_angle_beta   89.99827576
_cell_angle_gamma   68.08792114
_symmetry_Int_Tables_number   1
_chemical_formula_structural   LiNiO2
_chemical_formula_sum   'Li4 Ni4 O8'
_cell_volume   143.14055473
_cell_formula_units_Z   4
loop_
 _symmetry_equiv_pos_site_id
 _symmetry_equiv_pos_as_xyz
  1  'x, y, z'
loop_
 _atom_site_type_symbol
 _atom_site_label
 _atom_site_symmetry_multiplicity
 _atom_site_fract_x
 _atom_site_fract_y
 _atom_site_fract_z
 _atom_site_occupancy
  Li  Li0  1  0.50000503  0.99999497  0.74999094  1
  Li  Li1  1  0.99998603  0.50001398  0.25000695  1
  Li  Li2  1  0.50000902  0.50000098  0.99923296  1
  Li  Li3  1  0.99999804  0.99999197  0.50076893  1
  Ni  Ni4  1  0.49998401  0.00001600  0.24998798  1
  Ni  Ni5  1  0.99996003  0.50003898  0.75001194  1
  Ni  Ni6  1  0.00002502  0.99999397  0.99960396  1
  Ni  Ni7  1  0.50000802  0.49997598  0.50039596  1
  O  O8  1  0.76800102  0.26769899  0.75014196  1
  O  O9  1  0.26603802  0.76633297  0.24985196  1
  O  O10  1  0.23230302  0.73199697  0.74983696  1
  O  O11  1  0.73366902  0.23395999  0.25016796  1
  O  O12  1  0.72857703  0.72882497  0.50018295  1
  O  O13  1  0.22887201  0.22861299  0.99982797  1
  O  O14  1  0.77116303  0.77140697  0.99981694  1
  O  O15  1  0.27140301  0.27113999  0.50017198  1
