# generated using pymatgen
data_Cu2O
_symmetry_space_group_name_H-M   'P 1'
_cell_length_a   4.08843279
_cell_length_b   5.25806713
_cell_length_c   12.46215916
_cell_angle_alpha   100.86946869
_cell_angle_beta   90.00000000
_cell_angle_gamma   90.00000000
_symmetry_Int_Tables_number   1
_chemical_formula_structural   Cu2O
_chemical_formula_sum   'Cu10 O5'
_cell_volume   263.09585845
_cell_formula_units_Z   5
loop_
 _symmetry_equiv_pos_site_id
 _symmetry_equiv_pos_as_xyz
  1  'x, y, z'
loop_
 _atom_site_type_symbol
 _atom_site_label
 _atom_site_symmetry_multiplicity
 _atom_site_fract_x
 _atom_site_fract_y
 _atom_site_fract_z
 _atom_site_occupancy
  Cu  Cu0  1  0.50000003  0.62773298  0.29101299  1
  Cu  Cu1  1  1.00000005  0.12658100  0.78567599  1
  Cu  Cu2  1  1.00000005  0.87341897  0.21432400  1
  Cu  Cu3  1  0.50000003  0.37226699  0.70898699  1
  Cu  Cu4  1  0.00000000  0.00000000  0.00000000  1
  Cu  Cu5  1  0.50000003  0.49999998  0.49999999  1
  Cu  Cu6  1  -0.00000000  0.49999998  -0.00000000  1
  O  O7  1  0.50000003  0.14239299  0.33183000  1
  Cu  Cu8  1  1.00000005  0.64649997  0.81671099  1
  Cu  Cu9  1  -0.00000000  0.35349999  0.18328900  1
  Cu  Cu10  1  0.50000003  0.85760697  0.66816999  1
  O  O11  1  0.50000003  0.77930197  0.07961300  1
  O  O12  1  1.00000005  0.25750399  0.56966099  1
  O  O13  1  -0.00000000  0.74249597  0.43033899  1
  O  O14  1  0.50000003  0.22069799  0.92038699  1
