# generated using pymatgen
data_La(Ge3Ir)4
_symmetry_space_group_name_H-M   'P 1'
_cell_length_a   7.55665016
_cell_length_b   7.55665016
_cell_length_c   7.55665016
_cell_angle_alpha   109.47122192
_cell_angle_beta   109.47122192
_cell_angle_gamma   109.47122192
_symmetry_Int_Tables_number   1
_chemical_formula_structural   La(Ge3Ir)4
_chemical_formula_sum   'La1 Ge12 Ir4'
_cell_volume   332.17430808
_cell_formula_units_Z   1
loop_
 _symmetry_equiv_pos_site_id
 _symmetry_equiv_pos_as_xyz
  1  'x, y, z'
loop_
 _atom_site_type_symbol
 _atom_site_label
 _atom_site_symmetry_multiplicity
 _atom_site_fract_x
 _atom_site_fract_y
 _atom_site_fract_z
 _atom_site_occupancy
  La  La0  1  0.00000000  0.00000000  0.00000000  1
  Ge  Ge1  1  0.84918403  0.35398401  0.20316804  1
  Ge  Ge2  1  0.84918405  0.64601502  0.49520006  1
  Ge  Ge3  1  0.79683101  0.15081501  0.64601503  1
  Ge  Ge4  1  0.64601605  0.79683203  0.15081606  1
  Ge  Ge5  1  0.64601604  0.49520002  0.84918504  1
  Ge  Ge6  1  0.50480001  0.15081601  0.35398402  1
  Ge  Ge7  1  0.49520006  0.84918403  0.64601606  1
  Ge  Ge8  1  0.35398403  0.50480002  0.15081504  1
  Ge  Ge9  1  0.35398402  0.20316801  0.84918402  1
  Ge  Ge10  1  0.20316906  0.84918503  0.35398505  1
  Ge  Ge11  1  0.15081602  0.35398501  0.50480002  1
  Ge  Ge12  1  0.15081604  0.64601602  0.79683204  1
  Ir  Ir13  1  0.00000000  0.00000000  0.50000000  1
  Ir  Ir14  1  0.00000003  0.50000002  0.00000003  1
  Ir  Ir15  1  0.50000004  0.50000002  0.50000004  1
  Ir  Ir16  1  0.50000007  1.00000004  0.00000007  1
