# generated using pymatgen
data_Cu2Ni5PS9
_symmetry_space_group_name_H-M   'P 1'
_cell_length_a   7.24822330
_cell_length_b   7.24822330
_cell_length_c   7.24822330
_cell_angle_alpha   60.00000000
_cell_angle_beta   60.00000000
_cell_angle_gamma   60.00000000
_symmetry_Int_Tables_number   1
_chemical_formula_structural   Cu2Ni5PS9
_chemical_formula_sum   'Cu2 Ni5 P1 S9'
_cell_volume   269.26487000
_cell_formula_units_Z   1
loop_
 _symmetry_equiv_pos_site_id
 _symmetry_equiv_pos_as_xyz
  1  'x, y, z'
loop_
 _atom_site_type_symbol
 _atom_site_label
 _atom_site_symmetry_multiplicity
 _atom_site_fract_x
 _atom_site_fract_y
 _atom_site_fract_z
 _atom_site_occupancy
  Cu  Cu0  1  0.24951901  0.75048102  0.24951901  1
  Cu  Cu1  1  0.75048102  0.24951901  0.75048102  1
  Ni  Ni2  1  0.24951901  0.75048102  0.75048102  1
  Ni  Ni3  1  0.75048102  0.24951901  0.24951901  1
  Ni  Ni4  1  0.24951901  0.24951901  0.75048102  1
  Ni  Ni5  1  0.75048102  0.75048102  0.24951901  1
  Ni  Ni6  1  0.75000002  0.75000002  0.75000002  1
  P  P7  1  0.25000001  0.25000001  0.25000001  1
  S  S8  1  0.00000000  0.00000000  0.00000000  1
  S  S9  1  0.05872500  0.64709102  0.64709202  1
  S  S10  1  0.94127603  0.35290801  0.35290801  1
  S  S11  1  0.64709102  0.05872500  0.64709202  1
  S  S12  1  0.64709102  0.64709202  0.64709202  1
  S  S13  1  0.35290801  0.94127503  0.35290901  1
  S  S14  1  0.35290901  0.35290801  0.35290801  1
  S  S15  1  0.64709102  0.64709202  0.05872500  1
  S  S16  1  0.35290901  0.35290801  0.94127503  1
