# generated using pymatgen
data_Ag2O
_symmetry_space_group_name_H-M   'P 1'
_cell_length_a   5.65046597
_cell_length_b   5.90777779
_cell_length_c   5.65046597
_cell_angle_alpha   118.56938171
_cell_angle_beta   90.00000000
_cell_angle_gamma   118.56938171
_symmetry_Int_Tables_number   1
_chemical_formula_structural   Ag2O
_chemical_formula_sum   'Ag4 O2'
_cell_volume   138.94249290
_cell_formula_units_Z   2
loop_
 _symmetry_equiv_pos_site_id
 _symmetry_equiv_pos_as_xyz
  1  'x, y, z'
loop_
 _atom_site_type_symbol
 _atom_site_label
 _atom_site_symmetry_multiplicity
 _atom_site_fract_x
 _atom_site_fract_y
 _atom_site_fract_z
 _atom_site_occupancy
  Ag  Ag0  1  0.00000000  0.00000000  0.00000000  1
  Ag  Ag1  1  0.24999998  0.49999997  0.74999998  1
  Ag  Ag2  1  0.62499996  0.74999995  0.08828196  1
  Ag  Ag3  1  0.33828199  0.24999998  0.37499999  1
  O  O4  1  0.91171799  0.24999998  0.87499999  1
  O  O5  1  0.12499996  0.74999995  0.66171796  1
