# generated using pymatgen
data_VO2
_symmetry_space_group_name_H-M   'P 1'
_cell_length_a   4.92218590
_cell_length_b   5.12072039
_cell_length_c   8.55739498
_cell_angle_alpha   75.44055939
_cell_angle_beta   73.28577423
_cell_angle_gamma   61.27444839
_symmetry_Int_Tables_number   1
_chemical_formula_structural   VO2
_chemical_formula_sum   'V4 O8'
_cell_volume   179.50273913
_cell_formula_units_Z   4
loop_
 _symmetry_equiv_pos_site_id
 _symmetry_equiv_pos_as_xyz
  1  'x, y, z'
loop_
 _atom_site_type_symbol
 _atom_site_label
 _atom_site_symmetry_multiplicity
 _atom_site_fract_x
 _atom_site_fract_y
 _atom_site_fract_z
 _atom_site_occupancy
  V  V0  1  0.32623600  0.43778899  0.18685002  1
  V  V1  1  0.67376400  0.56221098  0.81315006  1
  V  V2  1  0.04912499  0.93778897  0.68685004  1
  V  V3  1  0.95087500  0.06221100  0.31315004  1
  O  O4  1  0.17107000  0.21739099  0.19100702  1
  O  O5  1  0.57946800  0.28260899  0.30899303  1
  O  O6  1  0.95533800  0.24999999  0.75000006  1
  O  O7  1  0.04466199  0.74999998  0.25000002  1
  O  O8  1  0.82892999  0.78260898  0.80899307  1
  O  O9  1  0.42053199  0.71739098  0.69100705  1
  O  O10  1  0.50000000  0.49999998  1.00000006  1
  O  O11  1  0.00000000  0.00000000  0.50000002  1
