# generated using pymatgen
data_Na2CeO2
_symmetry_space_group_name_H-M   'P 1'
_cell_length_a   3.71271992
_cell_length_b   5.46997976
_cell_length_c   6.52421761
_cell_angle_alpha   114.78445435
_cell_angle_beta   106.53098297
_cell_angle_gamma   90.00000000
_symmetry_Int_Tables_number   1
_chemical_formula_structural   Na2CeO2
_chemical_formula_sum   'Na2 Ce1 O2'
_cell_volume   114.23270759
_cell_formula_units_Z   1
loop_
 _symmetry_equiv_pos_site_id
 _symmetry_equiv_pos_as_xyz
  1  'x, y, z'
loop_
 _atom_site_type_symbol
 _atom_site_label
 _atom_site_symmetry_multiplicity
 _atom_site_fract_x
 _atom_site_fract_y
 _atom_site_fract_z
 _atom_site_occupancy
  Na  Na0  1  0.16015901  0.16789600  0.32031800  1
  Na  Na1  1  0.83984105  0.84757802  0.67968200  1
  Ce  Ce2  1  0.66623704  0.91055902  0.33247499  1
  O  O3  1  0.33376202  0.57808401  0.66752399  1
  O  O4  1  1.00000004  0.24588300  1.00000004  1
