# generated using pymatgen
data_SmInPd
_symmetry_space_group_name_H-M   'P 1'
_cell_length_a   3.76097012
_cell_length_b   7.87127590
_cell_length_c   7.87127590
_cell_angle_alpha   120.00000000
_cell_angle_beta   90.00000000
_cell_angle_gamma   90.00000000
_symmetry_Int_Tables_number   1
_chemical_formula_structural   SmInPd
_chemical_formula_sum   'Sm3 In3 Pd3'
_cell_volume   201.79982493
_cell_formula_units_Z   3
loop_
 _symmetry_equiv_pos_site_id
 _symmetry_equiv_pos_as_xyz
  1  'x, y, z'
loop_
 _atom_site_type_symbol
 _atom_site_label
 _atom_site_symmetry_multiplicity
 _atom_site_fract_x
 _atom_site_fract_y
 _atom_site_fract_z
 _atom_site_occupancy
  Sm  Sm0  1  0.99999997  0.40027801  1.00000002  1
  Sm  Sm1  1  -0.00000000  0.59972201  0.59972201  1
  Sm  Sm2  1  0.00000000  0.00000000  0.40027801  1
  In  In3  1  0.49999998  0.73054201  1.00000002  1
  In  In4  1  0.49999998  0.26945800  0.26945800  1
  In  In5  1  0.49999998  0.00000000  0.73054201  1
  Pd  Pd6  1  0.49999998  0.33333334  0.66666668  1
  Pd  Pd7  1  0.49999998  0.66666668  0.33333334  1
  Pd  Pd8  1  0.00000000  0.00000000  0.00000000  1
