# generated using pymatgen
data_KZrAgS3
_symmetry_space_group_name_H-M   'P 1'
_cell_length_a   3.90731597
_cell_length_b   7.72837782
_cell_length_c   10.24176788
_cell_angle_alpha   90.00000000
_cell_angle_beta   90.00000000
_cell_angle_gamma   104.64268494
_symmetry_Int_Tables_number   1
_chemical_formula_structural   KZrAgS3
_chemical_formula_sum   'K2 Zr2 Ag2 S6'
_cell_volume   299.22801878
_cell_formula_units_Z   2
loop_
 _symmetry_equiv_pos_site_id
 _symmetry_equiv_pos_as_xyz
  1  'x, y, z'
loop_
 _atom_site_type_symbol
 _atom_site_label
 _atom_site_symmetry_multiplicity
 _atom_site_fract_x
 _atom_site_fract_y
 _atom_site_fract_z
 _atom_site_occupancy
  K  K0  1  0.74927306  0.49854602  0.25000000  1
  K  K1  1  0.25072706  0.50145402  0.75000001  1
  Zr  Zr2  1  0.00000000  0.00000000  0.00000000  1
  Zr  Zr3  1  0.00000000  0.00000000  0.50000001  1
  Ag  Ag4  1  0.46851311  0.93702604  0.25000000  1
  Ag  Ag5  1  0.53148701  0.06297400  0.75000001  1
  S  S6  1  0.37759809  0.75519603  0.05407700  1
  S  S7  1  0.93170911  0.86341803  0.75000001  1
  S  S8  1  0.62240203  0.24480401  0.55407701  1
  S  S9  1  0.62240203  0.24480401  0.94592301  1
  S  S10  1  0.37759809  0.75519603  0.44592301  1
  S  S11  1  0.06829102  0.13658201  0.25000000  1
