# generated using pymatgen
data_Sr2LaWO6
_symmetry_space_group_name_H-M   'P 1'
_cell_length_a   6.11110783
_cell_length_b   6.17061234
_cell_length_c   8.66719913
_cell_angle_alpha   90.22637177
_cell_angle_beta   90.42576599
_cell_angle_gamma   89.96346283
_symmetry_Int_Tables_number   1
_chemical_formula_structural   Sr2LaWO6
_chemical_formula_sum   'Sr4 La2 W2 O12'
_cell_volume   326.82218072
_cell_formula_units_Z   2
loop_
 _symmetry_equiv_pos_site_id
 _symmetry_equiv_pos_as_xyz
  1  'x, y, z'
loop_
 _atom_site_type_symbol
 _atom_site_label
 _atom_site_symmetry_multiplicity
 _atom_site_fract_x
 _atom_site_fract_y
 _atom_site_fract_z
 _atom_site_occupancy
  Sr  Sr0  1  0.50953001  0.53710494  0.24914920  1
  Sr  Sr1  1  0.49046996  0.46289506  0.75085076  1
  Sr  Sr2  1  -0.00000002  0.50000000  -0.00000001  1
  Sr  Sr3  1  0.50000000  0.00000000  0.49999999  1
  La  La4  1  0.99075134  0.04675488  0.25218791  1
  La  La5  1  0.00924863  0.95324512  0.74781205  1
  W  W6  1  0.50000000  0.00000000  0.00000001  1
  W  W7  1  -0.00000002  0.50000000  0.49999997  1
  O  O8  1  0.22418833  0.18748710  0.95440068  1
  O  O9  1  0.26471641  0.69976620  0.54075005  1
  O  O10  1  0.77581163  0.81251290  0.04559928  1
  O  O11  1  0.73528356  0.30023380  0.45924991  1
  O  O12  1  0.30335894  0.73321426  0.95713233  1
  O  O13  1  0.18302832  0.22214707  0.54399220  1
  O  O14  1  0.69664103  0.26678574  0.04286763  1
  O  O15  1  0.81697165  0.77785293  0.45600776  1
  O  O16  1  0.40644442  0.99109761  0.23068811  1
  O  O17  1  0.06858316  0.47093754  0.26849630  1
  O  O18  1  0.59355555  0.00890239  0.76931185  1
  O  O19  1  0.93141680  0.52906246  0.73150366  1
