# generated using pymatgen
data_Ba(CuAs)2
_symmetry_space_group_name_H-M   'P 1'
_cell_length_a   4.06681395
_cell_length_b   4.06681395
_cell_length_c   8.01639175
_cell_angle_alpha   104.69396973
_cell_angle_beta   104.69396973
_cell_angle_gamma   90.00000000
_symmetry_Int_Tables_number   1
_chemical_formula_structural   Ba(CuAs)2
_chemical_formula_sum   'Ba1 Cu2 As2'
_cell_volume   123.75867924
_cell_formula_units_Z   1
loop_
 _symmetry_equiv_pos_site_id
 _symmetry_equiv_pos_as_xyz
  1  'x, y, z'
loop_
 _atom_site_type_symbol
 _atom_site_label
 _atom_site_symmetry_multiplicity
 _atom_site_fract_x
 _atom_site_fract_y
 _atom_site_fract_z
 _atom_site_occupancy
  Ba  Ba0  1  0.00000000  0.00000000  0.00000000  1
  Cu  Cu1  1  0.34169700  0.34169700  0.68339397  1
  Cu  Cu2  1  0.65830300  0.65830301  0.31660598  1
  As  As3  1  0.75000001  0.25000000  0.49999998  1
  As  As4  1  0.25000000  0.75000001  0.49999998  1
