# generated using pymatgen
data_La2Pd3
_symmetry_space_group_name_H-M   'P 1'
_cell_length_a   3.94486094
_cell_length_b   7.81035614
_cell_length_c   7.81035614
_cell_angle_alpha   90.00000000
_cell_angle_beta   90.00000000
_cell_angle_gamma   90.00000000
_symmetry_Int_Tables_number   1
_chemical_formula_structural   La2Pd3
_chemical_formula_sum   'La4 Pd6'
_cell_volume   240.64307749
_cell_formula_units_Z   2
loop_
 _symmetry_equiv_pos_site_id
 _symmetry_equiv_pos_as_xyz
  1  'x, y, z'
loop_
 _atom_site_type_symbol
 _atom_site_label
 _atom_site_symmetry_multiplicity
 _atom_site_fract_x
 _atom_site_fract_y
 _atom_site_fract_z
 _atom_site_occupancy
  La  La0  1  0.50000001  0.83518899  0.66481099  1
  La  La1  1  0.50000001  0.33518899  0.83518899  1
  La  La2  1  0.50000001  0.16481100  0.33518899  1
  La  La3  1  0.50000001  0.66481099  0.16481100  1
  Pd  Pd4  1  0.00000000  0.49999999  0.49999999  1
  Pd  Pd5  1  0.00000000  0.00000000  0.00000000  1
  Pd  Pd6  1  0.00000000  0.13248000  0.63247999  1
  Pd  Pd7  1  0.00000000  0.63247999  0.86751998  1
  Pd  Pd8  1  -0.00000000  0.36751999  0.13248000  1
  Pd  Pd9  1  0.00000000  0.86751998  0.36751999  1
