# generated using pymatgen
data_MnO2
_symmetry_space_group_name_H-M   'P 1'
_cell_length_a   5.69074583
_cell_length_b   5.69074583
_cell_length_c   5.69074583
_cell_angle_alpha   106.48286438
_cell_angle_beta   106.48286438
_cell_angle_gamma   115.62904358
_symmetry_Int_Tables_number   1
_chemical_formula_structural   MnO2
_chemical_formula_sum   'Mn4 O8'
_cell_volume   140.62635859
_cell_formula_units_Z   4
loop_
 _symmetry_equiv_pos_site_id
 _symmetry_equiv_pos_as_xyz
  1  'x, y, z'
loop_
 _atom_site_type_symbol
 _atom_site_label
 _atom_site_symmetry_multiplicity
 _atom_site_fract_x
 _atom_site_fract_y
 _atom_site_fract_z
 _atom_site_occupancy
  Mn  Mn0  1  0.23454702  0.73454701  0.49999999  1
  Mn  Mn1  1  0.48454702  0.48454701  -0.00000002  1
  Mn  Mn2  1  0.75247201  0.25247200  0.49999998  1
  Mn  Mn3  1  0.00247200  0.00247200  -0.00000000  1
  O  O4  1  0.54999602  0.74439701  0.80559798  1
  O  O5  1  0.05629601  0.26209300  0.79420300  1
  O  O6  1  0.49439802  0.79999701  0.30559897  1
  O  O7  1  0.01209301  0.30629601  0.29420400  1
  O  O8  1  0.01209302  0.71789001  0.70579699  1
  O  O9  1  0.49439801  0.18879900  0.69440199  1
  O  O10  1  0.93879902  0.74439801  0.19440096  1
  O  O11  1  0.46788901  0.26209200  0.20579598  1
