# generated using pymatgen
data_Dy2GaCo2
_symmetry_space_group_name_H-M   'P 1'
_cell_length_a   3.99288011
_cell_length_b   5.47190237
_cell_length_c   5.47190237
_cell_angle_alpha   63.51800156
_cell_angle_beta   68.60146332
_cell_angle_gamma   68.60146332
_symmetry_Int_Tables_number   1
_chemical_formula_structural   Dy2GaCo2
_chemical_formula_sum   'Dy2 Ga1 Co2'
_cell_volume   96.65689505
_cell_formula_units_Z   1
loop_
 _symmetry_equiv_pos_site_id
 _symmetry_equiv_pos_as_xyz
  1  'x, y, z'
loop_
 _atom_site_type_symbol
 _atom_site_label
 _atom_site_symmetry_multiplicity
 _atom_site_fract_x
 _atom_site_fract_y
 _atom_site_fract_z
 _atom_site_occupancy
  Dy  Dy0  1  0.21118699  0.28881299  0.28881300  1
  Dy  Dy1  1  0.78881298  0.71118697  0.71118700  1
  Ga  Ga2  1  0.00000000  0.00000000  0.00000000  1
  Co  Co3  1  0.49999999  0.28927999  0.71071999  1
  Co  Co4  1  0.49999999  0.71071997  0.28928001  1
