# generated using pymatgen
data_Bi3Sb2
_symmetry_space_group_name_H-M   'P 1'
_cell_length_a   4.58053780
_cell_length_b   4.58053780
_cell_length_c   18.71994781
_cell_angle_alpha   82.97261047
_cell_angle_beta   82.97261047
_cell_angle_gamma   60.00000000
_symmetry_Int_Tables_number   1
_chemical_formula_structural   Bi3Sb2
_chemical_formula_sum   'Bi6 Sb4'
_cell_volume   336.73689059
_cell_formula_units_Z   2
loop_
 _symmetry_equiv_pos_site_id
 _symmetry_equiv_pos_as_xyz
  1  'x, y, z'
loop_
 _atom_site_type_symbol
 _atom_site_label
 _atom_site_symmetry_multiplicity
 _atom_site_fract_x
 _atom_site_fract_y
 _atom_site_fract_z
 _atom_site_occupancy
  Bi  Bi0  1  0.00000000  0.00000000  0.00000000  1
  Bi  Bi1  1  0.69481400  0.69481403  0.91555801  1
  Bi  Bi2  1  0.50000000  0.50000002  0.50000000  1
  Bi  Bi3  1  0.09773800  0.09773800  0.70678601  1
  Bi  Bi4  1  0.30518600  0.30518601  0.08444200  1
  Bi  Bi5  1  0.90226199  0.90226203  0.29321399  1
  Sb  Sb6  1  0.60354800  0.60354802  0.18935599  1
  Sb  Sb7  1  0.20109100  0.20109101  0.39672700  1
  Sb  Sb8  1  0.79890900  0.79890903  0.60327300  1
  Sb  Sb9  1  0.39645200  0.39645201  0.81064401  1
