# generated using pymatgen
data_Mn2CoCu4S9
_symmetry_space_group_name_H-M   'P 1'
_cell_length_a   5.92414999
_cell_length_b   5.97685957
_cell_length_c   8.14607525
_cell_angle_alpha   68.67570496
_cell_angle_beta   70.24705505
_cell_angle_gamma   72.60187531
_symmetry_Int_Tables_number   1
_chemical_formula_structural   Mn2CoCu4S9
_chemical_formula_sum   'Mn2 Co1 Cu4 S9'
_cell_volume   247.72338086
_cell_formula_units_Z   1
loop_
 _symmetry_equiv_pos_site_id
 _symmetry_equiv_pos_as_xyz
  1  'x, y, z'
loop_
 _atom_site_type_symbol
 _atom_site_label
 _atom_site_symmetry_multiplicity
 _atom_site_fract_x
 _atom_site_fract_y
 _atom_site_fract_z
 _atom_site_occupancy
  Mn  Mn0  1  0.82955501  0.08230900  0.31871400  1
  Mn  Mn1  1  0.17044498  0.91769101  0.68128602  1
  Cu  Cu2  1  0.19300799  0.52860900  0.44775701  1
  Cu  Cu3  1  0.80699200  0.47139100  0.55224300  1
  Cu  Cu4  1  0.33980800  0.21743200  0.65763801  1
  Co  Co5  1  0.66019199  0.78256801  0.34236200  1
  Cu  Cu6  1  0.67808299  0.66366301  0.76557101  1
  S  S7  1  0.32191700  0.33633700  0.23442900  1
  S  S8  1  0.68208000  0.05278000  0.94105402  1
  S  S9  1  0.31791998  0.94722001  0.05894600  1
  S  S10  1  0.15235999  0.31708700  0.91472802  1
  S  S11  1  0.84763999  0.68291301  0.08527199  1
  S  S12  1  0.27688799  0.63393901  0.95597602  1
  S  S13  1  0.72311200  0.36606100  0.04402399  1
  S  S14  1  0.22764398  0.93054601  0.37196201  1
  S  S15  1  0.77235601  0.06945400  0.62803801  1
