# generated using pymatgen
data_La2UFe8C5O
_symmetry_space_group_name_H-M   'P 1'
_cell_length_a   3.82763410
_cell_length_b   3.84502387
_cell_length_c   15.79113007
_cell_angle_alpha   90.13949585
_cell_angle_beta   90.00000000
_cell_angle_gamma   90.00000000
_symmetry_Int_Tables_number   1
_chemical_formula_structural   La2UFe8C5O
_chemical_formula_sum   'La2 U1 Fe8 C5 O1'
_cell_volume   232.40281191
_cell_formula_units_Z   1
loop_
 _symmetry_equiv_pos_site_id
 _symmetry_equiv_pos_as_xyz
  1  'x, y, z'
loop_
 _atom_site_type_symbol
 _atom_site_label
 _atom_site_symmetry_multiplicity
 _atom_site_fract_x
 _atom_site_fract_y
 _atom_site_fract_z
 _atom_site_occupancy
  La  La0  1  0.49999999  0.51267999  0.83629100  1
  La  La1  1  0.49999999  0.51210499  0.16880900  1
  Fe  Fe2  1  0.49999999  0.50188499  0.60344700  1
  Fe  Fe3  1  0.49999999  0.50170199  0.39190000  1
  U  U4  1  0.00000000  0.07910900  0.00624400  1
  Fe  Fe5  1  -0.00000000  0.00473200  0.70584300  1
  Fe  Fe6  1  -0.00000000  0.00462100  0.28408100  1
  Fe  Fe7  1  0.00000000  0.00049500  0.49882400  1
  C  C8  1  0.00000000  0.00724400  0.87308899  1
  Fe  Fe9  1  0.00000000  0.00066600  0.14064000  1
  C  C10  1  0.00000000  0.50436999  0.69640400  1
  C  C11  1  0.49999999  0.00414400  0.69575300  1
  Fe  Fe12  1  0.00000000  0.50431599  0.29652400  1
  Fe  Fe13  1  0.49999999  0.00295100  0.29740000  1
  C  C14  1  0.49999999  0.44207599  0.01037300  1
  O  O15  1  0.00000000  0.50038399  0.49717400  1
  C  C16  1  0.49999999  0.00052100  0.49720400  1
