# generated using pymatgen
data_V2O5
_symmetry_space_group_name_H-M   'P 1'
_cell_length_a   5.50455904
_cell_length_b   5.53575897
_cell_length_c   8.00070858
_cell_angle_alpha   105.96769714
_cell_angle_beta   99.19431305
_cell_angle_gamma   110.34992218
_symmetry_Int_Tables_number   1
_chemical_formula_structural   V2O5
_chemical_formula_sum   'V4 O10'
_cell_volume   210.75230006
_cell_formula_units_Z   2
loop_
 _symmetry_equiv_pos_site_id
 _symmetry_equiv_pos_as_xyz
  1  'x, y, z'
loop_
 _atom_site_type_symbol
 _atom_site_label
 _atom_site_symmetry_multiplicity
 _atom_site_fract_x
 _atom_site_fract_y
 _atom_site_fract_z
 _atom_site_occupancy
  V  V0  1  0.48283103  0.73744600  0.25359000  1
  V  V1  1  0.51246202  0.25966700  0.74665701  1
  V  V2  1  0.99618105  0.99809200  0.00078101  1
  V  V3  1  0.99983404  0.49913500  0.50015401  1
  O  O4  1  0.81685504  0.56623500  0.74972101  1
  O  O5  1  0.17850002  0.42909100  0.25135700  1
  O  O6  1  0.27110802  0.40683500  0.63177800  1
  O  O7  1  0.77426502  0.13813900  0.86749001  1
  O  O8  1  0.32278601  0.22929200  0.93518101  1
  O  O9  1  0.29895303  0.88736200  0.56015900  1
  O  O10  1  0.66865204  0.76438600  0.06454500  1
  O  O11  1  0.69887602  0.11115400  0.43911401  1
  O  O12  1  0.21915303  0.85809900  0.13387400  1
  O  O13  1  0.72485604  0.59261900  0.36895501  1
