# generated using pymatgen
data_Ce4Y
_symmetry_space_group_name_H-M   'P 1'
_cell_length_a   3.49824524
_cell_length_b   3.49824524
_cell_length_c   15.03114891
_cell_angle_alpha   83.31755829
_cell_angle_beta   83.31755829
_cell_angle_gamma   60.00001144
_symmetry_Int_Tables_number   1
_chemical_formula_structural   Ce4Y
_chemical_formula_sum   'Ce4 Y1'
_cell_volume   157.85813885
_cell_formula_units_Z   1
loop_
 _symmetry_equiv_pos_site_id
 _symmetry_equiv_pos_as_xyz
  1  'x, y, z'
loop_
 _atom_site_type_symbol
 _atom_site_label
 _atom_site_symmetry_multiplicity
 _atom_site_fract_x
 _atom_site_fract_y
 _atom_site_fract_z
 _atom_site_occupancy
  Ce  Ce0  1  0.60023501  0.60023502  0.19929501  1
  Ce  Ce1  1  0.20023400  0.20023401  0.39929801  1
  Ce  Ce2  1  0.79976601  0.79976603  0.60070201  1
  Ce  Ce3  1  0.39976500  0.39976502  0.80070501  1
  Y  Y4  1  0.00000000  0.00000000  0.00000000  1
