# generated using pymatgen
data_Te
_symmetry_space_group_name_H-M   'P 1'
_cell_length_a   3.35892630
_cell_length_b   4.68864155
_cell_length_c   4.68864155
_cell_angle_alpha   83.84435272
_cell_angle_beta   73.78985596
_cell_angle_gamma   73.78985596
_symmetry_Int_Tables_number   1
_chemical_formula_structural   Te
_chemical_formula_sum   Te2
_cell_volume   68.05164648
_cell_formula_units_Z   2
loop_
 _symmetry_equiv_pos_site_id
 _symmetry_equiv_pos_as_xyz
  1  'x, y, z'
loop_
 _atom_site_type_symbol
 _atom_site_label
 _atom_site_symmetry_multiplicity
 _atom_site_fract_x
 _atom_site_fract_y
 _atom_site_fract_z
 _atom_site_occupancy
  Te  Te0  1  0.85738200  0.24693901  0.24693902  1
  Te  Te1  1  0.14261800  0.75306102  0.75306105  1
