# generated using pymatgen
data_Sr2CoGe7
_symmetry_space_group_name_H-M   'P 1'
_cell_length_a   6.23273277
_cell_length_b   6.23273277
_cell_length_c   7.18730640
_cell_angle_alpha   103.51451874
_cell_angle_beta   103.51451874
_cell_angle_gamma   117.45386505
_symmetry_Int_Tables_number   1
_chemical_formula_structural   Sr2CoGe7
_chemical_formula_sum   'Sr2 Co1 Ge7'
_cell_volume   221.23677374
_cell_formula_units_Z   1
loop_
 _symmetry_equiv_pos_site_id
 _symmetry_equiv_pos_as_xyz
  1  'x, y, z'
loop_
 _atom_site_type_symbol
 _atom_site_label
 _atom_site_symmetry_multiplicity
 _atom_site_fract_x
 _atom_site_fract_y
 _atom_site_fract_z
 _atom_site_occupancy
  Sr  Sr0  1  0.49999994  0.49999996  -0.00000007  1
  Sr  Sr1  1  0.74999996  0.24999998  0.49999995  1
  Ge  Ge2  1  0.17684192  0.82315794  -0.00000008  1
  Co  Co3  1  0.82315796  0.17684199  -0.00000006  1
  Ge  Ge4  1  0.07315792  0.92684193  0.49999993  1
  Ge  Ge5  1  0.42684194  0.57315796  0.49999994  1
  Ge  Ge6  1  0.87704690  0.87704694  0.75409389  1
  Ge  Ge7  1  0.12295299  0.12295299  0.24590599  1
  Ge  Ge8  1  0.12704694  0.62704695  0.25409394  1
  Ge  Ge9  1  0.37295291  0.87295294  0.74590592  1
