# generated using pymatgen
data_VFeMo
_symmetry_space_group_name_H-M   'P 1'
_cell_length_a   2.64946318
_cell_length_b   2.64946318
_cell_length_c   6.42225742
_cell_angle_alpha   97.69023132
_cell_angle_beta   97.69023132
_cell_angle_gamma   110.56428528
_symmetry_Int_Tables_number   1
_chemical_formula_structural   VFeMo
_chemical_formula_sum   'V1 Fe1 Mo1'
_cell_volume   41.02771225
_cell_formula_units_Z   1
loop_
 _symmetry_equiv_pos_site_id
 _symmetry_equiv_pos_as_xyz
  1  'x, y, z'
loop_
 _atom_site_type_symbol
 _atom_site_label
 _atom_site_symmetry_multiplicity
 _atom_site_fract_x
 _atom_site_fract_y
 _atom_site_fract_z
 _atom_site_occupancy
  Fe  Fe0  1  0.65938502  0.65938500  0.31877097  1
  V  V1  1  0.00427000  0.00427000  0.00854000  1
  Mo  Mo2  1  0.33634601  0.33634600  0.67268997  1
