# generated using pymatgen
data_Li2PO4
_symmetry_space_group_name_H-M   'P 1'
_cell_length_a   4.99089718
_cell_length_b   4.99089813
_cell_length_c   6.76212406
_cell_angle_alpha   90.01390839
_cell_angle_beta   90.01392365
_cell_angle_gamma   64.90553284
_symmetry_Int_Tables_number   1
_chemical_formula_structural   Li2PO4
_chemical_formula_sum   'Li4 P2 O8'
_cell_volume   152.53922594
_cell_formula_units_Z   2
loop_
 _symmetry_equiv_pos_site_id
 _symmetry_equiv_pos_as_xyz
  1  'x, y, z'
loop_
 _atom_site_type_symbol
 _atom_site_label
 _atom_site_symmetry_multiplicity
 _atom_site_fract_x
 _atom_site_fract_y
 _atom_site_fract_z
 _atom_site_occupancy
  Li  Li0  1  0.68663393  0.68663804  0.25001602  1
  Li  Li1  1  0.31335097  0.31335502  0.74998201  1
  Li  Li2  1  0.99999295  0.00013300  0.50001798  1
  Li  Li3  1  0.00008694  0.99990007  0.00000105  1
  P  P4  1  0.66311693  0.66312004  0.74999502  1
  P  P5  1  0.33687396  0.33687702  0.24999801  1
  O  O6  1  0.31378794  0.79029905  0.74998403  1
  O  O7  1  0.20969095  0.68620004  0.25001403  1
  O  O8  1  0.68619596  0.20969501  0.25001699  1
  O  O9  1  0.79029494  0.31379202  0.74998100  1
  O  O10  1  0.76796892  0.76797405  0.56493302  1
  O  O11  1  0.23202298  0.23202802  0.43506501  1
  O  O12  1  0.76795192  0.76795605  0.93502702  1
  O  O13  1  0.23202898  0.23203302  0.06497001  1
