# generated using pymatgen
data_La2Ge7Pt3
_symmetry_space_group_name_H-M   'P 1'
_cell_length_a   4.19294119
_cell_length_b   5.26538086
_cell_length_c   9.07530403
_cell_angle_alpha   90.59119415
_cell_angle_beta   90.00000000
_cell_angle_gamma   90.00000000
_symmetry_Int_Tables_number   1
_chemical_formula_structural   La2Ge7Pt3
_chemical_formula_sum   'La2 Ge7 Pt3'
_cell_volume   200.34874444
_cell_formula_units_Z   1
loop_
 _symmetry_equiv_pos_site_id
 _symmetry_equiv_pos_as_xyz
  1  'x, y, z'
loop_
 _atom_site_type_symbol
 _atom_site_label
 _atom_site_symmetry_multiplicity
 _atom_site_fract_x
 _atom_site_fract_y
 _atom_site_fract_z
 _atom_site_occupancy
  La  La0  1  0.00000000  0.74967302  0.74917000  1
  La  La1  1  0.00000000  0.25032701  0.25083000  1
  Ge  Ge2  1  0.49999998  0.25505801  0.74458100  1
  Ge  Ge3  1  0.49999998  0.74494202  0.25541900  1
  Ge  Ge4  1  0.49999998  0.00000000  -0.00000000  1
  Ge  Ge5  1  0.99999995  0.74870102  0.08305800  1
  Ge  Ge6  1  0.99999995  0.24983901  0.58266000  1
  Ge  Ge7  1  0.00000000  0.25129901  0.91694201  1
  Ge  Ge8  1  0.00000000  0.75016102  0.41734000  1
  Pt  Pt9  1  0.49999998  0.50000001  0.50000000  1
  Pt  Pt10  1  0.49999998  0.50000001  1.00000001  1
  Pt  Pt11  1  0.49999998  0.00000000  0.50000000  1
