# generated using pymatgen
data_SrSbS2
_symmetry_space_group_name_H-M   'P 1'
_cell_length_a   4.54480886
_cell_length_b   4.54480886
_cell_length_c   12.78499317
_cell_angle_alpha   90.00000000
_cell_angle_beta   90.00000000
_cell_angle_gamma   90.00000000
_symmetry_Int_Tables_number   1
_chemical_formula_structural   SrSbS2
_chemical_formula_sum   'Sr2 Sb2 S4'
_cell_volume   264.07771113
_cell_formula_units_Z   2
loop_
 _symmetry_equiv_pos_site_id
 _symmetry_equiv_pos_as_xyz
  1  'x, y, z'
loop_
 _atom_site_type_symbol
 _atom_site_label
 _atom_site_symmetry_multiplicity
 _atom_site_fract_x
 _atom_site_fract_y
 _atom_site_fract_z
 _atom_site_occupancy
  Sr  Sr0  1  0.00000000  0.00000000  0.00000000  1
  Sr  Sr1  1  0.50000001  0.50000001  0.74975099  1
  Sb  Sb2  1  0.00000000  0.00000000  0.49999999  1
  Sb  Sb3  1  0.50000001  0.50000001  0.25024900  1
  S  S4  1  0.00000000  0.50000001  0.62523399  1
  S  S5  1  0.50000001  0.00000000  0.37476599  1
  S  S6  1  0.00000000  0.50000001  0.12981000  1
  S  S7  1  0.50000001  0.00000000  0.87018999  1
