# generated using pymatgen
data_La2Pd3
_symmetry_space_group_name_H-M   'P 1'
_cell_length_a   3.93977308
_cell_length_b   7.89764690
_cell_length_c   7.89764690
_cell_angle_alpha   90.00000000
_cell_angle_beta   90.00000000
_cell_angle_gamma   90.00000000
_symmetry_Int_Tables_number   1
_chemical_formula_structural   La2Pd3
_chemical_formula_sum   'La4 Pd6'
_cell_volume   245.73478341
_cell_formula_units_Z   2
loop_
 _symmetry_equiv_pos_site_id
 _symmetry_equiv_pos_as_xyz
  1  'x, y, z'
loop_
 _atom_site_type_symbol
 _atom_site_label
 _atom_site_symmetry_multiplicity
 _atom_site_fract_x
 _atom_site_fract_y
 _atom_site_fract_z
 _atom_site_occupancy
  La  La0  1  0.49999999  0.32438600  0.82438601  1
  La  La1  1  0.49999999  0.82438601  0.67561401  1
  La  La2  1  0.49999999  0.17561400  0.32438600  1
  La  La3  1  0.49999999  0.67561401  0.17561400  1
  Pd  Pd4  1  0.00000000  0.00000000  0.00000000  1
  Pd  Pd5  1  0.00000000  0.50000001  0.50000001  1
  Pd  Pd6  1  0.00000000  0.37321100  0.12678900  1
  Pd  Pd7  1  0.00000000  0.87321101  0.37321100  1
  Pd  Pd8  1  0.00000000  0.12678900  0.62678901  1
  Pd  Pd9  1  0.00000000  0.62678901  0.87321101  1
