# generated using pymatgen
data_LuCoSi3
_symmetry_space_group_name_H-M   'P 1'
_cell_length_a   3.80300403
_cell_length_b   3.80300403
_cell_length_c   5.51863527
_cell_angle_alpha   110.15495300
_cell_angle_beta   110.15495300
_cell_angle_gamma   90.00000000
_symmetry_Int_Tables_number   1
_chemical_formula_structural   LuCoSi3
_chemical_formula_sum   'Lu1 Co1 Si3'
_cell_volume   69.69815383
_cell_formula_units_Z   1
loop_
 _symmetry_equiv_pos_site_id
 _symmetry_equiv_pos_as_xyz
  1  'x, y, z'
loop_
 _atom_site_type_symbol
 _atom_site_label
 _atom_site_symmetry_multiplicity
 _atom_site_fract_x
 _atom_site_fract_y
 _atom_site_fract_z
 _atom_site_occupancy
  Lu  Lu0  1  0.00000000  0.00000000  0.00000000  1
  Si  Si1  1  0.62014304  0.62014301  0.24028607  1
  Co  Co2  1  0.37985703  0.37985701  0.75971406  1
  Si  Si3  1  0.25000004  0.75000002  0.50000007  1
  Si  Si4  1  0.75000002  0.25000001  0.50000006  1
