# generated using pymatgen
data_GdZnPd
_symmetry_space_group_name_H-M   'P 1'
_cell_length_a   4.16436005
_cell_length_b   7.24622393
_cell_length_c   7.24622393
_cell_angle_alpha   120.00000000
_cell_angle_beta   90.00000000
_cell_angle_gamma   90.00000000
_symmetry_Int_Tables_number   1
_chemical_formula_structural   GdZnPd
_chemical_formula_sum   'Gd3 Zn3 Pd3'
_cell_volume   189.36617380
_cell_formula_units_Z   3
loop_
 _symmetry_equiv_pos_site_id
 _symmetry_equiv_pos_as_xyz
  1  'x, y, z'
loop_
 _atom_site_type_symbol
 _atom_site_label
 _atom_site_symmetry_multiplicity
 _atom_site_fract_x
 _atom_site_fract_y
 _atom_site_fract_z
 _atom_site_occupancy
  Gd  Gd0  1  0.49999999  0.58197500  -0.00000000  1
  Gd  Gd1  1  0.49999999  0.41802500  0.41802500  1
  Gd  Gd2  1  0.49999999  0.00000000  0.58197500  1
  Zn  Zn3  1  -0.00000000  0.24674300  -0.00000000  1
  Zn  Zn4  1  -0.00000000  0.75325701  0.75325700  1
  Zn  Zn5  1  0.99999999  0.00000000  0.24674300  1
  Pd  Pd6  1  -0.00000000  0.33333334  0.66666667  1
  Pd  Pd7  1  0.99999999  0.66666667  0.33333333  1
  Pd  Pd8  1  0.49999999  0.00000000  -0.00000000  1
