# generated using pymatgen
data_Dy2Al2GaAu
_symmetry_space_group_name_H-M   'P 1'
_cell_length_a   4.31044006
_cell_length_b   5.59745789
_cell_length_c   5.66842556
_cell_angle_alpha   78.27861786
_cell_angle_beta   67.65299988
_cell_angle_gamma   67.35405731
_symmetry_Int_Tables_number   1
_chemical_formula_structural   Dy2Al2GaAu
_chemical_formula_sum   'Dy2 Al2 Ga1 Au1'
_cell_volume   116.48288441
_cell_formula_units_Z   1
loop_
 _symmetry_equiv_pos_site_id
 _symmetry_equiv_pos_as_xyz
  1  'x, y, z'
loop_
 _atom_site_type_symbol
 _atom_site_label
 _atom_site_symmetry_multiplicity
 _atom_site_fract_x
 _atom_site_fract_y
 _atom_site_fract_z
 _atom_site_occupancy
  Dy  Dy0  1  0.54128701  0.20963701  0.70778895  1
  Dy  Dy1  1  0.45511902  0.79771303  0.29204897  1
  Al  Al2  1  0.84984102  0.61754802  0.68276994  1
  Al  Al3  1  0.82567601  0.21980801  0.12883996  1
  Ga  Ga4  1  0.16422701  0.77075003  0.90079596  1
  Au  Au5  1  0.16385001  0.38454501  0.28775498  1
