# generated using pymatgen
data_Rb2MoPdO6
_symmetry_space_group_name_H-M   'P 1'
_cell_length_a   6.08778811
_cell_length_b   6.10301161
_cell_length_c   6.08778811
_cell_angle_alpha   60.08248138
_cell_angle_beta   90.00000000
_cell_angle_gamma   119.91751862
_symmetry_Int_Tables_number   1
_chemical_formula_structural   Rb2MoPdO6
_chemical_formula_sum   'Rb2 Mo1 Pd1 O6'
_cell_volume   160.33470618
_cell_formula_units_Z   1
loop_
 _symmetry_equiv_pos_site_id
 _symmetry_equiv_pos_as_xyz
  1  'x, y, z'
loop_
 _atom_site_type_symbol
 _atom_site_label
 _atom_site_symmetry_multiplicity
 _atom_site_fract_x
 _atom_site_fract_y
 _atom_site_fract_z
 _atom_site_occupancy
  Rb  Rb0  1  0.25000000  0.50000002  0.24999999  1
  Rb  Rb1  1  0.74999999  0.50000002  0.74999998  1
  Pd  Pd2  1  0.00000000  0.00000000  0.00000000  1
  Mo  Mo3  1  0.49999999  0.00000000  0.49999999  1
  O  O4  1  0.24918800  0.00000000  0.28448400  1
  O  O5  1  0.73214699  0.46429402  0.26785299  1
  O  O6  1  0.28448400  0.00000000  0.75081199  1
  O  O7  1  0.26785300  0.53570602  0.73214698  1
  O  O8  1  0.75081199  0.00000000  0.71551599  1
  O  O9  1  0.71551599  0.00000000  0.24918800  1
