# generated using pymatgen
data_MgNi5O8
_symmetry_space_group_name_H-M   'P 1'
_cell_length_a   6.15298176
_cell_length_b   6.15298176
_cell_length_c   6.15298176
_cell_angle_alpha   60.00000000
_cell_angle_beta   60.00000000
_cell_angle_gamma   60.00000000
_symmetry_Int_Tables_number   1
_chemical_formula_structural   MgNi5O8
_chemical_formula_sum   'Mg1 Ni5 O8'
_cell_volume   164.71831264
_cell_formula_units_Z   1
loop_
 _symmetry_equiv_pos_site_id
 _symmetry_equiv_pos_as_xyz
  1  'x, y, z'
loop_
 _atom_site_type_symbol
 _atom_site_label
 _atom_site_symmetry_multiplicity
 _atom_site_fract_x
 _atom_site_fract_y
 _atom_site_fract_z
 _atom_site_occupancy
  Mg  Mg0  1  0.00000000  0.00000000  0.00000000  1
  Ni  Ni1  1  0.74999998  0.74999998  0.74999998  1
  Ni  Ni2  1  0.37499999  0.87499997  0.37499999  1
  Ni  Ni3  1  0.87499997  0.37499999  0.37499999  1
  Ni  Ni4  1  0.37499999  0.37499999  0.37499999  1
  Ni  Ni5  1  0.37499999  0.37499999  0.87499997  1
  O  O6  1  0.13719700  0.13719600  0.58841098  1
  O  O7  1  0.61280298  0.61280398  0.61280398  1
  O  O8  1  0.13719700  0.13719600  0.13719600  1
  O  O9  1  0.13719700  0.58841098  0.13719600  1
  O  O10  1  0.16158800  0.61280398  0.61280398  1
  O  O11  1  0.61280298  0.61280398  0.16158900  1
  O  O12  1  0.61280298  0.16158900  0.61280398  1
  O  O13  1  0.58841198  0.13719600  0.13719600  1
