# generated using pymatgen
data_HoAlRu
_symmetry_space_group_name_H-M   'P 1'
_cell_length_a   5.18665791
_cell_length_b   5.23113775
_cell_length_c   5.23113775
_cell_angle_alpha   61.04942703
_cell_angle_beta   60.28087616
_cell_angle_gamma   60.28087616
_symmetry_Int_Tables_number   1
_chemical_formula_structural   HoAlRu
_chemical_formula_sum   'Ho2 Al2 Ru2'
_cell_volume   101.56677041
_cell_formula_units_Z   2
loop_
 _symmetry_equiv_pos_site_id
 _symmetry_equiv_pos_as_xyz
  1  'x, y, z'
loop_
 _atom_site_type_symbol
 _atom_site_label
 _atom_site_symmetry_multiplicity
 _atom_site_fract_x
 _atom_site_fract_y
 _atom_site_fract_z
 _atom_site_occupancy
  Ho  Ho0  1  0.12301000  0.12699000  0.62699000  1
  Ho  Ho1  1  0.87699001  0.87301001  0.37301000  1
  Al  Al2  1  -0.00000001  0.50000000  0.00000000  1
  Al  Al3  1  0.50000001  0.50000000  -0.00000000  1
  Ru  Ru4  1  0.50000001  0.50000000  0.50000000  1
  Ru  Ru5  1  0.50000000  1.00000001  0.00000000  1
