# generated using pymatgen
data_LiH3O4
_symmetry_space_group_name_H-M   'P 1'
_cell_length_a   4.67225504
_cell_length_b   4.71371984
_cell_length_c   7.10841084
_cell_angle_alpha   90.00000000
_cell_angle_beta   90.00000000
_cell_angle_gamma   90.00000000
_symmetry_Int_Tables_number   1
_chemical_formula_structural   LiH3O4
_chemical_formula_sum   'Li2 H6 O8'
_cell_volume   156.55351694
_cell_formula_units_Z   2
loop_
 _symmetry_equiv_pos_site_id
 _symmetry_equiv_pos_as_xyz
  1  'x, y, z'
loop_
 _atom_site_type_symbol
 _atom_site_label
 _atom_site_symmetry_multiplicity
 _atom_site_fract_x
 _atom_site_fract_y
 _atom_site_fract_z
 _atom_site_occupancy
  Li  Li0  1  0.98493699  0.76253303  0.38486201  1
  Li  Li1  1  0.51506300  0.23746701  0.88486202  1
  H  H2  1  0.48493700  0.73746702  0.61513801  1
  H  H3  1  0.01506300  0.26253301  0.11513800  1
  H  H4  1  0.64288599  0.55721702  0.19327200  1
  H  H5  1  0.85711399  0.44278301  0.69327202  1
  H  H6  1  0.14288600  0.94278303  0.80672802  1
  H  H7  1  0.35711400  0.05721700  0.30672801  1
  O  O8  1  0.84932099  0.52099302  0.23645601  1
  O  O9  1  0.65067899  0.47900702  0.73645602  1
  O  O10  1  0.34932100  0.97900703  0.76354402  1
  O  O11  1  0.15067900  0.02099300  0.26354401  1
  O  O12  1  0.72182099  0.90272003  0.49507901  1
  O  O13  1  0.77817899  0.09728000  0.99507902  1
  O  O14  1  0.22182100  0.59728002  0.50492101  1
  O  O15  1  0.27817900  0.40272001  0.00492100  1
