# generated using pymatgen
data_Li4La5BiS8
_symmetry_space_group_name_H-M   'P 1'
_cell_length_a   4.30141878
_cell_length_b   6.61207581
_cell_length_c   16.04112053
_cell_angle_alpha   90.00000000
_cell_angle_beta   90.00000000
_cell_angle_gamma   90.00000000
_symmetry_Int_Tables_number   1
_chemical_formula_structural   Li4La5BiS8
_chemical_formula_sum   'Li4 La5 Bi1 S8'
_cell_volume   456.23043446
_cell_formula_units_Z   1
loop_
 _symmetry_equiv_pos_site_id
 _symmetry_equiv_pos_as_xyz
  1  'x, y, z'
loop_
 _atom_site_type_symbol
 _atom_site_label
 _atom_site_symmetry_multiplicity
 _atom_site_fract_x
 _atom_site_fract_y
 _atom_site_fract_z
 _atom_site_occupancy
  La  La0  1  0.00000000  0.21005301  0.30131199  1
  La  La1  1  0.00000000  0.78994702  0.69868798  1
  La  La2  1  0.50000003  0.28994701  0.80131197  1
  La  La3  1  0.50000003  0.71005302  0.19868799  1
  La  La4  1  0.50000003  0.00000000  0.00000000  1
  Li  Li5  1  0.00000000  0.50000001  0.49999998  1
  Li  Li6  1  0.50000003  0.86010103  0.41253799  1
  Li  Li7  1  0.50000003  0.13989900  0.58746198  1
  Bi  Bi8  1  0.00000000  0.63989902  0.91253797  1
  Li  Li9  1  0.00000000  0.36010101  0.08746200  1
  S  S10  1  0.50000003  0.23401401  0.16978599  1
  S  S11  1  0.50000003  0.76598602  0.83021397  1
  S  S12  1  0.00000000  0.26598601  0.66978598  1
  S  S13  1  0.00000000  0.73401402  0.33021399  1
  S  S14  1  0.00000000  0.74971702  0.07029800  1
  S  S15  1  0.00000000  0.25028301  0.92970197  1
  S  S16  1  0.50000003  0.75028302  0.57029798  1
  S  S17  1  0.50000003  0.24971701  0.42970199  1
