# generated using pymatgen
data_Dy2S3
_symmetry_space_group_name_H-M   'P 1'
_cell_length_a   3.87394905
_cell_length_b   10.88045120
_cell_length_c   11.14672184
_cell_angle_alpha   109.04058838
_cell_angle_beta   90.00000000
_cell_angle_gamma   90.00000000
_symmetry_Int_Tables_number   1
_chemical_formula_structural   Dy2S3
_chemical_formula_sum   'Dy8 S12'
_cell_volume   444.13191607
_cell_formula_units_Z   4
loop_
 _symmetry_equiv_pos_site_id
 _symmetry_equiv_pos_as_xyz
  1  'x, y, z'
loop_
 _atom_site_type_symbol
 _atom_site_label
 _atom_site_symmetry_multiplicity
 _atom_site_fract_x
 _atom_site_fract_y
 _atom_site_fract_z
 _atom_site_occupancy
  Dy  Dy0  1  0.74999999  0.43197899  0.83092899  1
  Dy  Dy1  1  0.25000000  0.56802099  0.16907099  1
  Dy  Dy2  1  0.74999999  0.68443298  0.50196299  1
  Dy  Dy3  1  0.25000000  0.31556699  0.49803699  1
  Dy  Dy4  1  0.74999999  0.15829600  0.08149100  1
  Dy  Dy5  1  0.25000000  0.84170398  0.91850898  1
  Dy  Dy6  1  0.74999999  0.04036500  0.68513900  1
  Dy  Dy7  1  0.25000000  0.95963498  0.31486099  1
  S  S8  1  0.74999999  0.47945799  0.61345099  1
  S  S9  1  0.25000000  0.52054199  0.38654899  1
  S  S10  1  0.74999999  0.91750098  0.10168399  1
  S  S11  1  0.25000000  0.08249900  0.89831599  1
  S  S12  1  0.74999999  0.39580999  0.06136399  1
  S  S13  1  0.25000000  0.60418999  0.93863599  1
  S  S14  1  0.74999999  0.74966798  0.27923799  1
  S  S15  1  0.25000000  0.25033199  0.72076199  1
  S  S16  1  0.74999999  0.10194700  0.46224800  1
  S  S17  1  0.25000000  0.89805298  0.53775198  1
  S  S18  1  0.74999999  0.81542298  0.74827898  1
  S  S19  1  0.25000000  0.18457700  0.25172100  1
