# generated using pymatgen
data_FeCo2Ge
_symmetry_space_group_name_H-M   'P 1'
_cell_length_a   4.53011322
_cell_length_b   4.57971001
_cell_length_c   4.55675936
_cell_angle_alpha   90.00000000
_cell_angle_beta   88.10035706
_cell_angle_gamma   90.00000000
_symmetry_Int_Tables_number   1
_chemical_formula_structural   FeCo2Ge
_chemical_formula_sum   'Fe2 Co4 Ge2'
_cell_volume   94.48533021
_cell_formula_units_Z   2
loop_
 _symmetry_equiv_pos_site_id
 _symmetry_equiv_pos_as_xyz
  1  'x, y, z'
loop_
 _atom_site_type_symbol
 _atom_site_label
 _atom_site_symmetry_multiplicity
 _atom_site_fract_x
 _atom_site_fract_y
 _atom_site_fract_z
 _atom_site_occupancy
  Fe  Fe0  1  0.90490495  0.34988100  0.65246203  1
  Fe  Fe1  1  0.09509500  0.84988100  0.34753800  1
  Co  Co2  1  0.39929698  0.65534000  0.84188501  1
  Co  Co3  1  0.60070297  0.15534000  0.15811503  1
  Co  Co4  1  0.59656497  0.64379500  0.34303302  1
  Co  Co5  1  0.40343498  0.14379500  0.65696701  1
  Ge  Ge6  1  0.11194899  0.35098400  0.14018600  1
  Ge  Ge7  1  0.88805096  0.85098400  0.85981403  1
