# generated using pymatgen
data_La2Ge4Au
_symmetry_space_group_name_H-M   'P 1'
_cell_length_a   4.69049501
_cell_length_b   4.75949669
_cell_length_c   8.89010906
_cell_angle_alpha   105.37989807
_cell_angle_beta   89.98575592
_cell_angle_gamma   89.99934387
_symmetry_Int_Tables_number   1
_chemical_formula_structural   La2Ge4Au
_chemical_formula_sum   'La2 Ge4 Au1'
_cell_volume   191.35893059
_cell_formula_units_Z   1
loop_
 _symmetry_equiv_pos_site_id
 _symmetry_equiv_pos_as_xyz
  1  'x, y, z'
loop_
 _atom_site_type_symbol
 _atom_site_label
 _atom_site_symmetry_multiplicity
 _atom_site_fract_x
 _atom_site_fract_y
 _atom_site_fract_z
 _atom_site_occupancy
  La  La0  1  0.75004100  0.10134600  0.20535997  1
  La  La1  1  0.24949399  0.89510103  0.79459497  1
  Ge  Ge2  1  0.74976500  0.45840902  0.91337994  1
  Ge  Ge3  1  0.24987499  0.57283302  0.14942900  1
  Ge  Ge4  1  0.74973299  0.74068802  0.47748797  1
  Ge  Ge5  1  0.25049800  0.23842301  0.47859197  1
  Au  Au6  1  0.75059400  0.30820001  0.61115595  1
