# generated using pymatgen
data_PmAu3
_symmetry_space_group_name_H-M   'P 1'
_cell_length_a   4.89837980
_cell_length_b   6.55951977
_cell_length_c   6.55951929
_cell_angle_alpha   120.00000763
_cell_angle_beta   90.00000000
_cell_angle_gamma   90.00000000
_symmetry_Int_Tables_number   1
_chemical_formula_structural   PmAu3
_chemical_formula_sum   'Pm2 Au6'
_cell_volume   182.52699875
_cell_formula_units_Z   2
loop_
 _symmetry_equiv_pos_site_id
 _symmetry_equiv_pos_as_xyz
  1  'x, y, z'
loop_
 _atom_site_type_symbol
 _atom_site_label
 _atom_site_symmetry_multiplicity
 _atom_site_fract_x
 _atom_site_fract_y
 _atom_site_fract_z
 _atom_site_occupancy
  Pm  Pm0  1  0.25000001  0.66666671  0.33333337  1
  Pm  Pm1  1  0.75000003  0.33333336  0.66666668  1
  Au  Au2  1  0.75000003  0.84928106  0.15071906  1
  Au  Au3  1  0.75000003  0.30143802  0.15071902  1
  Au  Au4  1  0.75000003  0.84928106  0.69856205  1
  Au  Au5  1  0.25000001  0.15071901  0.84928099  1
  Au  Au6  1  0.25000001  0.69856205  0.84928103  1
  Au  Au7  1  0.25000001  0.15071901  0.30143800  1
