# generated using pymatgen
data_NaCr(SO4)2
_symmetry_space_group_name_H-M   'P 1'
_cell_length_a   4.94628620
_cell_length_b   4.94628572
_cell_length_c   8.71046066
_cell_angle_alpha   90.00000000
_cell_angle_beta   90.00000000
_cell_angle_gamma   120.00000000
_symmetry_Int_Tables_number   1
_chemical_formula_structural   NaCr(SO4)2
_chemical_formula_sum   'Na1 Cr1 S2 O8'
_cell_volume   184.55686200
_cell_formula_units_Z   1
loop_
 _symmetry_equiv_pos_site_id
 _symmetry_equiv_pos_as_xyz
  1  'x, y, z'
loop_
 _atom_site_type_symbol
 _atom_site_label
 _atom_site_symmetry_multiplicity
 _atom_site_fract_x
 _atom_site_fract_y
 _atom_site_fract_z
 _atom_site_occupancy
  Na  Na0  1  0.00000000  0.00000000  0.50000002  1
  Cr  Cr1  1  0.00000000  0.00000000  0.00000000  1
  S  S2  1  0.33333329  0.66666665  0.20467601  1
  S  S3  1  0.66666663  0.33333333  0.79532403  1
  O  O4  1  0.09285298  0.35251599  0.14762801  1
  O  O5  1  0.64748294  0.74033598  0.14762801  1
  O  O6  1  0.35251698  0.09285400  0.85237203  1
  O  O7  1  0.25966295  0.90714598  0.14762801  1
  O  O8  1  0.74033694  0.64748399  0.85237203  1
  O  O9  1  0.90714695  0.25966399  0.85237203  1
  O  O10  1  0.33333329  0.66666665  0.37245501  1
  O  O11  1  0.66666663  0.33333333  0.62754502  1
