# generated using pymatgen
data_NdInPd
_symmetry_space_group_name_H-M   'P 1'
_cell_length_a   4.03694487
_cell_length_b   7.75522804
_cell_length_c   7.75522757
_cell_angle_alpha   120.00000000
_cell_angle_beta   90.00000000
_cell_angle_gamma   90.00000000
_symmetry_Int_Tables_number   1
_chemical_formula_structural   NdInPd
_chemical_formula_sum   'Nd3 In3 Pd3'
_cell_volume   210.26770216
_cell_formula_units_Z   3
loop_
 _symmetry_equiv_pos_site_id
 _symmetry_equiv_pos_as_xyz
  1  'x, y, z'
loop_
 _atom_site_type_symbol
 _atom_site_label
 _atom_site_symmetry_multiplicity
 _atom_site_fract_x
 _atom_site_fract_y
 _atom_site_fract_z
 _atom_site_occupancy
  Nd  Nd0  1  1.00000003  0.40734999  0.40734999  1
  Nd  Nd1  1  0.00000000  0.00000000  0.59265000  1
  Nd  Nd2  1  1.00000003  0.59264999  0.99999998  1
  In  In3  1  0.50000002  0.74819398  0.74819398  1
  In  In4  1  0.50000002  0.00000000  0.25180600  1
  In  In5  1  0.50000002  0.25180599  1.00000000  1
  Pd  Pd6  1  0.50000002  0.66666665  0.33333331  1
  Pd  Pd7  1  0.50000002  0.33333333  0.66666666  1
  Pd  Pd8  1  0.00000000  0.00000000  0.00000000  1
