# generated using pymatgen
data_Ba6SnBi9
_symmetry_space_group_name_H-M   'P 1'
_cell_length_a   6.98171711
_cell_length_b   7.17215395
_cell_length_c   15.67187786
_cell_angle_alpha   90.00000000
_cell_angle_beta   90.00000000
_cell_angle_gamma   90.00000000
_symmetry_Int_Tables_number   1
_chemical_formula_structural   Ba6SnBi9
_chemical_formula_sum   'Ba6 Sn1 Bi9'
_cell_volume   784.75282754
_cell_formula_units_Z   1
loop_
 _symmetry_equiv_pos_site_id
 _symmetry_equiv_pos_as_xyz
  1  'x, y, z'
loop_
 _atom_site_type_symbol
 _atom_site_label
 _atom_site_symmetry_multiplicity
 _atom_site_fract_x
 _atom_site_fract_y
 _atom_site_fract_z
 _atom_site_occupancy
  Ba  Ba0  1  0.99381098  0.50000000  0.50000000  1
  Ba  Ba1  1  0.60413899  0.50000000  0.69406301  1
  Ba  Ba2  1  0.00618900  0.00000000  0.00000000  1
  Ba  Ba3  1  0.39586099  0.00000000  0.80593701  1
  Ba  Ba4  1  0.39586099  0.00000000  0.19406300  1
  Ba  Ba5  1  0.60413899  0.50000000  0.30593700  1
  Bi  Bi6  1  0.55127899  0.72961901  0.00000000  1
  Bi  Bi7  1  0.14012300  0.00000000  0.60434501  1
  Bi  Bi8  1  0.44872099  0.77038101  0.50000000  1
  Bi  Bi9  1  0.55127899  0.27038100  0.00000000  1
  Bi  Bi10  1  0.85987699  0.50000000  0.89565501  1
  Bi  Bi11  1  0.85987699  0.50000000  0.10434500  1
  Sn  Sn12  1  0.44872099  0.22961900  0.50000000  1
  Bi  Bi13  1  0.14012300  0.00000000  0.39565500  1
  Bi  Bi14  1  0.79275199  0.00000000  0.50000000  1
  Bi  Bi15  1  0.20724800  0.50000000  0.00000000  1
