# generated using pymatgen
data_AlSiO7
_symmetry_space_group_name_H-M   'P 1'
_cell_length_a   5.10620403
_cell_length_b   5.10620451
_cell_length_c   5.59048223
_cell_angle_alpha   90.00000000
_cell_angle_beta   90.00000000
_cell_angle_gamma   120.00000000
_symmetry_Int_Tables_number   1
_chemical_formula_structural   AlSiO7
_chemical_formula_sum   'Al1 Si1 O7'
_cell_volume   126.23397924
_cell_formula_units_Z   1
loop_
 _symmetry_equiv_pos_site_id
 _symmetry_equiv_pos_as_xyz
  1  'x, y, z'
loop_
 _atom_site_type_symbol
 _atom_site_label
 _atom_site_symmetry_multiplicity
 _atom_site_fract_x
 _atom_site_fract_y
 _atom_site_fract_z
 _atom_site_occupancy
  Al  Al0  1  1.00000003  0.50000002  0.33333332  1
  Si  Si1  1  0.50000000  0.00000000  0.66666664  1
  O  O2  1  0.50000003  0.50000002  0.99999996  1
  O  O3  1  0.20828105  0.79172003  0.49999998  1
  O  O4  1  0.79171904  0.58343802  0.16666699  1
  O  O5  1  0.41656101  0.20828001  0.83333296  1
  O  O6  1  0.79171901  0.20828001  0.49999998  1
  O  O7  1  0.20828103  0.41656202  0.16666699  1
  O  O8  1  0.58343905  0.79172003  0.83333296  1
