# generated using pymatgen
data_CsCl
_symmetry_space_group_name_H-M   'P 1'
_cell_length_a   7.46069813
_cell_length_b   7.73767519
_cell_length_c   7.87354374
_cell_angle_alpha   107.04641724
_cell_angle_beta   104.44180298
_cell_angle_gamma   92.98465729
_symmetry_Int_Tables_number   1
_chemical_formula_structural   CsCl
_chemical_formula_sum   'Cs4 Cl4'
_cell_volume   416.96357497
_cell_formula_units_Z   4
loop_
 _symmetry_equiv_pos_site_id
 _symmetry_equiv_pos_as_xyz
  1  'x, y, z'
loop_
 _atom_site_type_symbol
 _atom_site_label
 _atom_site_symmetry_multiplicity
 _atom_site_fract_x
 _atom_site_fract_y
 _atom_site_fract_z
 _atom_site_occupancy
  Cs  Cs0  1  0.26057107  0.84318999  0.05366904  1
  Cs  Cs1  1  0.73942901  0.15681000  0.94633106  1
  Cs  Cs2  1  0.81386605  0.71004400  0.36334606  1
  Cs  Cs3  1  0.18613402  0.28995600  0.63665403  1
  Cl  Cl4  1  0.31305003  0.39680400  0.21616503  1
  Cl  Cl5  1  0.68695004  0.60319600  0.78383507  1
  Cl  Cl6  1  0.63128502  0.24884200  0.44565004  1
  Cl  Cl7  1  0.36871506  0.75115800  0.55435005  1
