# generated using pymatgen
data_Nb4C3
_symmetry_space_group_name_H-M   'P 1'
_cell_length_a   3.19610834
_cell_length_b   3.19610834
_cell_length_c   10.72567463
_cell_angle_alpha   81.43140411
_cell_angle_beta   81.43140411
_cell_angle_gamma   59.99999237
_symmetry_Int_Tables_number   1
_chemical_formula_structural   Nb4C3
_chemical_formula_sum   'Nb4 C3'
_cell_volume   93.47035376
_cell_formula_units_Z   1
loop_
 _symmetry_equiv_pos_site_id
 _symmetry_equiv_pos_as_xyz
  1  'x, y, z'
loop_
 _atom_site_type_symbol
 _atom_site_label
 _atom_site_symmetry_multiplicity
 _atom_site_fract_x
 _atom_site_fract_y
 _atom_site_fract_z
 _atom_site_occupancy
  Nb  Nb0  1  0.62560102  0.62560101  0.12319701  1
  Nb  Nb1  1  0.37482601  0.37482601  0.87552203  1
  Nb  Nb2  1  0.79104003  0.79104001  0.62688002  1
  Nb  Nb3  1  0.20638101  0.20638100  0.38085701  1
  C  C4  1  0.50070402  0.50070401  0.49788802  1
  C  C5  1  0.00188000  0.00188000  0.99436003  1
  C  C6  1  0.91456804  0.91456801  0.25629601  1
