# generated using pymatgen
data_CePd
_symmetry_space_group_name_H-M   'P 1'
_cell_length_a   3.93381405
_cell_length_b   4.48305798
_cell_length_c   5.97347641
_cell_angle_alpha   90.00000000
_cell_angle_beta   109.22467804
_cell_angle_gamma   90.00000000
_symmetry_Int_Tables_number   1
_chemical_formula_structural   CePd
_chemical_formula_sum   'Ce2 Pd2'
_cell_volume   99.47072010
_cell_formula_units_Z   2
loop_
 _symmetry_equiv_pos_site_id
 _symmetry_equiv_pos_as_xyz
  1  'x, y, z'
loop_
 _atom_site_type_symbol
 _atom_site_label
 _atom_site_symmetry_multiplicity
 _atom_site_fract_x
 _atom_site_fract_y
 _atom_site_fract_z
 _atom_site_occupancy
  Ce  Ce0  1  0.86355997  0.25000000  0.72711994  1
  Ce  Ce1  1  0.13644000  0.75000000  0.27287998  1
  Pd  Pd2  1  0.59615498  0.25000000  0.19230997  1
  Pd  Pd3  1  0.40384499  0.75000000  0.80768995  1
