# generated using pymatgen
data_Li2CoCuO4
_symmetry_space_group_name_H-M   'P 1'
_cell_length_a   5.09640408
_cell_length_b   5.61416054
_cell_length_c   6.95633125
_cell_angle_alpha   109.51596832
_cell_angle_beta   90.00000000
_cell_angle_gamma   116.99343109
_symmetry_Int_Tables_number   1
_chemical_formula_structural   Li2CoCuO4
_chemical_formula_sum   'Li4 Co2 Cu2 O8'
_cell_volume   164.41559320
_cell_formula_units_Z   2
loop_
 _symmetry_equiv_pos_site_id
 _symmetry_equiv_pos_as_xyz
  1  'x, y, z'
loop_
 _atom_site_type_symbol
 _atom_site_label
 _atom_site_symmetry_multiplicity
 _atom_site_fract_x
 _atom_site_fract_y
 _atom_site_fract_z
 _atom_site_occupancy
  Li  Li0  1  0.18755501  0.95402802  0.09106299  1
  Li  Li1  1  0.70242999  0.08949500  0.28115900  1
  Li  Li2  1  0.63913200  0.57516702  0.18529499  1
  Li  Li3  1  0.24336901  0.79414902  0.39014999  1
  Co  Co4  1  0.76647301  0.95402802  0.59106299  1
  Co  Co5  1  0.38706500  0.08949500  0.78115899  1
  Cu  Cu6  1  0.93603500  0.57516702  0.68529499  1
  Cu  Cu7  1  0.55078001  0.79414902  0.89014999  1
  O  O8  1  0.01664601  0.31912501  0.00469300  1
  O  O9  1  0.30247900  0.31912501  0.50469299  1
  O  O10  1  0.62308699  0.21063001  0.05548600  1
  O  O11  1  0.34465701  0.67311602  0.10677699  1
  O  O12  1  0.97547300  0.94667902  0.34361099  1
  O  O13  1  0.58754300  0.21063001  0.55548599  1
  O  O14  1  0.32845901  0.67311602  0.60677699  1
  O  O15  1  0.97120600  0.94667902  0.84361099  1
