# generated using pymatgen
data_NaVO3
_symmetry_space_group_name_H-M   'P 1'
_cell_length_a   5.08182287
_cell_length_b   5.08197308
_cell_length_c   6.02613592
_cell_angle_alpha   65.06073761
_cell_angle_beta   65.06059265
_cell_angle_gamma   59.99876022
_symmetry_Int_Tables_number   1
_chemical_formula_structural   NaVO3
_chemical_formula_sum   'Na2 V2 O6'
_cell_volume   117.72311233
_cell_formula_units_Z   2
loop_
 _symmetry_equiv_pos_site_id
 _symmetry_equiv_pos_as_xyz
  1  'x, y, z'
loop_
 _atom_site_type_symbol
 _atom_site_label
 _atom_site_symmetry_multiplicity
 _atom_site_fract_x
 _atom_site_fract_y
 _atom_site_fract_z
 _atom_site_occupancy
  Na  Na0  1  0.63919504  0.63919802  0.08240996  1
  Na  Na1  1  0.36080803  0.36078801  0.91761095  1
  V  V2  1  0.83636406  0.83634803  0.49092594  1
  V  V3  1  0.16363001  0.16365001  0.50908197  1
  O  O4  1  0.03749901  0.43925201  0.70150098  1
  O  O5  1  0.56075703  0.17825401  0.29848796  1
  O  O6  1  0.17825202  0.96250303  0.29849299  1
  O  O7  1  0.82174705  0.03750300  0.70149693  1
  O  O8  1  0.43924204  0.82174903  0.70150296  1
  O  O9  1  0.96250606  0.56075202  0.29848794  1
