# generated using pymatgen
data_AlNi
_symmetry_space_group_name_H-M   'P 1'
_cell_length_a   5.92948484
_cell_length_b   5.92948484
_cell_length_c   6.89760399
_cell_angle_alpha   90.00000000
_cell_angle_beta   90.00000000
_cell_angle_gamma   90.00000000
_symmetry_Int_Tables_number   1
_chemical_formula_structural   AlNi
_chemical_formula_sum   'Al10 Ni10'
_cell_volume   242.51141371
_cell_formula_units_Z   10
loop_
 _symmetry_equiv_pos_site_id
 _symmetry_equiv_pos_as_xyz
  1  'x, y, z'
loop_
 _atom_site_type_symbol
 _atom_site_label
 _atom_site_symmetry_multiplicity
 _atom_site_fract_x
 _atom_site_fract_y
 _atom_site_fract_z
 _atom_site_occupancy
  Al  Al0  1  0.66425602  0.81436902  0.50000000  1
  Al  Al1  1  0.33574401  0.18563100  0.50000000  1
  Al  Al2  1  0.83574402  0.31436901  0.00000000  1
  Al  Al3  1  0.16425600  0.68563102  -0.00000000  1
  Al  Al4  1  0.81436902  0.33574401  0.50000000  1
  Al  Al5  1  0.18563100  0.66425602  0.50000000  1
  Al  Al6  1  0.31436901  0.16425600  0.00000000  1
  Al  Al7  1  0.68563102  0.83574402  -0.00000000  1
  Al  Al8  1  0.38687801  0.88687802  0.25000000  1
  Al  Al9  1  0.61312202  0.11312200  0.25000000  1
  Ni  Ni10  1  0.11312200  0.38687801  0.75000000  1
  Ni  Ni11  1  0.88687802  0.61312202  0.75000000  1
  Ni  Ni12  1  0.88687802  0.61312202  0.25000000  1
  Ni  Ni13  1  0.11312200  0.38687801  0.25000000  1
  Ni  Ni14  1  0.38687801  0.88687802  0.75000000  1
  Ni  Ni15  1  0.61312202  0.11312200  0.75000000  1
  Ni  Ni16  1  0.50000001  0.50000001  0.22103600  1
  Ni  Ni17  1  0.00000000  0.00000000  0.72103600  1
  Ni  Ni18  1  0.50000001  0.50000001  0.77896400  1
  Ni  Ni19  1  0.00000000  0.00000000  0.27896400  1
