# generated using pymatgen
data_Dy5Ge3
_symmetry_space_group_name_H-M   'P 1'
_cell_length_a   6.24880600
_cell_length_b   8.35000801
_cell_length_c   8.35000801
_cell_angle_alpha   120.00000000
_cell_angle_beta   90.00000000
_cell_angle_gamma   90.00000000
_symmetry_Int_Tables_number   1
_chemical_formula_structural   Dy5Ge3
_chemical_formula_sum   'Dy10 Ge6'
_cell_volume   377.31272985
_cell_formula_units_Z   2
loop_
 _symmetry_equiv_pos_site_id
 _symmetry_equiv_pos_as_xyz
  1  'x, y, z'
loop_
 _atom_site_type_symbol
 _atom_site_label
 _atom_site_symmetry_multiplicity
 _atom_site_fract_x
 _atom_site_fract_y
 _atom_site_fract_z
 _atom_site_occupancy
  Dy  Dy0  1  0.50000000  0.33333333  0.66666666  1
  Dy  Dy1  1  0.50000000  0.66666666  0.33333334  1
  Dy  Dy2  1  -0.00000000  0.66666666  0.33333334  1
  Dy  Dy3  1  1.00000000  0.33333333  0.66666666  1
  Dy  Dy4  1  0.75000000  0.25854300  1.00000000  1
  Dy  Dy5  1  0.75000000  0.74145700  0.74145700  1
  Dy  Dy6  1  0.75000000  0.00000000  0.25854300  1
  Dy  Dy7  1  0.25000000  0.74145700  1.00000000  1
  Dy  Dy8  1  0.25000000  0.25854300  0.25854300  1
  Dy  Dy9  1  0.25000000  0.00000000  0.74145700  1
  Ge  Ge10  1  0.75000000  0.60902400  1.00000000  1
  Ge  Ge11  1  0.75000000  0.39097600  0.39097600  1
  Ge  Ge12  1  0.75000000  1.00000000  0.60902400  1
  Ge  Ge13  1  0.25000000  0.39097600  1.00000000  1
  Ge  Ge14  1  0.25000000  0.60902400  0.60902400  1
  Ge  Ge15  1  0.25000000  0.00000000  0.39097600  1
