# generated using pymatgen
data_LiCoS2
_symmetry_space_group_name_H-M   'P 1'
_cell_length_a   5.68643999
_cell_length_b   5.68643999
_cell_length_c   6.96875238
_cell_angle_alpha   114.07897949
_cell_angle_beta   114.07897949
_cell_angle_gamma   90.00000000
_symmetry_Int_Tables_number   1
_chemical_formula_structural   LiCoS2
_chemical_formula_sum   'Li2 Co2 S4'
_cell_volume   184.04527913
_cell_formula_units_Z   2
loop_
 _symmetry_equiv_pos_site_id
 _symmetry_equiv_pos_as_xyz
  1  'x, y, z'
loop_
 _atom_site_type_symbol
 _atom_site_label
 _atom_site_symmetry_multiplicity
 _atom_site_fract_x
 _atom_site_fract_y
 _atom_site_fract_z
 _atom_site_occupancy
  Li  Li0  1  0.49999999  0.49999999  -0.00000002  1
  Li  Li1  1  0.24999998  0.74999999  0.49999998  1
  Co  Co2  1  0.00000000  0.00000000  0.00000000  1
  Co  Co3  1  0.74999999  0.25000000  0.49999999  1
  S  S4  1  0.37499999  0.32556600  0.24999999  1
  S  S5  1  0.87499998  0.92443399  0.24999996  1
  S  S6  1  0.67443399  0.12500000  0.74999999  1
  S  S7  1  0.07556599  0.62499999  0.74999999  1
