# generated using pymatgen
data_NaCeSbS2
_symmetry_space_group_name_H-M   'P 1'
_cell_length_a   4.14728022
_cell_length_b   5.32631779
_cell_length_c   7.49243116
_cell_angle_alpha   110.82081604
_cell_angle_beta   106.06719971
_cell_angle_gamma   90.00000000
_symmetry_Int_Tables_number   1
_chemical_formula_structural   NaCeSbS2
_chemical_formula_sum   'Na1 Ce1 Sb1 S2'
_cell_volume   147.76054291
_cell_formula_units_Z   1
loop_
 _symmetry_equiv_pos_site_id
 _symmetry_equiv_pos_as_xyz
  1  'x, y, z'
loop_
 _atom_site_type_symbol
 _atom_site_label
 _atom_site_symmetry_multiplicity
 _atom_site_fract_x
 _atom_site_fract_y
 _atom_site_fract_z
 _atom_site_occupancy
  Na  Na0  1  0.66727795  0.16727801  0.33455598  1
  Ce  Ce1  1  0.33272195  0.83272203  0.66544398  1
  Sb  Sb2  1  0.00000000  0.00000000  0.00000000  1
  S  S3  1  0.29688297  0.29688301  0.59376599  1
  S  S4  1  0.70311693  0.70311702  0.40623397  1
