# generated using pymatgen
data_Dy2Ga5Pd
_symmetry_space_group_name_H-M   'P 1'
_cell_length_a   4.43507624
_cell_length_b   5.40968323
_cell_length_c   6.88381100
_cell_angle_alpha   90.00000000
_cell_angle_beta   90.00000000
_cell_angle_gamma   114.19981384
_symmetry_Int_Tables_number   1
_chemical_formula_structural   Dy2Ga5Pd
_chemical_formula_sum   'Dy2 Ga5 Pd1'
_cell_volume   150.64493363
_cell_formula_units_Z   1
loop_
 _symmetry_equiv_pos_site_id
 _symmetry_equiv_pos_as_xyz
  1  'x, y, z'
loop_
 _atom_site_type_symbol
 _atom_site_label
 _atom_site_symmetry_multiplicity
 _atom_site_fract_x
 _atom_site_fract_y
 _atom_site_fract_z
 _atom_site_occupancy
  Dy  Dy0  1  0.41637392  0.83274798  0.75000000  1
  Dy  Dy1  1  0.58362596  0.16725200  0.25000000  1
  Ga  Ga2  1  0.13256097  0.26512199  0.94375800  1
  Ga  Ga3  1  0.86743890  0.73487799  0.44375800  1
  Ga  Ga4  1  0.86743890  0.73487799  0.05624200  1
  Ga  Ga5  1  0.13256097  0.26512199  0.55624200  1
  Ga  Ga6  1  0.70358393  0.40716799  0.75000000  1
  Pd  Pd7  1  0.29641594  0.59283199  0.25000000  1
