# generated using pymatgen
data_DyRe2
_symmetry_space_group_name_H-M   'P 1'
_cell_length_a   5.43982792
_cell_length_b   5.43982887
_cell_length_c   8.48856640
_cell_angle_alpha   90.00000000
_cell_angle_beta   90.00000000
_cell_angle_gamma   119.99999237
_symmetry_Int_Tables_number   1
_chemical_formula_structural   DyRe2
_chemical_formula_sum   'Dy4 Re8'
_cell_volume   217.53814187
_cell_formula_units_Z   4
loop_
 _symmetry_equiv_pos_site_id
 _symmetry_equiv_pos_as_xyz
  1  'x, y, z'
loop_
 _atom_site_type_symbol
 _atom_site_label
 _atom_site_symmetry_multiplicity
 _atom_site_fract_x
 _atom_site_fract_y
 _atom_site_fract_z
 _atom_site_occupancy
  Dy  Dy0  1  0.33333329  0.66666662  0.05549800  1
  Dy  Dy1  1  0.66666665  0.33333331  0.94450196  1
  Dy  Dy2  1  0.66666665  0.33333331  0.55549797  1
  Dy  Dy3  1  0.33333329  0.66666662  0.44450198  1
  Re  Re4  1  0.67485795  0.83742894  0.74999996  1
  Re  Re5  1  0.16257098  0.32514198  0.74999996  1
  Re  Re6  1  0.16257094  0.83742894  0.74999996  1
  Re  Re7  1  0.83742900  0.16257099  0.24999999  1
  Re  Re8  1  0.83742896  0.67485795  0.24999999  1
  Re  Re9  1  0.32514199  0.16257099  0.24999999  1
  Re  Re10  1  0.00000000  0.00000000  0.00000000  1
  Re  Re11  1  0.00000000  0.00000000  0.49999998  1
