# generated using pymatgen
data_Dy4GeRh3
_symmetry_space_group_name_H-M   'P 1'
_cell_length_a   7.09215403
_cell_length_b   7.09215403
_cell_length_c   7.35549688
_cell_angle_alpha   90.00000000
_cell_angle_beta   90.00000000
_cell_angle_gamma   90.00000000
_symmetry_Int_Tables_number   1
_chemical_formula_structural   Dy4GeRh3
_chemical_formula_sum   'Dy8 Ge2 Rh6'
_cell_volume   369.97155396
_cell_formula_units_Z   2
loop_
 _symmetry_equiv_pos_site_id
 _symmetry_equiv_pos_as_xyz
  1  'x, y, z'
loop_
 _atom_site_type_symbol
 _atom_site_label
 _atom_site_symmetry_multiplicity
 _atom_site_fract_x
 _atom_site_fract_y
 _atom_site_fract_z
 _atom_site_occupancy
  Dy  Dy0  1  0.50000000  0.50000000  0.25688700  1
  Dy  Dy1  1  0.00000000  0.00000000  0.75688701  1
  Dy  Dy2  1  0.84091900  0.65219400  0.98866102  1
  Dy  Dy3  1  0.00000000  0.00000000  0.24311300  1
  Dy  Dy4  1  0.65908100  0.15219400  0.48866101  1
  Dy  Dy5  1  0.34091900  0.84780600  0.48866101  1
  Dy  Dy6  1  0.15908100  0.34780600  0.98866102  1
  Dy  Dy7  1  0.34780600  0.84091900  0.01133900  1
  Ge  Ge8  1  0.84780600  0.65908100  0.51133901  1
  Rh  Rh9  1  0.65219400  0.15908100  0.01133900  1
  Rh  Rh10  1  0.15219400  0.34091900  0.51133901  1
  Ge  Ge11  1  0.50000000  0.50000000  0.74311301  1
  Rh  Rh12  1  0.34581900  0.15418100  0.25000000  1
  Rh  Rh13  1  0.65418100  0.84581900  0.25000000  1
  Rh  Rh14  1  0.15418100  0.65418100  0.75000001  1
  Rh  Rh15  1  0.84581900  0.34581900  0.75000001  1
