# generated using pymatgen
data_Nb2Te3MoSe5
_symmetry_space_group_name_H-M   'P 1'
_cell_length_a   6.58388710
_cell_length_b   9.51254654
_cell_length_c   9.51254654
_cell_angle_alpha   90.00000000
_cell_angle_beta   90.00000000
_cell_angle_gamma   90.00000000
_symmetry_Int_Tables_number   1
_chemical_formula_structural   Nb2Te3MoSe5
_chemical_formula_sum   'Nb2 Te3 Mo1 Se5'
_cell_volume   595.76634217
_cell_formula_units_Z   1
loop_
 _symmetry_equiv_pos_site_id
 _symmetry_equiv_pos_as_xyz
  1  'x, y, z'
loop_
 _atom_site_type_symbol
 _atom_site_label
 _atom_site_symmetry_multiplicity
 _atom_site_fract_x
 _atom_site_fract_y
 _atom_site_fract_z
 _atom_site_occupancy
  Te  Te0  1  0.22995300  0.00000000  0.27217601  1
  Nb  Nb1  1  0.77004699  0.72782404  0.00000000  1
  Mo  Mo2  1  0.77004699  0.27217601  0.00000000  1
  Nb  Nb3  1  0.22995300  0.00000000  0.72782404  1
  Se  Se4  1  0.00000000  0.25614801  0.25614801  1
  Te  Te5  1  0.00000000  0.74385204  0.74385204  1
  Te  Te6  1  0.48112399  0.50000002  -0.00000000  1
  Se  Se7  1  0.51887599  1.00000005  0.50000002  1
  Se  Se8  1  0.49999999  0.00000000  -0.00000000  1
  Se  Se9  1  0.00000000  0.74385204  0.25614801  1
  Se  Se10  1  0.00000000  0.25614801  0.74385204  1
