# generated using pymatgen
data_LaCeNi10
_symmetry_space_group_name_H-M   'P 1'
_cell_length_a   3.93951297
_cell_length_b   4.98932409
_cell_length_c   8.63897991
_cell_angle_alpha   90.01371765
_cell_angle_beta   90.00000000
_cell_angle_gamma   90.00000000
_symmetry_Int_Tables_number   1
_chemical_formula_structural   LaCeNi10
_chemical_formula_sum   'La1 Ce1 Ni10'
_cell_volume   169.80352497
_cell_formula_units_Z   1
loop_
 _symmetry_equiv_pos_site_id
 _symmetry_equiv_pos_as_xyz
  1  'x, y, z'
loop_
 _atom_site_type_symbol
 _atom_site_label
 _atom_site_symmetry_multiplicity
 _atom_site_fract_x
 _atom_site_fract_y
 _atom_site_fract_z
 _atom_site_occupancy
  Ce  Ce0  1  -0.00000000  0.49992901  0.49990402  1
  La  La1  1  -0.00000000  0.00000700  0.99994703  1
  Ni  Ni2  1  -0.00000000  0.99998202  0.33266401  1
  Ni  Ni3  1  -0.00000000  0.49999701  0.83428303  1
  Ni  Ni4  1  -0.00000000  0.50000301  0.16547600  1
  Ni  Ni5  1  -0.00000000  0.99995602  0.66774002  1
  Ni  Ni6  1  0.50000000  0.49998101  0.00228200  1
  Ni  Ni7  1  0.50000000  0.00000000  0.50219202  1
  Ni  Ni8  1  0.50000000  0.25259400  0.24835601  1
  Ni  Ni9  1  0.50000000  0.75382401  0.74940102  1
  Ni  Ni10  1  0.50000000  0.74737001  0.24833401  1
  Ni  Ni11  1  0.50000000  0.24615800  0.74941902  1
