# generated using pymatgen
data_Al3GaSe5
_symmetry_space_group_name_H-M   'P 1'
_cell_length_a   5.83719206
_cell_length_b   5.83712006
_cell_length_c   5.83688402
_cell_angle_alpha   89.99942780
_cell_angle_beta   89.99962616
_cell_angle_gamma   89.99937439
_symmetry_Int_Tables_number   1
_chemical_formula_structural   Al3GaSe5
_chemical_formula_sum   'Al3 Ga1 Se5'
_cell_volume   198.87659363
_cell_formula_units_Z   1
loop_
 _symmetry_equiv_pos_site_id
 _symmetry_equiv_pos_as_xyz
  1  'x, y, z'
loop_
 _atom_site_type_symbol
 _atom_site_label
 _atom_site_symmetry_multiplicity
 _atom_site_fract_x
 _atom_site_fract_y
 _atom_site_fract_z
 _atom_site_occupancy
  Al  Al0  1  0.49999802  0.50000100  0.49999597  1
  Al  Al1  1  0.00000200  0.00000400  0.99999900  1
  Al  Al2  1  0.49999904  0.99999899  0.00000194  1
  Ga  Ga3  1  0.99999799  0.00000400  0.49999898  1
  Se  Se4  1  0.00000002  0.49999800  0.00000097  1
  Se  Se5  1  0.75190500  0.24809700  0.24809098  1
  Se  Se6  1  0.24810003  0.75190099  0.24809496  1
  Se  Se7  1  0.24809601  0.24809600  0.75191198  1
  Se  Se8  1  0.75190103  0.75189999  0.75190495  1
