# generated using pymatgen
data_PrB2Ru2C
_symmetry_space_group_name_H-M   'P 1'
_cell_length_a   3.87430191
_cell_length_b   3.87430191
_cell_length_c   6.05826139
_cell_angle_alpha   108.64802551
_cell_angle_beta   108.64802551
_cell_angle_gamma   90.00000000
_symmetry_Int_Tables_number   1
_chemical_formula_structural   PrB2Ru2C
_chemical_formula_sum   'Pr1 B2 Ru2 C1'
_cell_volume   81.10715776
_cell_formula_units_Z   1
loop_
 _symmetry_equiv_pos_site_id
 _symmetry_equiv_pos_as_xyz
  1  'x, y, z'
loop_
 _atom_site_type_symbol
 _atom_site_label
 _atom_site_symmetry_multiplicity
 _atom_site_fract_x
 _atom_site_fract_y
 _atom_site_fract_z
 _atom_site_occupancy
  Pr  Pr0  1  0.00000000  0.00000000  0.00000000  1
  B  B1  1  0.63734702  0.63734702  0.27469400  1
  B  B2  1  0.36265301  0.36265301  0.72530600  1
  Ru  Ru3  1  0.75000002  0.25000001  0.50000000  1
  Ru  Ru4  1  0.25000001  0.75000002  0.50000000  1
  C  C5  1  0.50000001  0.50000001  0.00000000  1
