# generated using pymatgen
data_NbI4
_symmetry_space_group_name_H-M   'P 1'
_cell_length_a   8.17908192
_cell_length_b   9.60904503
_cell_length_c   9.60904503
_cell_angle_alpha   62.31317520
_cell_angle_beta   87.20069122
_cell_angle_gamma   92.79930878
_symmetry_Int_Tables_number   1
_chemical_formula_structural   NbI4
_chemical_formula_sum   'Nb2 I8'
_cell_volume   665.74865546
_cell_formula_units_Z   2
loop_
 _symmetry_equiv_pos_site_id
 _symmetry_equiv_pos_as_xyz
  1  'x, y, z'
loop_
 _atom_site_type_symbol
 _atom_site_label
 _atom_site_symmetry_multiplicity
 _atom_site_fract_x
 _atom_site_fract_y
 _atom_site_fract_z
 _atom_site_occupancy
  Nb  Nb0  1  0.74999998  0.08036100  0.08036102  1
  Nb  Nb1  1  0.24999994  0.91963902  0.91963900  1
  I  I2  1  0.27124696  0.59393402  0.99237401  1
  I  I3  1  0.77124698  0.00762600  0.40606603  1
  I  I4  1  0.94298293  0.78199802  0.16000501  1
  I  I5  1  0.05701699  0.21800201  0.83999501  1
  I  I6  1  0.44298294  0.83999502  0.21800200  1
  I  I7  1  0.72875296  0.40606601  0.00762601  1
  I  I8  1  0.55701698  0.16000500  0.78199803  1
  I  I9  1  0.22875294  0.99237403  0.59393399  1
