# generated using pymatgen
data_MgZn2
_symmetry_space_group_name_H-M   'P 1'
_cell_length_a   4.88379002
_cell_length_b   5.01833820
_cell_length_c   5.14463282
_cell_angle_alpha   60.80879974
_cell_angle_beta   90.00000000
_cell_angle_gamma   90.00000000
_symmetry_Int_Tables_number   1
_chemical_formula_structural   MgZn2
_chemical_formula_sum   'Mg2 Zn4'
_cell_volume   110.07382079
_cell_formula_units_Z   2
loop_
 _symmetry_equiv_pos_site_id
 _symmetry_equiv_pos_as_xyz
  1  'x, y, z'
loop_
 _atom_site_type_symbol
 _atom_site_label
 _atom_site_symmetry_multiplicity
 _atom_site_fract_x
 _atom_site_fract_y
 _atom_site_fract_z
 _atom_site_occupancy
  Mg  Mg0  1  0.25000000  0.19720199  0.99999999  1
  Mg  Mg1  1  0.75000000  0.80279797  -0.00000001  1
  Zn  Zn2  1  0.75000000  0.14807699  0.33138300  1
  Zn  Zn3  1  0.25000000  0.52053998  0.33138299  1
  Zn  Zn4  1  0.25000000  0.85192297  0.66861699  1
  Zn  Zn5  1  0.75000000  0.47945998  0.66861699  1
