# generated using pymatgen
data_Li2Mg
_symmetry_space_group_name_H-M   'P 1'
_cell_length_a   3.05399609
_cell_length_b   5.03214216
_cell_length_c   8.07514668
_cell_angle_alpha   90.00000000
_cell_angle_beta   100.90017700
_cell_angle_gamma   90.00000000
_symmetry_Int_Tables_number   1
_chemical_formula_structural   Li2Mg
_chemical_formula_sum   'Li4 Mg2'
_cell_volume   121.86100823
_cell_formula_units_Z   2
loop_
 _symmetry_equiv_pos_site_id
 _symmetry_equiv_pos_as_xyz
  1  'x, y, z'
loop_
 _atom_site_type_symbol
 _atom_site_label
 _atom_site_symmetry_multiplicity
 _atom_site_fract_x
 _atom_site_fract_y
 _atom_site_fract_z
 _atom_site_occupancy
  Li  Li0  1  0.99950097  0.00000000  0.99900201  1
  Li  Li1  1  0.33329199  0.00000000  0.66662534  1
  Li  Li2  1  0.66666665  0.00000000  0.33326967  1
  Li  Li3  1  0.44442699  0.49999998  0.88885401  1
  Mg  Mg4  1  0.10982300  0.49999998  0.21964600  1
  Mg  Mg5  1  0.77968598  0.49999998  0.55937200  1
