# generated using pymatgen
data_NbAlCo
_symmetry_space_group_name_H-M   'P 1'
_cell_length_a   4.75735378
_cell_length_b   4.75735378
_cell_length_c   8.00214386
_cell_angle_alpha   90.00000000
_cell_angle_beta   90.00000000
_cell_angle_gamma   119.16608429
_symmetry_Int_Tables_number   1
_chemical_formula_structural   NbAlCo
_chemical_formula_sum   'Nb4 Al4 Co4'
_cell_volume   158.14530598
_cell_formula_units_Z   4
loop_
 _symmetry_equiv_pos_site_id
 _symmetry_equiv_pos_as_xyz
  1  'x, y, z'
loop_
 _atom_site_type_symbol
 _atom_site_label
 _atom_site_symmetry_multiplicity
 _atom_site_fract_x
 _atom_site_fract_y
 _atom_site_fract_z
 _atom_site_occupancy
  Nb  Nb0  1  0.33089500  0.66910500  0.68362701  1
  Nb  Nb1  1  0.66442000  0.33558000  0.81063801  1
  Nb  Nb2  1  0.66442000  0.33558000  0.18936200  1
  Nb  Nb3  1  0.33089500  0.66910500  0.31637301  1
  Al  Al4  1  0.83033300  0.16966700  0.50000001  1
  Al  Al5  1  0.17062700  0.34244200  -0.00000000  1
  Al  Al6  1  0.65755800  0.82937300  -0.00000000  1
  Al  Al7  1  0.17234500  0.82765500  1.00000002  1
  Co  Co8  1  0.00058600  0.99941401  0.74441701  1
  Co  Co9  1  0.00058600  0.99941401  0.25558300  1
  Co  Co10  1  0.83526400  0.65812100  0.50000001  1
  Co  Co11  1  0.34187900  0.16473600  0.50000001  1
