# generated using pymatgen
data_CuP4HO14
_symmetry_space_group_name_H-M   'P 1'
_cell_length_a   4.78514528
_cell_length_b   7.57894278
_cell_length_c   7.57894278
_cell_angle_alpha   91.76184845
_cell_angle_beta   105.50035095
_cell_angle_gamma   105.50035095
_symmetry_Int_Tables_number   1
_chemical_formula_structural   CuP4HO14
_chemical_formula_sum   'Cu1 P4 H1 O14'
_cell_volume   253.68065331
_cell_formula_units_Z   1
loop_
 _symmetry_equiv_pos_site_id
 _symmetry_equiv_pos_as_xyz
  1  'x, y, z'
loop_
 _atom_site_type_symbol
 _atom_site_label
 _atom_site_symmetry_multiplicity
 _atom_site_fract_x
 _atom_site_fract_y
 _atom_site_fract_z
 _atom_site_occupancy
  P  P0  1  0.75000001  0.22828501  0.77171504  1
  Cu  Cu1  1  0.25000007  0.77171502  0.22828500  1
  P  P2  1  0.25000000  0.09890200  0.90109802  1
  H  H3  1  0.75000007  0.90109803  0.09890201  1
  P  P4  1  0.23703406  0.62934702  0.79920501  1
  P  P5  1  0.76296602  0.37065301  0.20079503  1
  O  O6  1  0.73703406  0.79920502  0.62934702  1
  O  O7  1  0.26296601  0.20079501  0.37065301  1
  O  O8  1  0.99131901  0.29211301  0.35583504  1
  O  O9  1  0.40108501  0.18694501  0.56730502  1
  O  O10  1  0.09891504  0.43269501  0.81305501  1
  O  O11  1  0.34978307  0.76334802  0.97505801  1
  O  O12  1  0.15021700  0.02494200  0.23665201  1
  O  O13  1  0.65021701  0.23665201  0.02494202  1
  O  O14  1  0.90108504  0.56730502  0.18694503  1
  O  O15  1  0.50868105  0.64416502  0.70788702  1
  O  O16  1  0.84978308  0.97505803  0.76334803  1
  O  O17  1  0.49131902  0.35583501  0.29211302  1
  O  O18  1  0.00868107  0.70788702  0.64416500  1
  O  O19  1  0.59891507  0.81305503  0.43269501  1
