# generated using pymatgen
data_Dy4(GeAs2)3
_symmetry_space_group_name_H-M   'P 1'
_cell_length_a   3.96816707
_cell_length_b   4.08307695
_cell_length_c   16.02800941
_cell_angle_alpha   90.00000000
_cell_angle_beta   90.00000000
_cell_angle_gamma   90.00000000
_symmetry_Int_Tables_number   1
_chemical_formula_structural   Dy4(GeAs2)3
_chemical_formula_sum   'Dy4 Ge3 As6'
_cell_volume   259.69112180
_cell_formula_units_Z   1
loop_
 _symmetry_equiv_pos_site_id
 _symmetry_equiv_pos_as_xyz
  1  'x, y, z'
loop_
 _atom_site_type_symbol
 _atom_site_label
 _atom_site_symmetry_multiplicity
 _atom_site_fract_x
 _atom_site_fract_y
 _atom_site_fract_z
 _atom_site_occupancy
  Dy  Dy0  1  0.25000000  0.00000000  0.09693100  1
  Dy  Dy1  1  0.25000000  0.50000001  0.61004698  1
  Dy  Dy2  1  0.74999999  0.50000001  0.39941699  1
  Dy  Dy3  1  0.74999999  0.00000000  0.89485198  1
  Ge  Ge4  1  0.25000000  0.00000000  0.46761799  1
  As  As5  1  0.25000000  0.50000001  0.94024198  1
  As  As6  1  0.74999999  0.50000001  0.04785000  1
  Ge  Ge7  1  0.74999999  0.00000000  0.57097699  1
  As  As8  1  0.25000000  0.50000001  0.22887499  1
  As  As9  1  0.25000000  0.00000000  0.75031898  1
  As  As10  1  0.74999999  0.00000000  0.22724199  1
  As  As11  1  0.74999999  0.50000001  0.75513898  1
  Ge  Ge12  1  0.25000000  0.00000000  0.31749199  1
