# generated using pymatgen
data_Na2Cu5Sn
_symmetry_space_group_name_H-M   'P 1'
_cell_length_a   4.55766201
_cell_length_b   4.55766201
_cell_length_c   9.17161846
_cell_angle_alpha   90.00000000
_cell_angle_beta   90.00000000
_cell_angle_gamma   120.00000000
_symmetry_Int_Tables_number   1
_chemical_formula_structural   Na2Cu5Sn
_chemical_formula_sum   'Na2 Cu5 Sn1'
_cell_volume   164.99122319
_cell_formula_units_Z   1
loop_
 _symmetry_equiv_pos_site_id
 _symmetry_equiv_pos_as_xyz
  1  'x, y, z'
loop_
 _atom_site_type_symbol
 _atom_site_label
 _atom_site_symmetry_multiplicity
 _atom_site_fract_x
 _atom_site_fract_y
 _atom_site_fract_z
 _atom_site_occupancy
  Na  Na0  1  0.66666666  0.33333333  0.74999996  1
  Na  Na1  1  0.33333333  0.66666665  0.24999999  1
  Cu  Cu2  1  0.00000000  0.00000000  0.49999997  1
  Cu  Cu3  1  0.00000000  0.00000000  0.00000000  1
  Cu  Cu4  1  0.66666666  0.33333333  0.09072100  1
  Cu  Cu5  1  0.33333333  0.66666665  0.90927895  1
  Cu  Cu6  1  0.33333333  0.66666665  0.59072097  1
  Sn  Sn7  1  0.66666666  0.33333333  0.40927898  1
