# generated using pymatgen
data_In7Rh13
_symmetry_space_group_name_H-M   'P 1'
_cell_length_a   4.10547495
_cell_length_b   4.10547495
_cell_length_c   20.48827553
_cell_angle_alpha   90.00000000
_cell_angle_beta   90.00000000
_cell_angle_gamma   90.00000000
_symmetry_Int_Tables_number   1
_chemical_formula_structural   In7Rh13
_chemical_formula_sum   'In7 Rh13'
_cell_volume   345.32833830
_cell_formula_units_Z   1
loop_
 _symmetry_equiv_pos_site_id
 _symmetry_equiv_pos_as_xyz
  1  'x, y, z'
loop_
 _atom_site_type_symbol
 _atom_site_label
 _atom_site_symmetry_multiplicity
 _atom_site_fract_x
 _atom_site_fract_y
 _atom_site_fract_z
 _atom_site_occupancy
  In  In0  1  0.00000000  0.00000000  0.20054199  1
  In  In1  1  0.00000000  0.00000000  0.39995899  1
  In  In2  1  0.00000000  0.00000000  0.60004098  1
  In  In3  1  0.00000000  0.00000000  0.79945798  1
  In  In4  1  0.50000001  0.50000001  0.00000000  1
  Rh  Rh5  1  0.50000001  0.50000001  0.19957199  1
  In  In6  1  0.50000001  0.50000001  0.39998699  1
  In  In7  1  0.50000001  0.50000001  0.60001298  1
  Rh  Rh8  1  0.50000001  0.50000001  0.80042798  1
  Rh  Rh9  1  0.50000001  0.00000000  0.10019700  1
  Rh  Rh10  1  0.50000001  0.00000000  0.30019899  1
  Rh  Rh11  1  0.50000001  0.00000000  0.49999999  1
  Rh  Rh12  1  0.50000001  0.00000000  0.69980098  1
  Rh  Rh13  1  0.50000001  0.00000000  0.89980298  1
  Rh  Rh14  1  0.00000000  0.50000001  0.10019700  1
  Rh  Rh15  1  0.00000000  0.50000001  0.30019899  1
  Rh  Rh16  1  0.00000000  0.50000001  0.49999999  1
  Rh  Rh17  1  0.00000000  0.50000001  0.69980098  1
  Rh  Rh18  1  0.00000000  0.50000001  0.89980298  1
  Rh  Rh19  1  0.00000000  0.00000000  0.00000000  1
