# generated using pymatgen
data_LiFe2O3
_symmetry_space_group_name_H-M   'P 1'
_cell_length_a   2.96736932
_cell_length_b   5.94848633
_cell_length_c   7.02457619
_cell_angle_alpha   78.21575928
_cell_angle_beta   77.80613708
_cell_angle_gamma   90.00215149
_symmetry_Int_Tables_number   1
_chemical_formula_structural   LiFe2O3
_chemical_formula_sum   'Li2 Fe4 O6'
_cell_volume   118.52061243
_cell_formula_units_Z   2
loop_
 _symmetry_equiv_pos_site_id
 _symmetry_equiv_pos_as_xyz
  1  'x, y, z'
loop_
 _atom_site_type_symbol
 _atom_site_label
 _atom_site_symmetry_multiplicity
 _atom_site_fract_x
 _atom_site_fract_y
 _atom_site_fract_z
 _atom_site_occupancy
  Li  Li0  1  0.33323800  0.16662000  0.33352499  1
  Li  Li1  1  0.99350601  0.49228601  0.01294397  1
  Fe  Fe2  1  0.67316700  0.84118202  0.65370696  1
  Fe  Fe3  1  0.33307200  0.66666669  0.33384997  1
  Fe  Fe4  1  0.66441301  0.32507101  0.67119498  1
  Fe  Fe5  1  0.00232600  0.00794600  0.99532000  1
  O  O6  1  0.48292000  0.75539002  0.03424996  1
  O  O7  1  0.18400500  0.57882402  0.63192298  1
  O  O8  1  0.16860100  0.09272800  0.66296400  1
  O  O9  1  0.49794601  0.23980101  0.00392598  1
  O  O10  1  0.83751601  0.44450901  0.32498897  1
  O  O11  1  0.82928901  0.88899103  0.34140996  1
