# generated using pymatgen
data_TbS
_symmetry_space_group_name_H-M   'P 1'
_cell_length_a   4.11726618
_cell_length_b   4.11726618
_cell_length_c   13.84352207
_cell_angle_alpha   90.00000000
_cell_angle_beta   90.00000000
_cell_angle_gamma   120.00000000
_symmetry_Int_Tables_number   1
_chemical_formula_structural   TbS
_chemical_formula_sum   'Tb4 S4'
_cell_volume   203.23341677
_cell_formula_units_Z   4
loop_
 _symmetry_equiv_pos_site_id
 _symmetry_equiv_pos_as_xyz
  1  'x, y, z'
loop_
 _atom_site_type_symbol
 _atom_site_label
 _atom_site_symmetry_multiplicity
 _atom_site_fract_x
 _atom_site_fract_y
 _atom_site_fract_z
 _atom_site_occupancy
  Tb  Tb0  1  0.66666664  0.33333332  0.11731700  1
  Tb  Tb1  1  0.33333332  0.66666665  0.88268300  1
  Tb  Tb2  1  0.33333332  0.66666665  0.61731700  1
  Tb  Tb3  1  0.66666664  0.33333332  0.38268300  1
  S  S4  1  0.66666664  0.33333332  0.75000000  1
  S  S5  1  0.33333332  0.66666665  0.25000000  1
  S  S6  1  0.00000000  0.00000000  0.50000000  1
  S  S7  1  0.00000000  0.00000000  0.00000000  1
