# generated using pymatgen
data_Li2CoO4
_symmetry_space_group_name_H-M   'P 1'
_cell_length_a   5.65596199
_cell_length_b   5.65596199
_cell_length_c   5.82807684
_cell_angle_alpha   62.36813736
_cell_angle_beta   62.36813736
_cell_angle_gamma   60.44305420
_symmetry_Int_Tables_number   1
_chemical_formula_structural   Li2CoO4
_chemical_formula_sum   'Li4 Co2 O8'
_cell_volume   136.83693562
_cell_formula_units_Z   2
loop_
 _symmetry_equiv_pos_site_id
 _symmetry_equiv_pos_as_xyz
  1  'x, y, z'
loop_
 _atom_site_type_symbol
 _atom_site_label
 _atom_site_symmetry_multiplicity
 _atom_site_fract_x
 _atom_site_fract_y
 _atom_site_fract_z
 _atom_site_occupancy
  Li  Li0  1  0.49999998  0.00000000  0.50000001  1
  Li  Li1  1  0.00000001  0.49999998  0.50000001  1
  Li  Li2  1  0.00000000  0.00000000  0.00000000  1
  Li  Li3  1  0.49999999  0.49999998  0.00000000  1
  Co  Co4  1  0.49999998  0.00000000  0.00000000  1
  Co  Co5  1  0.00000001  0.49999998  0.00000000  1
  O  O6  1  0.27032800  0.76127297  0.20224101  1
  O  O7  1  0.76127298  0.27032799  0.20224101  1
  O  O8  1  0.27005699  0.27005699  0.20458800  1
  O  O9  1  0.76766198  0.76766197  0.20992701  1
  O  O10  1  0.23233800  0.23233799  0.79007301  1
  O  O11  1  0.72994298  0.72994297  0.79541201  1
  O  O12  1  0.23872700  0.72967197  0.79775901  1
  O  O13  1  0.72967198  0.23872699  0.79775901  1
