# generated using pymatgen
data_LaCo3(CuO3)4
_symmetry_space_group_name_H-M   'P 1'
_cell_length_a   6.53453255
_cell_length_b   6.53453255
_cell_length_c   6.53453255
_cell_angle_alpha   109.47122192
_cell_angle_beta   109.47122192
_cell_angle_gamma   109.47122192
_symmetry_Int_Tables_number   1
_chemical_formula_structural   LaCo3(CuO3)4
_chemical_formula_sum   'La1 Co3 Cu4 O12'
_cell_volume   214.79376214
_cell_formula_units_Z   1
loop_
 _symmetry_equiv_pos_site_id
 _symmetry_equiv_pos_as_xyz
  1  'x, y, z'
loop_
 _atom_site_type_symbol
 _atom_site_label
 _atom_site_symmetry_multiplicity
 _atom_site_fract_x
 _atom_site_fract_y
 _atom_site_fract_z
 _atom_site_occupancy
  La  La0  1  0.00000000  0.00000000  0.00000000  1
  Co  Co1  1  0.49999999  0.00000000  0.50000000  1
  Co  Co2  1  0.00000003  0.50000000  0.50000001  1
  Co  Co3  1  0.50000002  0.50000000  0.00000004  1
  Cu  Cu4  1  0.49999999  0.00000000  0.00000001  1
  Cu  Cu5  1  0.00000000  0.00000000  0.49999998  1
  Cu  Cu6  1  0.50000002  0.50000000  0.50000002  1
  Cu  Cu7  1  0.00000003  0.50000000  0.00000003  1
  O  O8  1  0.52113104  0.82727101  0.69386004  1
  O  O9  1  0.30614002  0.47886900  0.17272903  1
  O  O10  1  0.17272902  0.30614000  0.47886901  1
  O  O11  1  0.82727102  0.69386000  0.52113104  1
  O  O12  1  0.69386002  0.52113100  0.82727102  1
  O  O13  1  0.86658899  0.17272900  0.69386001  1
  O  O14  1  0.47886900  0.17272900  0.30614001  1
  O  O15  1  0.82727100  0.30614000  0.13341103  1
  O  O16  1  0.13341105  0.82727101  0.30614004  1
  O  O17  1  0.69386004  0.86658901  0.17272906  1
  O  O18  1  0.17272904  0.69386000  0.86658901  1
  O  O19  1  0.30614000  0.13341100  0.82727099  1
