# generated using pymatgen
data_LiF
_symmetry_space_group_name_H-M   'P 1'
_cell_length_a   3.06192946
_cell_length_b   5.17628670
_cell_length_c   5.21061182
_cell_angle_alpha   72.84819031
_cell_angle_beta   89.38294983
_cell_angle_gamma   89.97559357
_symmetry_Int_Tables_number   1
_chemical_formula_structural   LiF
_chemical_formula_sum   'Li4 F4'
_cell_volume   78.90746371
_cell_formula_units_Z   4
loop_
 _symmetry_equiv_pos_site_id
 _symmetry_equiv_pos_as_xyz
  1  'x, y, z'
loop_
 _atom_site_type_symbol
 _atom_site_label
 _atom_site_symmetry_multiplicity
 _atom_site_fract_x
 _atom_site_fract_y
 _atom_site_fract_z
 _atom_site_occupancy
  Li  Li0  1  0.50947598  0.50048499  0.99997296  1
  Li  Li1  1  0.01076500  0.00057100  0.99988598  1
  Li  Li2  1  0.51074400  0.00058500  0.49986499  1
  Li  Li3  1  0.01065298  0.50058399  0.49986297  1
  F  F4  1  0.99401499  0.24210699  0.25349599  1
  F  F5  1  0.51068699  0.23634099  0.77612998  1
  F  F6  1  0.51078797  0.76483498  0.22360597  1
  F  F7  1  0.02737197  0.75908898  0.74619896  1
