# generated using pymatgen
data_Rb3AgF6
_symmetry_space_group_name_H-M   'P 1'
_cell_length_a   6.54360008
_cell_length_b   6.54360008
_cell_length_c   9.45204926
_cell_angle_alpha   90.00000000
_cell_angle_beta   90.00000000
_cell_angle_gamma   90.00000000
_symmetry_Int_Tables_number   1
_chemical_formula_structural   Rb3AgF6
_chemical_formula_sum   'Rb6 Ag2 F12'
_cell_volume   404.72448072
_cell_formula_units_Z   2
loop_
 _symmetry_equiv_pos_site_id
 _symmetry_equiv_pos_as_xyz
  1  'x, y, z'
loop_
 _atom_site_type_symbol
 _atom_site_label
 _atom_site_symmetry_multiplicity
 _atom_site_fract_x
 _atom_site_fract_y
 _atom_site_fract_z
 _atom_site_occupancy
  Rb  Rb0  1  0.00000000  0.00000000  0.00000000  1
  Rb  Rb1  1  0.49999999  0.49999999  0.49999999  1
  Rb  Rb2  1  0.00000000  0.49999999  0.24999999  1
  Rb  Rb3  1  0.00000000  0.49999999  0.74999998  1
  Rb  Rb4  1  0.49999999  0.00000000  0.24999999  1
  Rb  Rb5  1  0.49999999  0.00000000  0.74999998  1
  Ag  Ag6  1  0.00000000  0.00000000  0.49999999  1
  Ag  Ag7  1  0.49999999  0.49999999  0.00000000  1
  F  F8  1  0.14167900  0.27810000  0.00000000  1
  F  F9  1  0.85832099  0.72189999  -0.00000000  1
  F  F10  1  0.72189999  0.14167900  0.00000000  1
  F  F11  1  0.35832100  0.77809999  0.49999999  1
  F  F12  1  0.27810000  0.85832099  0.00000000  1
  F  F13  1  0.64167899  0.22190000  0.49999999  1
  F  F14  1  0.77809999  0.64167899  0.49999999  1
  F  F15  1  0.22190000  0.35832100  0.49999999  1
  F  F16  1  0.00000000  0.00000000  0.21596399  1
  F  F17  1  0.00000000  0.00000000  0.78403598  1
  F  F18  1  0.49999999  0.49999999  0.28403599  1
  F  F19  1  0.49999999  0.49999999  0.71596398  1
