# generated using pymatgen
data_Ba(InAu)2
_symmetry_space_group_name_H-M   'P 1'
_cell_length_a   4.96768618
_cell_length_b   4.96768618
_cell_length_c   6.68174267
_cell_angle_alpha   111.82270813
_cell_angle_beta   111.82270813
_cell_angle_gamma   90.00000000
_symmetry_Int_Tables_number   1
_chemical_formula_structural   Ba(InAu)2
_chemical_formula_sum   'Ba1 In2 Au2'
_cell_volume   140.26678123
_cell_formula_units_Z   1
loop_
 _symmetry_equiv_pos_site_id
 _symmetry_equiv_pos_as_xyz
  1  'x, y, z'
loop_
 _atom_site_type_symbol
 _atom_site_label
 _atom_site_symmetry_multiplicity
 _atom_site_fract_x
 _atom_site_fract_y
 _atom_site_fract_z
 _atom_site_occupancy
  Ba  Ba0  1  0.00026500  0.00026500  0.00053000  1
  In  In1  1  0.25003197  0.75003196  0.50006396  1
  In  In2  1  0.41253897  0.41253898  0.82507796  1
  Au  Au3  1  0.75003196  0.25003199  0.50006397  1
  Au  Au4  1  0.64913296  0.64913297  0.29826596  1
