# generated using pymatgen
data_Te3Mo3W2(SeS)2
_symmetry_space_group_name_H-M   'P 1'
_cell_length_a   3.36251402
_cell_length_b   3.36251354
_cell_length_c   39.74253082
_cell_angle_alpha   90.00000000
_cell_angle_beta   90.00000000
_cell_angle_gamma   120.00000763
_symmetry_Int_Tables_number   1
_chemical_formula_structural   Te3Mo3W2(SeS)2
_chemical_formula_sum   'Te3 Mo3 W2 Se2 S2'
_cell_volume   389.14751707
_cell_formula_units_Z   1
loop_
 _symmetry_equiv_pos_site_id
 _symmetry_equiv_pos_as_xyz
  1  'x, y, z'
loop_
 _atom_site_type_symbol
 _atom_site_label
 _atom_site_symmetry_multiplicity
 _atom_site_fract_x
 _atom_site_fract_y
 _atom_site_fract_z
 _atom_site_occupancy
  Mo  Mo0  1  0.66666668  0.33333334  0.04781200  1
  Te  Te1  1  0.33333337  0.66666668  0.95218800  1
  Te  Te2  1  0.33333337  0.66666668  0.85718600  1
  Mo  Mo3  1  0.66666668  0.33333334  0.14281400  1
  W  W4  1  0.66666668  0.33333334  0.28189600  1
  Mo  Mo5  1  0.66666668  0.33333334  0.90466400  1
  Te  Te6  1  0.33333337  0.66666668  0.09533600  1
  W  W7  1  0.33333337  0.66666668  0.71810400  1
  S  S8  1  0.66666668  0.33333334  0.67998300  1
  S  S9  1  0.33333337  0.66666668  0.32001700  1
  Se  Se10  1  0.33333337  0.66666668  0.24384300  1
  Se  Se11  1  0.66666668  0.33333334  0.75615700  1
