# generated using pymatgen
data_Tl2Se3
_symmetry_space_group_name_H-M   'P 1'
_cell_length_a   4.29717398
_cell_length_b   7.33043575
_cell_length_c   10.68204212
_cell_angle_alpha   90.00000000
_cell_angle_beta   90.00000000
_cell_angle_gamma   107.04393768
_symmetry_Int_Tables_number   1
_chemical_formula_structural   Tl2Se3
_chemical_formula_sum   'Tl4 Se6'
_cell_volume   321.70763634
_cell_formula_units_Z   2
loop_
 _symmetry_equiv_pos_site_id
 _symmetry_equiv_pos_as_xyz
  1  'x, y, z'
loop_
 _atom_site_type_symbol
 _atom_site_label
 _atom_site_symmetry_multiplicity
 _atom_site_fract_x
 _atom_site_fract_y
 _atom_site_fract_z
 _atom_site_occupancy
  Tl  Tl0  1  0.25244902  0.50489800  0.25000000  1
  Tl  Tl1  1  0.74755102  0.49510200  0.74999999  1
  Tl  Tl2  1  0.00000000  0.00000000  0.49999999  1
  Tl  Tl3  1  0.00000000  0.00000000  0.00000000  1
  Se  Se4  1  0.36404703  0.72809400  0.55708199  1
  Se  Se5  1  0.63595301  0.27190600  0.05708200  1
  Se  Se6  1  0.36404703  0.72809400  0.94291799  1
  Se  Se7  1  0.63595301  0.27190600  0.44291799  1
  Se  Se8  1  0.91432703  0.82865400  0.25000000  1
  Se  Se9  1  0.08567301  0.17134600  0.74999999  1
