# generated using pymatgen
data_PbBrClF2
_symmetry_space_group_name_H-M   'P 1'
_cell_length_a   3.88878345
_cell_length_b   3.88878345
_cell_length_c   7.42237520
_cell_angle_alpha   74.82360077
_cell_angle_beta   74.82360077
_cell_angle_gamma   89.99129486
_symmetry_Int_Tables_number   1
_chemical_formula_structural   PbBrClF2
_chemical_formula_sum   'Pb1 Br1 Cl1 F2'
_cell_volume   104.27099273
_cell_formula_units_Z   1
loop_
 _symmetry_equiv_pos_site_id
 _symmetry_equiv_pos_as_xyz
  1  'x, y, z'
loop_
 _atom_site_type_symbol
 _atom_site_label
 _atom_site_symmetry_multiplicity
 _atom_site_fract_x
 _atom_site_fract_y
 _atom_site_fract_z
 _atom_site_occupancy
  Pb  Pb0  1  0.33507099  0.33507000  0.82971297  1
  Br  Br1  1  0.66492899  0.66493000  0.17028697  1
  F  F2  1  0.00000000  0.00000000  0.49999999  1
  Cl  Cl3  1  0.15103200  0.15103200  0.19837999  1
  F  F4  1  0.84896799  0.84896800  0.80161995  1
