# generated using pymatgen
data_Ti3Co4NiSn4
_symmetry_space_group_name_H-M   'P 1'
_cell_length_a   5.01819420
_cell_length_b   5.01819468
_cell_length_c   7.82895708
_cell_angle_alpha   90.00000000
_cell_angle_beta   90.00000000
_cell_angle_gamma   120.00000000
_symmetry_Int_Tables_number   1
_chemical_formula_structural   Ti3Co4NiSn4
_chemical_formula_sum   'Ti3 Co4 Ni1 Sn4'
_cell_volume   170.73773399
_cell_formula_units_Z   1
loop_
 _symmetry_equiv_pos_site_id
 _symmetry_equiv_pos_as_xyz
  1  'x, y, z'
loop_
 _atom_site_type_symbol
 _atom_site_label
 _atom_site_symmetry_multiplicity
 _atom_site_fract_x
 _atom_site_fract_y
 _atom_site_fract_z
 _atom_site_occupancy
  Ti  Ti0  1  0.66666666  0.33333333  0.55442399  1
  Ti  Ti1  1  0.33333336  0.66666666  0.44557600  1
  Ti  Ti2  1  0.33333336  0.66666666  0.05442400  1
  Co  Co3  1  0.66666666  0.33333333  0.94557599  1
  Co  Co4  1  0.00000000  0.00000000  0.49999999  1
  Co  Co5  1  0.00000000  0.00000000  0.00000000  1
  Ni  Ni6  1  0.16727201  0.33454399  0.74999999  1
  Sn  Sn7  1  0.16727204  0.83272799  0.74999999  1
  Sn  Sn8  1  0.66545602  0.83272799  0.74999999  1
  Sn  Sn9  1  0.83272801  0.66545599  0.25000000  1
  Co  Co10  1  0.83272798  0.16727200  0.25000000  1
  Sn  Sn11  1  0.33454400  0.16727200  0.25000000  1
