# generated using pymatgen
data_Ba(CuS)2
_symmetry_space_group_name_H-M   'P 1'
_cell_length_a   3.77366400
_cell_length_b   3.77366400
_cell_length_c   7.55368280
_cell_angle_alpha   104.46506500
_cell_angle_beta   104.46506500
_cell_angle_gamma   90.00000000
_symmetry_Int_Tables_number   1
_chemical_formula_structural   Ba(CuS)2
_chemical_formula_sum   'Ba1 Cu2 S2'
_cell_volume   100.63322756
_cell_formula_units_Z   1
loop_
 _symmetry_equiv_pos_site_id
 _symmetry_equiv_pos_as_xyz
  1  'x, y, z'
loop_
 _atom_site_type_symbol
 _atom_site_label
 _atom_site_symmetry_multiplicity
 _atom_site_fract_x
 _atom_site_fract_y
 _atom_site_fract_z
 _atom_site_occupancy
  Ba  Ba0  1  0.00000000  0.00000000  0.00000000  1
  Cu  Cu1  1  0.74999999  0.25000000  0.49999998  1
  Cu  Cu2  1  0.24999998  0.74999999  0.49999998  1
  S  S3  1  0.65319198  0.65319199  0.30638397  1
  S  S4  1  0.34680799  0.34680800  0.69361598  1
