# generated using pymatgen
data_NdSi2
_symmetry_space_group_name_H-M   'P 1'
_cell_length_a   4.43271589
_cell_length_b   5.62261677
_cell_length_c   15.39494228
_cell_angle_alpha   84.08918762
_cell_angle_beta   81.72255707
_cell_angle_gamma   66.78476715
_symmetry_Int_Tables_number   1
_chemical_formula_structural   NdSi2
_chemical_formula_sum   'Nd6 Si12'
_cell_volume   348.50305741
_cell_formula_units_Z   6
loop_
 _symmetry_equiv_pos_site_id
 _symmetry_equiv_pos_as_xyz
  1  'x, y, z'
loop_
 _atom_site_type_symbol
 _atom_site_label
 _atom_site_symmetry_multiplicity
 _atom_site_fract_x
 _atom_site_fract_y
 _atom_site_fract_z
 _atom_site_occupancy
  Nd  Nd0  1  0.60845594  0.70830204  0.07478601  1
  Nd  Nd1  1  0.94217695  0.71347604  0.40217001  1
  Nd  Nd2  1  0.27572194  0.71087304  0.73768300  1
  Nd  Nd3  1  0.72410699  0.29092002  0.26086600  1
  Nd  Nd4  1  0.05618497  0.29266502  0.59496499  1
  Nd  Nd5  1  0.39006198  0.29172802  0.92814799  1
  Si  Si6  1  0.37961794  0.70409404  0.53667000  1
  Si  Si7  1  0.71273195  0.70392504  0.87061100  1
  Si  Si8  1  0.90427001  0.11803301  0.07342700  1
  Si  Si9  1  0.23716099  0.11911201  0.40656600  1
  Si  Si10  1  0.56999200  0.11995901  0.74005699  1
  Si  Si11  1  0.42748092  0.88557105  0.25946701  1
  Si  Si12  1  0.75733193  0.89035805  0.59497800  1
  Si  Si13  1  0.09089592  0.88947705  0.92873100  1
  Si  Si14  1  0.29589998  0.28026002  0.12794000  1
  Si  Si15  1  0.62775699  0.28259102  0.46189500  1
  Si  Si16  1  0.96154299  0.28217902  0.79473500  1
  Si  Si17  1  0.03860793  0.71647804  0.20630600  1
