# generated using pymatgen
data_Cu3Ag2Te2Br
_symmetry_space_group_name_H-M   'P 1'
_cell_length_a   4.43912601
_cell_length_b   7.25226831
_cell_length_c   9.28706932
_cell_angle_alpha   68.31694794
_cell_angle_beta   80.75704956
_cell_angle_gamma   82.76227570
_symmetry_Int_Tables_number   1
_chemical_formula_structural   Cu3Ag2Te2Br
_chemical_formula_sum   'Cu3 Ag2 Te2 Br1'
_cell_volume   273.49766511
_cell_formula_units_Z   1
loop_
 _symmetry_equiv_pos_site_id
 _symmetry_equiv_pos_as_xyz
  1  'x, y, z'
loop_
 _atom_site_type_symbol
 _atom_site_label
 _atom_site_symmetry_multiplicity
 _atom_site_fract_x
 _atom_site_fract_y
 _atom_site_fract_z
 _atom_site_occupancy
  Cu  Cu0  1  0.16202394  0.50486301  0.14978600  1
  Cu  Cu1  1  0.83797594  0.49513701  0.85021402  1
  Te  Te2  1  0.26396497  0.25149600  0.00400600  1
  Ag  Ag3  1  0.73603491  0.74850401  0.99599402  1
  Ag  Ag4  1  0.35666599  0.03333200  0.81151102  1
  Cu  Cu5  1  0.19936292  0.70551801  0.57203500  1
  Te  Te6  1  0.64333389  0.96666801  0.18848900  1
  Br  Br7  1  0.80063696  0.29448200  0.42796502  1
