# generated using pymatgen
data_Li3WO4
_symmetry_space_group_name_H-M   'P 1'
_cell_length_a   4.12249422
_cell_length_b   4.12249422
_cell_length_c   5.25890827
_cell_angle_alpha   113.07610321
_cell_angle_beta   113.07610321
_cell_angle_gamma   90.00000000
_symmetry_Int_Tables_number   1
_chemical_formula_structural   Li3WO4
_chemical_formula_sum   'Li3 W1 O4'
_cell_volume   74.38791814
_cell_formula_units_Z   1
loop_
 _symmetry_equiv_pos_site_id
 _symmetry_equiv_pos_as_xyz
  1  'x, y, z'
loop_
 _atom_site_type_symbol
 _atom_site_label
 _atom_site_symmetry_multiplicity
 _atom_site_fract_x
 _atom_site_fract_y
 _atom_site_fract_z
 _atom_site_occupancy
  Li  Li0  1  0.50000000  0.49999998  0.00000004  1
  Li  Li1  1  0.25000002  0.74999998  0.50000003  1
  Li  Li2  1  0.74999998  0.24999999  0.50000002  1
  W  W3  1  0.00000000  0.00000000  0.00000000  1
  O  O4  1  0.76753300  0.76753298  0.53506605  1
  O  O5  1  0.51753298  0.01753300  0.03506602  1
  O  O6  1  0.98246698  0.48246699  0.96493403  1
  O  O7  1  0.23246700  0.23246699  0.46493401  1
