# generated using pymatgen
data_Be
_symmetry_space_group_name_H-M   'P 1'
_cell_length_a   4.12257385
_cell_length_b   5.48865747
_cell_length_c   5.48865747
_cell_angle_alpha   81.89192200
_cell_angle_beta   67.94144440
_cell_angle_gamma   67.94144440
_symmetry_Int_Tables_number   1
_chemical_formula_structural   Be
_chemical_formula_sum   Be13
_cell_volume   106.67760247
_cell_formula_units_Z   13
loop_
 _symmetry_equiv_pos_site_id
 _symmetry_equiv_pos_as_xyz
  1  'x, y, z'
loop_
 _atom_site_type_symbol
 _atom_site_label
 _atom_site_symmetry_multiplicity
 _atom_site_fract_x
 _atom_site_fract_y
 _atom_site_fract_z
 _atom_site_occupancy
  Be  Be0  1  0.71128602  0.78871403  0.78871397  1
  Be  Be1  1  1.00000005  0.00000000  0.49999999  1
  Be  Be2  1  0.50000001  0.50000002  -0.00000003  1
  Be  Be3  1  -0.00000001  0.50000002  1.00000000  1
  Be  Be4  1  0.50000000  1.00000004  0.49999996  1
  Be  Be5  1  0.34815200  0.65184802  0.65184798  1
  Be  Be6  1  -0.00000001  0.34815201  0.65184800  1
  Be  Be7  1  -0.00000001  0.65184802  0.34815198  1
  Be  Be8  1  0.65184802  0.34815201  0.34815198  1
  Be  Be9  1  0.28871401  0.21128601  0.21128599  1
  Be  Be10  1  0.50000001  0.78871403  0.21128596  1
  Be  Be11  1  0.50000002  0.21128601  0.78871400  1
  Be  Be12  1  0.00000000  0.00000000  0.00000000  1
