# generated using pymatgen
data_K3AgPb2S11
_symmetry_space_group_name_H-M   'P 1'
_cell_length_a   6.86361599
_cell_length_b   8.71683598
_cell_length_c   9.23611641
_cell_angle_alpha   80.80233002
_cell_angle_beta   88.93386841
_cell_angle_gamma   74.75918579
_symmetry_Int_Tables_number   1
_chemical_formula_structural   K3AgPb2S11
_chemical_formula_sum   'K3 Ag1 Pb2 S11'
_cell_volume   526.13904338
_cell_formula_units_Z   1
loop_
 _symmetry_equiv_pos_site_id
 _symmetry_equiv_pos_as_xyz
  1  'x, y, z'
loop_
 _atom_site_type_symbol
 _atom_site_label
 _atom_site_symmetry_multiplicity
 _atom_site_fract_x
 _atom_site_fract_y
 _atom_site_fract_z
 _atom_site_occupancy
  Ag  Ag0  1  0.51290605  0.64277898  0.63485799  1
  K  K1  1  0.48709403  0.35722099  0.36514199  1
  K  K2  1  0.18430706  0.90407597  0.16501296  1
  K  K3  1  0.08257501  0.19570199  0.98813503  1
  Pb  Pb4  1  0.91742506  0.80429797  0.01186494  1
  Pb  Pb5  1  0.81569301  0.09592400  0.83498702  1
  S  S6  1  0.45653901  0.17252399  0.18948299  1
  S  S7  1  0.38591503  0.48322498  0.82949501  1
  S  S8  1  0.81794902  0.19930499  0.42505600  1
  S  S9  1  0.14761804  0.52222498  0.28466498  1
  S  S10  1  0.61408504  0.51677498  0.17050497  1
  S  S11  1  0.34300101  0.20187799  0.54593901  1
  S  S12  1  0.85238203  0.47777498  0.71533500  1
  S  S13  1  0.65699906  0.79812197  0.45406097  1
  S  S14  1  0.18205106  0.80069497  0.57494398  1
  S  S15  1  0.54346106  0.82747597  0.81051699  1
  S  S16  1  0.50000004  0.49999998  0.49999999  1
