# generated using pymatgen
data_SrBiO3
_symmetry_space_group_name_H-M   'P 1'
_cell_length_a   6.10047579
_cell_length_b   6.21868944
_cell_length_c   8.70770073
_cell_angle_alpha   90.07248688
_cell_angle_beta   89.92704010
_cell_angle_gamma   89.80696869
_symmetry_Int_Tables_number   1
_chemical_formula_structural   SrBiO3
_chemical_formula_sum   'Sr4 Bi4 O12'
_cell_volume   330.34132358
_cell_formula_units_Z   4
loop_
 _symmetry_equiv_pos_site_id
 _symmetry_equiv_pos_as_xyz
  1  'x, y, z'
loop_
 _atom_site_type_symbol
 _atom_site_label
 _atom_site_symmetry_multiplicity
 _atom_site_fract_x
 _atom_site_fract_y
 _atom_site_fract_z
 _atom_site_occupancy
  Sr  Sr0  1  0.99104844  0.03590578  0.25026090  1
  Sr  Sr1  1  0.00895157  0.96409421  0.74973903  1
  Sr  Sr2  1  0.50000001  0.00000000  -0.00000002  1
  Sr  Sr3  1  -0.00000001  0.50000000  0.49999999  1
  Bi  Bi4  1  0.51081054  0.54721538  0.25103480  1
  Bi  Bi5  1  0.48918947  0.45278461  0.74896514  1
  Bi  Bi6  1  -0.00000001  0.50000000  -0.00000001  1
  Bi  Bi7  1  0.50000001  0.00000000  0.49999997  1
  O  O8  1  0.20946879  0.22060340  0.95347780  1
  O  O9  1  0.30883064  0.70207337  0.55262034  1
  O  O10  1  0.79053122  0.77939659  0.04652213  1
  O  O11  1  0.69116937  0.29792662  0.44737960  1
  O  O12  1  0.29469982  0.69396820  0.94542944  1
  O  O13  1  0.21897265  0.21293102  0.54511221  1
  O  O14  1  0.70530020  0.30603179  0.05457050  1
  O  O15  1  0.78102736  0.78706897  0.45488773  1
  O  O16  1  0.42631915  0.95081337  0.25411051  1
  O  O17  1  0.10978589  0.48780745  0.24409542  1
  O  O18  1  0.57368086  0.04918662  0.74588943  1
  O  O19  1  0.89021412  0.51219254  0.75590452  1
