# generated using pymatgen
data_SrCu2S3
_symmetry_space_group_name_H-M   'P 1'
_cell_length_a   5.12994814
_cell_length_b   5.12994814
_cell_length_c   16.26357269
_cell_angle_alpha   99.07416534
_cell_angle_beta   99.07416534
_cell_angle_gamma   90.00000000
_symmetry_Int_Tables_number   1
_chemical_formula_structural   SrCu2S3
_chemical_formula_sum   'Sr3 Cu6 S9'
_cell_volume   417.21662376
_cell_formula_units_Z   3
loop_
 _symmetry_equiv_pos_site_id
 _symmetry_equiv_pos_as_xyz
  1  'x, y, z'
loop_
 _atom_site_type_symbol
 _atom_site_label
 _atom_site_symmetry_multiplicity
 _atom_site_fract_x
 _atom_site_fract_y
 _atom_site_fract_z
 _atom_site_occupancy
  Sr  Sr0  1  0.25000000  0.74999998  0.50000003  1
  Sr  Sr1  1  0.00000000  0.00000000  0.00000000  1
  Sr  Sr2  1  0.87374698  0.37332399  0.24709101  1
  Cu  Cu3  1  0.12623300  0.12625300  0.75290904  1
  Cu  Cu4  1  0.62667599  0.62665598  0.75290904  1
  Cu  Cu5  1  0.37334399  0.87376698  0.24709101  1
  Cu  Cu6  1  0.37334399  0.37332399  0.24709101  1
  Cu  Cu7  1  0.62667598  0.12625300  0.75290904  1
  Cu  Cu8  1  0.12623300  0.62665598  0.75290904  1
  S  S9  1  0.87374698  0.87376698  0.24709102  1
  S  S10  1  0.57183599  0.07183600  0.14367201  1
  S  S11  1  0.82477198  0.82477198  0.64954403  1
  S  S12  1  0.32506899  0.32506899  0.65013803  1
  S  S13  1  0.07160200  0.57160199  0.14320401  1
  S  S14  1  0.67493098  0.67493098  0.34986202  1
  S  S15  1  0.92816398  0.42816399  0.85632804  1
  S  S16  1  0.42839799  0.92839798  0.85679604  1
  S  S17  1  0.17522800  0.17522800  0.35045602  1
