# generated using pymatgen
data_SmB3Ir5
_symmetry_space_group_name_H-M   'P 1'
_cell_length_a   3.96592903
_cell_length_b   7.76137590
_cell_length_c   7.76137590
_cell_angle_alpha   90.00000000
_cell_angle_beta   90.00000000
_cell_angle_gamma   90.00000000
_symmetry_Int_Tables_number   1
_chemical_formula_structural   SmB3Ir5
_chemical_formula_sum   'Sm2 B6 Ir10'
_cell_volume   238.90342412
_cell_formula_units_Z   2
loop_
 _symmetry_equiv_pos_site_id
 _symmetry_equiv_pos_as_xyz
  1  'x, y, z'
loop_
 _atom_site_type_symbol
 _atom_site_label
 _atom_site_symmetry_multiplicity
 _atom_site_fract_x
 _atom_site_fract_y
 _atom_site_fract_z
 _atom_site_occupancy
  Sm  Sm0  1  0.25000000  0.25000000  0.25000000  1
  Sm  Sm1  1  0.74999999  0.75000001  0.75000001  1
  B  B2  1  0.35959300  0.90941201  0.03063300  1
  B  B3  1  0.35959300  0.59058801  0.46936701  1
  B  B4  1  0.85959299  0.53063301  0.09058800  1
  B  B5  1  0.85959299  0.96936701  0.40941201  1
  B  B6  1  0.64040699  0.09058800  0.96936701  1
  B  B7  1  0.64040699  0.40941201  0.53063301  1
  Ir  Ir8  1  0.14040700  0.46936701  0.90941201  1
  Ir  Ir9  1  0.14040700  0.03063300  0.59058801  1
  Ir  Ir10  1  0.13843300  0.41457901  0.64300001  1
  Ir  Ir11  1  0.13843300  0.08542100  0.85700001  1
  Ir  Ir12  1  0.63843299  0.14300000  0.58542101  1
  Ir  Ir13  1  0.63843299  0.35700000  0.91457901  1
  Ir  Ir14  1  0.86156699  0.58542101  0.35700000  1
  Ir  Ir15  1  0.86156699  0.91457901  0.14300000  1
  Ir  Ir16  1  0.36156700  0.85700001  0.41457901  1
  Ir  Ir17  1  0.36156700  0.64300001  0.08542100  1
