# generated using pymatgen
data_CeSe
_symmetry_space_group_name_H-M   'P 1'
_cell_length_a   6.59266090
_cell_length_b   7.53477097
_cell_length_c   9.76169491
_cell_angle_alpha   90.00000000
_cell_angle_beta   90.00000000
_cell_angle_gamma   90.00000000
_symmetry_Int_Tables_number   1
_chemical_formula_structural   CeSe
_chemical_formula_sum   'Ce8 Se8'
_cell_volume   484.90428725
_cell_formula_units_Z   8
loop_
 _symmetry_equiv_pos_site_id
 _symmetry_equiv_pos_as_xyz
  1  'x, y, z'
loop_
 _atom_site_type_symbol
 _atom_site_label
 _atom_site_symmetry_multiplicity
 _atom_site_fract_x
 _atom_site_fract_y
 _atom_site_fract_z
 _atom_site_occupancy
  Ce  Ce0  1  0.32635800  0.67397000  0.06684900  1
  Ce  Ce1  1  0.17364200  0.17397000  0.43315100  1
  Ce  Ce2  1  0.67364201  0.32603000  0.56684901  1
  Ce  Ce3  1  0.82635801  0.82603000  0.93315101  1
  Ce  Ce4  1  0.67364201  0.32603000  0.93315101  1
  Ce  Ce5  1  0.82635801  0.82603000  0.56684901  1
  Ce  Ce6  1  0.32635800  0.67397000  0.43315100  1
  Ce  Ce7  1  0.17364200  0.17397000  0.06684900  1
  Se  Se8  1  0.85846401  0.54098100  0.25000000  1
  Se  Se9  1  0.64153601  0.04098100  0.25000000  1
  Se  Se10  1  0.14153600  0.45901900  0.75000001  1
  Se  Se11  1  0.35846401  0.95901900  0.75000001  1
  Se  Se12  1  0.05077000  0.88590100  0.25000000  1
  Se  Se13  1  0.44923001  0.38590100  0.25000000  1
  Se  Se14  1  0.94923001  0.11409900  0.75000001  1
  Se  Se15  1  0.55077001  0.61409900  0.75000001  1
