# generated using pymatgen
data_Nd3Ag5
_symmetry_space_group_name_H-M   'P 1'
_cell_length_a   6.54106379
_cell_length_b   6.54106379
_cell_length_c   10.51026726
_cell_angle_alpha   90.00000000
_cell_angle_beta   90.00000000
_cell_angle_gamma   101.76470184
_symmetry_Int_Tables_number   1
_chemical_formula_structural   Nd3Ag5
_chemical_formula_sum   'Nd6 Ag10'
_cell_volume   440.24070700
_cell_formula_units_Z   2
loop_
 _symmetry_equiv_pos_site_id
 _symmetry_equiv_pos_as_xyz
  1  'x, y, z'
loop_
 _atom_site_type_symbol
 _atom_site_label
 _atom_site_symmetry_multiplicity
 _atom_site_fract_x
 _atom_site_fract_y
 _atom_site_fract_z
 _atom_site_occupancy
  Nd  Nd0  1  0.12386100  0.12386100  0.74999998  1
  Nd  Nd1  1  0.87613897  0.87613898  0.24999999  1
  Nd  Nd2  1  0.70599198  0.29400799  0.49999999  1
  Nd  Nd3  1  0.70599198  0.29400799  -0.00000000  1
  Nd  Nd4  1  0.29400798  0.70599198  0.49999999  1
  Nd  Nd5  1  0.29400798  0.70599198  -0.00000000  1
  Ag  Ag6  1  0.57099597  0.99823698  0.74999998  1
  Ag  Ag7  1  0.00176299  0.42900399  0.24999999  1
  Ag  Ag8  1  0.42900399  0.00176300  0.24999999  1
  Ag  Ag9  1  0.99823697  0.57099599  0.74999998  1
  Ag  Ag10  1  0.80487197  0.80487198  0.95511998  1
  Ag  Ag11  1  0.19512799  0.19512800  0.04488000  1
  Ag  Ag12  1  0.80487197  0.80487198  0.54487999  1
  Ag  Ag13  1  0.19512799  0.19512800  0.45511999  1
  Ag  Ag14  1  0.51832398  0.51832399  0.74999998  1
  Ag  Ag15  1  0.48167598  0.48167599  0.24999999  1
