# generated using pymatgen
data_Na3WF8
_symmetry_space_group_name_H-M   'P 1'
_cell_length_a   5.50066805
_cell_length_b   5.50066805
_cell_length_c   6.72545719
_cell_angle_alpha   114.13850403
_cell_angle_beta   114.13850403
_cell_angle_gamma   90.00000000
_symmetry_Int_Tables_number   1
_chemical_formula_structural   Na3WF8
_chemical_formula_sum   'Na3 W1 F8'
_cell_volume   166.01085185
_cell_formula_units_Z   1
loop_
 _symmetry_equiv_pos_site_id
 _symmetry_equiv_pos_as_xyz
  1  'x, y, z'
loop_
 _atom_site_type_symbol
 _atom_site_label
 _atom_site_symmetry_multiplicity
 _atom_site_fract_x
 _atom_site_fract_y
 _atom_site_fract_z
 _atom_site_occupancy
  Na  Na0  1  0.50000000  0.50000000  0.99999998  1
  Na  Na1  1  0.25000000  0.75000000  0.49999999  1
  Na  Na2  1  0.75000000  0.25000000  0.49999999  1
  W  W3  1  0.00000000  0.00000000  0.00000000  1
  F  F4  1  0.88403800  0.34865700  0.23269500  1
  F  F5  1  0.88403800  0.88403800  0.23269400  1
  F  F6  1  0.34865600  0.34865600  0.23269400  1
  F  F7  1  0.34865600  0.88403700  0.23269300  1
  F  F8  1  0.65134400  0.11596300  0.76730698  1
  F  F9  1  0.65134400  0.65134400  0.76730599  1
  F  F10  1  0.11596200  0.11596200  0.76730598  1
  F  F11  1  0.11596200  0.65134300  0.76730498  1
