# generated using pymatgen
data_CeGe3Ir
_symmetry_space_group_name_H-M   'P 1'
_cell_length_a   4.50318384
_cell_length_b   4.50318384
_cell_length_c   5.99631405
_cell_angle_alpha   112.05496979
_cell_angle_beta   112.05496979
_cell_angle_gamma   90.00000000
_symmetry_Int_Tables_number   1
_chemical_formula_structural   CeGe3Ir
_chemical_formula_sum   'Ce1 Ge3 Ir1'
_cell_volume   103.03567700
_cell_formula_units_Z   1
loop_
 _symmetry_equiv_pos_site_id
 _symmetry_equiv_pos_as_xyz
  1  'x, y, z'
loop_
 _atom_site_type_symbol
 _atom_site_label
 _atom_site_symmetry_multiplicity
 _atom_site_fract_x
 _atom_site_fract_y
 _atom_site_fract_z
 _atom_site_occupancy
  Ce  Ce0  1  0.99886897  0.99886901  0.99773791  1
  Ge  Ge1  1  0.25720497  0.75720501  0.51440995  1
  Ge  Ge2  1  0.75720500  0.25720500  0.51440996  1
  Ge  Ge3  1  0.40509699  0.40509700  0.81019396  1
  Ir  Ir4  1  0.64739398  0.64739401  0.29478794  1
