# generated using pymatgen
data_CeC2
_symmetry_space_group_name_H-M   'P 1'
_cell_length_a   4.07690525
_cell_length_b   4.07690525
_cell_length_c   5.24724579
_cell_angle_alpha   90.00000000
_cell_angle_beta   90.00000000
_cell_angle_gamma   99.98235321
_symmetry_Int_Tables_number   1
_chemical_formula_structural   CeC2
_chemical_formula_sum   'Ce2 C4'
_cell_volume   85.89495720
_cell_formula_units_Z   2
loop_
 _symmetry_equiv_pos_site_id
 _symmetry_equiv_pos_as_xyz
  1  'x, y, z'
loop_
 _atom_site_type_symbol
 _atom_site_label
 _atom_site_symmetry_multiplicity
 _atom_site_fract_x
 _atom_site_fract_y
 _atom_site_fract_z
 _atom_site_occupancy
  Ce  Ce0  1  0.00000000  0.00000000  0.00000000  1
  Ce  Ce1  1  0.50000004  0.50000001  0.49999999  1
  C  C2  1  0.39596104  0.60403902  -0.00000000  1
  C  C3  1  0.89578602  0.10421400  0.49999999  1
  C  C4  1  0.10421405  0.89578603  0.49999999  1
  C  C5  1  0.60403903  0.39596101  -0.00000000  1
