# generated using pymatgen
data_Li2PO5
_symmetry_space_group_name_H-M   'P 1'
_cell_length_a   5.55340481
_cell_length_b   5.55574846
_cell_length_c   6.98105001
_cell_angle_alpha   107.78433228
_cell_angle_beta   107.79510498
_cell_angle_gamma   96.63201904
_symmetry_Int_Tables_number   1
_chemical_formula_structural   Li2PO5
_chemical_formula_sum   'Li4 P2 O10'
_cell_volume   190.03203492
_cell_formula_units_Z   2
loop_
 _symmetry_equiv_pos_site_id
 _symmetry_equiv_pos_as_xyz
  1  'x, y, z'
loop_
 _atom_site_type_symbol
 _atom_site_label
 _atom_site_symmetry_multiplicity
 _atom_site_fract_x
 _atom_site_fract_y
 _atom_site_fract_z
 _atom_site_occupancy
  Li  Li0  1  0.50579701  0.99475602  0.48609693  1
  Li  Li1  1  0.50410301  0.99643002  0.98622192  1
  Li  Li2  1  0.81774300  0.68002402  0.23012295  1
  Li  Li3  1  0.18902800  0.30794301  0.73010697  1
  P  P4  1  0.14407400  0.35745101  0.23617598  1
  P  P5  1  0.86702700  0.63504801  0.73626894  1
  O  O6  1  0.26930700  0.26931801  0.06508098  1
  O  O7  1  0.23113900  0.23348301  0.40874998  1
  O  O8  1  0.74240001  0.72203102  0.90851093  1
  O  O9  1  0.78005401  0.76090702  0.56528194  1
  O  O10  1  0.80835200  0.32972401  0.63138396  1
  O  O11  1  0.17226901  0.69133502  0.84020095  1
  O  O12  1  0.20106001  0.66258502  0.33999596  1
  O  O13  1  0.83863500  0.29932801  0.13116097  1
  O  O14  1  0.41969500  0.08116300  0.73589497  1
  O  O15  1  0.59057201  0.91048802  0.23587394  1
