# generated using pymatgen
data_La2YBi5(SbO5)2
_symmetry_space_group_name_H-M   'P 1'
_cell_length_a   5.67729807
_cell_length_b   5.67729807
_cell_length_c   10.41354561
_cell_angle_alpha   90.00000000
_cell_angle_beta   90.00000000
_cell_angle_gamma   90.00000000
_symmetry_Int_Tables_number   1
_chemical_formula_structural   La2YBi5(SbO5)2
_chemical_formula_sum   'La2 Y1 Bi5 Sb2 O10'
_cell_volume   335.64641716
_cell_formula_units_Z   1
loop_
 _symmetry_equiv_pos_site_id
 _symmetry_equiv_pos_as_xyz
  1  'x, y, z'
loop_
 _atom_site_type_symbol
 _atom_site_label
 _atom_site_symmetry_multiplicity
 _atom_site_fract_x
 _atom_site_fract_y
 _atom_site_fract_z
 _atom_site_occupancy
  La  La0  1  0.18421100  0.18421100  0.34450501  1
  Y  Y1  1  0.31578900  0.68421099  0.84450503  1
  Bi  Bi2  1  0.68421099  0.31578900  0.84450503  1
  La  La3  1  0.68421099  0.31578900  0.15549501  1
  Bi  Bi4  1  0.31578900  0.68421099  0.15549501  1
  Bi  Bi5  1  0.18421100  0.18421100  0.65549502  1
  Sb  Sb6  1  0.81578899  0.81578899  0.34450501  1
  Bi  Bi7  1  0.81578899  0.81578899  0.65549502  1
  Bi  Bi8  1  0.32053500  0.67946499  0.50000002  1
  Sb  Sb9  1  0.82053499  0.82053499  0.00000000  1
  O  O10  1  0.17946500  0.17946500  0.00000000  1
  O  O11  1  0.67946499  0.32053500  0.50000002  1
  O  O12  1  0.00000000  0.00000000  0.14527201  1
  O  O13  1  0.49999999  0.49999999  0.64527202  1
  O  O14  1  0.49999999  0.00000000  0.50000002  1
  O  O15  1  0.49999999  0.49999999  0.35472801  1
  O  O16  1  0.00000000  0.00000000  0.85472803  1
  O  O17  1  0.49999999  0.00000000  0.00000000  1
  O  O18  1  0.00000000  0.49999999  0.00000000  1
  O  O19  1  0.00000000  0.49999999  0.50000002  1
