# generated using pymatgen
data_GdPd
_symmetry_space_group_name_H-M   'P 1'
_cell_length_a   3.70369601
_cell_length_b   4.62431383
_cell_length_c   5.61692095
_cell_angle_alpha   90.00000000
_cell_angle_beta   109.25001526
_cell_angle_gamma   90.00000000
_symmetry_Int_Tables_number   1
_chemical_formula_structural   GdPd
_chemical_formula_sum   'Gd2 Pd2'
_cell_volume   90.82258365
_cell_formula_units_Z   2
loop_
 _symmetry_equiv_pos_site_id
 _symmetry_equiv_pos_as_xyz
  1  'x, y, z'
loop_
 _atom_site_type_symbol
 _atom_site_label
 _atom_site_symmetry_multiplicity
 _atom_site_fract_x
 _atom_site_fract_y
 _atom_site_fract_z
 _atom_site_occupancy
  Gd  Gd0  1  0.86317598  0.75000003  0.72635200  1
  Gd  Gd1  1  0.13682400  0.25000001  0.27364801  1
  Pd  Pd2  1  0.58545199  0.75000003  0.17090399  1
  Pd  Pd3  1  0.41454799  0.25000001  0.82909602  1
