# generated using pymatgen
data_PrGe2
_symmetry_space_group_name_H-M   'P 1'
_cell_length_a   3.76566696
_cell_length_b   4.77292728
_cell_length_c   8.24238110
_cell_angle_alpha   90.02128601
_cell_angle_beta   90.00000000
_cell_angle_gamma   90.00000000
_symmetry_Int_Tables_number   1
_chemical_formula_structural   PrGe2
_chemical_formula_sum   'Pr2 Ge4'
_cell_volume   148.14240360
_cell_formula_units_Z   2
loop_
 _symmetry_equiv_pos_site_id
 _symmetry_equiv_pos_as_xyz
  1  'x, y, z'
loop_
 _atom_site_type_symbol
 _atom_site_label
 _atom_site_symmetry_multiplicity
 _atom_site_fract_x
 _atom_site_fract_y
 _atom_site_fract_z
 _atom_site_occupancy
  Pr  Pr0  1  0.00000000  0.00006000  0.02890100  1
  Pr  Pr1  1  0.00000000  0.49976902  0.48539903  1
  Ge  Ge2  1  0.50000001  0.50004702  0.83504803  1
  Ge  Ge3  1  0.50000001  0.49995202  0.18270302  1
  Ge  Ge4  1  0.50000001  0.99986403  0.64380605  1
  Ge  Ge5  1  0.50000001  0.00010900  0.32414401  1
