# generated using pymatgen
data_Li2Mg
_symmetry_space_group_name_H-M   'P 1'
_cell_length_a   3.19944811
_cell_length_b   5.03649712
_cell_length_c   8.10771370
_cell_angle_alpha   90.00000000
_cell_angle_beta   101.37963104
_cell_angle_gamma   90.00000000
_symmetry_Int_Tables_number   1
_chemical_formula_structural   Li2Mg
_chemical_formula_sum   'Li4 Mg2'
_cell_volume   128.07943401
_cell_formula_units_Z   2
loop_
 _symmetry_equiv_pos_site_id
 _symmetry_equiv_pos_as_xyz
  1  'x, y, z'
loop_
 _atom_site_type_symbol
 _atom_site_label
 _atom_site_symmetry_multiplicity
 _atom_site_fract_x
 _atom_site_fract_y
 _atom_site_fract_z
 _atom_site_occupancy
  Li  Li0  1  0.99859495  0.00000000  0.99718996  1
  Li  Li1  1  0.66524397  0.00000000  0.33048798  1
  Li  Li2  1  0.11161399  0.49999999  0.22322799  1
  Li  Li3  1  0.33247498  0.00000000  0.66494998  1
  Mg  Mg4  1  0.44995898  0.49999999  0.89991797  1
  Mg  Mg5  1  0.77544596  0.49999999  0.55089197  1
