# generated using pymatgen
data_Li2CuO4
_symmetry_space_group_name_H-M   'P 1'
_cell_length_a   5.95130777
_cell_length_b   5.98822498
_cell_length_c   5.98822498
_cell_angle_alpha   63.90250778
_cell_angle_beta   60.20372391
_cell_angle_gamma   60.20372391
_symmetry_Int_Tables_number   1
_chemical_formula_structural   Li2CuO4
_chemical_formula_sum   'Li4 Cu2 O8'
_cell_volume   155.34509133
_cell_formula_units_Z   2
loop_
 _symmetry_equiv_pos_site_id
 _symmetry_equiv_pos_as_xyz
  1  'x, y, z'
loop_
 _atom_site_type_symbol
 _atom_site_label
 _atom_site_symmetry_multiplicity
 _atom_site_fract_x
 _atom_site_fract_y
 _atom_site_fract_z
 _atom_site_occupancy
  Li  Li0  1  0.50000000  0.99999998  0.00000001  1
  Li  Li1  1  0.50000001  0.49999999  0.49999999  1
  Li  Li2  1  -0.00000001  0.49999999  0.00000001  1
  Li  Li3  1  0.50000001  0.49999999  0.00000000  1
  Cu  Cu4  1  0.00000000  0.00000000  0.00000000  1
  Cu  Cu5  1  -0.00000001  0.49999999  0.50000000  1
  O  O6  1  0.24872801  0.30121999  0.20132300  1
  O  O7  1  0.22625401  0.26421299  0.76421198  1
  O  O8  1  0.24872900  0.70132198  0.80121999  1
  O  O9  1  0.25467800  0.73578798  0.23578801  1
  O  O10  1  0.74532203  0.26421199  0.76421197  1
  O  O11  1  0.75127103  0.29867799  0.19877999  1
  O  O12  1  0.77374602  0.73578698  0.23578800  1
  O  O13  1  0.75127202  0.69877998  0.79867698  1
