# generated using pymatgen
data_Y(MnGe)2
_symmetry_space_group_name_H-M   'P 1'
_cell_length_a   3.97505784
_cell_length_b   3.98526883
_cell_length_c   6.02401114
_cell_angle_alpha   108.84970093
_cell_angle_beta   109.13947296
_cell_angle_gamma   90.03456879
_symmetry_Int_Tables_number   1
_chemical_formula_structural   Y(MnGe)2
_chemical_formula_sum   'Y1 Mn2 Ge2'
_cell_volume   84.71237622
_cell_formula_units_Z   1
loop_
 _symmetry_equiv_pos_site_id
 _symmetry_equiv_pos_as_xyz
  1  'x, y, z'
loop_
 _atom_site_type_symbol
 _atom_site_label
 _atom_site_symmetry_multiplicity
 _atom_site_fract_x
 _atom_site_fract_y
 _atom_site_fract_z
 _atom_site_occupancy
  Y  Y0  1  0.99195704  0.99728901  0.99925804  1
  Mn  Mn1  1  0.74546900  0.23943700  0.49931901  1
  Mn  Mn2  1  0.24001204  0.75678901  0.50017303  1
  Ge  Ge3  1  0.60952402  0.61144801  0.23655703  1
  Ge  Ge4  1  0.37565601  0.38444700  0.76296701  1
