# generated using pymatgen
data_Cs4Tb5BiO8
_symmetry_space_group_name_H-M   'P 1'
_cell_length_a   5.78137207
_cell_length_b   9.14667988
_cell_length_c   9.14667988
_cell_angle_alpha   74.04590607
_cell_angle_beta   71.57659149
_cell_angle_gamma   71.57659149
_symmetry_Int_Tables_number   1
_chemical_formula_structural   Cs4Tb5BiO8
_chemical_formula_sum   'Cs4 Tb5 Bi1 O8'
_cell_volume   427.06391804
_cell_formula_units_Z   1
loop_
 _symmetry_equiv_pos_site_id
 _symmetry_equiv_pos_as_xyz
  1  'x, y, z'
loop_
 _atom_site_type_symbol
 _atom_site_label
 _atom_site_symmetry_multiplicity
 _atom_site_fract_x
 _atom_site_fract_y
 _atom_site_fract_z
 _atom_site_occupancy
  Cs  Cs0  1  0.26533395  0.62160599  0.37839403  1
  Cs  Cs1  1  0.73466597  0.37839399  0.62160600  1
  Cs  Cs2  1  0.23466599  0.12160600  0.87839399  1
  Cs  Cs3  1  0.76533393  0.87839398  0.12160604  1
  Tb  Tb4  1  0.24999998  0.25000000  0.25000001  1
  Tb  Tb5  1  0.74999994  0.74999999  0.75000002  1
  Tb  Tb6  1  0.74999996  0.47325299  0.02674702  1
  Tb  Tb7  1  0.75000000  0.02674700  0.47325298  1
  Tb  Tb8  1  0.24999996  0.52674699  0.97325302  1
  Bi  Bi9  1  0.24999993  0.97325298  0.52674706  1
  O  O10  1  0.42630395  0.71937899  0.98468903  1
  O  O11  1  0.86962693  0.98468898  0.71938004  1
  O  O12  1  0.07369596  0.51531199  0.78062002  1
  O  O13  1  0.63037294  0.78061998  0.51531103  1
  O  O14  1  0.57369598  0.28062099  0.01531101  1
  O  O15  1  0.13037300  0.01531100  0.28061999  1
  O  O16  1  0.92630396  0.48468799  0.21938001  1
  O  O17  1  0.36962698  0.21938000  0.48468900  1
