# generated using pymatgen
data_La(Al2Fe)4
_symmetry_space_group_name_H-M   'P 1'
_cell_length_a   5.17335176
_cell_length_b   6.72566462
_cell_length_c   6.72566462
_cell_angle_alpha   81.49385834
_cell_angle_beta   67.38122559
_cell_angle_gamma   67.38122559
_symmetry_Int_Tables_number   1
_chemical_formula_structural   La(Al2Fe)4
_chemical_formula_sum   'La1 Al8 Fe4'
_cell_volume   199.39997470
_cell_formula_units_Z   1
loop_
 _symmetry_equiv_pos_site_id
 _symmetry_equiv_pos_as_xyz
  1  'x, y, z'
loop_
 _atom_site_type_symbol
 _atom_site_label
 _atom_site_symmetry_multiplicity
 _atom_site_fract_x
 _atom_site_fract_y
 _atom_site_fract_z
 _atom_site_occupancy
  La  La0  1  0.00000000  0.00000000  0.00000000  1
  Al  Al1  1  0.50000002  0.00000000  0.50000001  1
  Al  Al2  1  0.00000000  0.00000000  0.50000001  1
  Al  Al3  1  0.50000001  0.50000001  1.00000005  1
  Al  Al4  1  1.00000003  0.50000001  0.00000004  1
  Al  Al5  1  0.33176000  0.66824001  0.66824006  1
  Al  Al6  1  0.66824002  0.33176000  0.33176003  1
  Al  Al7  1  -0.00000002  0.66824001  0.33176005  1
  Al  Al8  1  -0.00000001  0.33176000  0.66824003  1
  Fe  Fe9  1  0.27354101  0.22645900  0.22645902  1
  Fe  Fe10  1  0.72645901  0.77354101  0.77354107  1
  Fe  Fe11  1  0.50000002  0.22645900  0.77354103  1
  Fe  Fe12  1  0.50000000  0.77354101  0.22645906  1
