# generated using pymatgen
data_K4ClO5
_symmetry_space_group_name_H-M   'P 1'
_cell_length_a   5.84956503
_cell_length_b   6.07963800
_cell_length_c   7.48071051
_cell_angle_alpha   66.02397919
_cell_angle_beta   90.00000000
_cell_angle_gamma   90.00000000
_symmetry_Int_Tables_number   1
_chemical_formula_structural   K4ClO5
_chemical_formula_sum   'K4 Cl1 O5'
_cell_volume   243.08333401
_cell_formula_units_Z   1
loop_
 _symmetry_equiv_pos_site_id
 _symmetry_equiv_pos_as_xyz
  1  'x, y, z'
loop_
 _atom_site_type_symbol
 _atom_site_label
 _atom_site_symmetry_multiplicity
 _atom_site_fract_x
 _atom_site_fract_y
 _atom_site_fract_z
 _atom_site_occupancy
  K  K0  1  0.75000000  0.61155499  0.77689004  1
  K  K1  1  0.25000000  0.38844499  0.22311002  1
  K  K2  1  0.75000000  0.92769099  0.14461803  1
  K  K3  1  0.25000000  0.07230900  0.85538203  1
  Cl  Cl4  1  0.75000000  0.25387900  0.49224202  1
  O  O5  1  0.25000000  0.74612099  0.50775804  1
  O  O6  1  1.00000000  0.77425799  1.00000005  1
  O  O7  1  1.00000000  0.22574200  0.00000001  1
  O  O8  1  0.50000000  0.22574200  0.00000001  1
  O  O9  1  0.50000000  0.77425799  1.00000005  1
