# generated using pymatgen
data_LiCo7
_symmetry_space_group_name_H-M   'P 1'
_cell_length_a   4.00930691
_cell_length_b   4.99173594
_cell_length_c   4.99173689
_cell_angle_alpha   60.00000381
_cell_angle_beta   90.00000000
_cell_angle_gamma   90.00000000
_symmetry_Int_Tables_number   1
_chemical_formula_structural   LiCo7
_chemical_formula_sum   'Li1 Co7'
_cell_volume   86.51735614
_cell_formula_units_Z   1
loop_
 _symmetry_equiv_pos_site_id
 _symmetry_equiv_pos_as_xyz
  1  'x, y, z'
loop_
 _atom_site_type_symbol
 _atom_site_label
 _atom_site_symmetry_multiplicity
 _atom_site_fract_x
 _atom_site_fract_y
 _atom_site_fract_z
 _atom_site_occupancy
  Li  Li0  1  0.75000002  0.33333334  0.33333332  1
  Co  Co1  1  0.25000001  0.66666668  0.66666663  1
  Co  Co2  1  0.75000002  0.83679902  0.32640197  1
  Co  Co3  1  0.75000002  0.32640201  0.83679896  1
  Co  Co4  1  0.75000002  0.83679902  0.83679896  1
  Co  Co5  1  0.25000001  0.16320100  0.67359797  1
  Co  Co6  1  0.25000001  0.67359802  0.16320098  1
  Co  Co7  1  0.25000001  0.16320100  0.16320099  1
