# generated using pymatgen
data_LiVO2
_symmetry_space_group_name_H-M   'P 1'
_cell_length_a   5.11049795
_cell_length_b   5.92546082
_cell_length_c   5.92952681
_cell_angle_alpha   119.97785187
_cell_angle_beta   106.84305573
_cell_angle_gamma   89.99984741
_symmetry_Int_Tables_number   1
_chemical_formula_structural   LiVO2
_chemical_formula_sum   'Li4 V4 O8'
_cell_volume   146.57715405
_cell_formula_units_Z   4
loop_
 _symmetry_equiv_pos_site_id
 _symmetry_equiv_pos_as_xyz
  1  'x, y, z'
loop_
 _atom_site_type_symbol
 _atom_site_label
 _atom_site_symmetry_multiplicity
 _atom_site_fract_x
 _atom_site_fract_y
 _atom_site_fract_z
 _atom_site_occupancy
  Li  Li0  1  0.00060700  0.00127600  0.00260700  1
  Li  Li1  1  0.99939999  0.49871796  0.99738194  1
  Li  Li2  1  0.50000699  0.25000598  0.00000098  1
  Li  Li3  1  0.50000897  0.74999495  0.99999792  1
  V  V4  1  0.99996900  0.00125900  0.50000599  1
  V  V5  1  0.00000798  0.49873996  0.49999495  1
  V  V6  1  0.50002697  0.75000195  0.50000893  1
  V  V7  1  0.50000199  0.25000198  0.49999597  1
  O  O8  1  0.23401299  0.36456297  0.72911496  1
  O  O9  1  0.24720297  0.86325694  0.72650392  1
  O  O10  1  0.74038400  0.09583999  0.72436398  1
  O  O11  1  0.25960799  0.40415897  0.27564096  1
  O  O12  1  0.25960397  0.87148394  0.27564593  1
  O  O13  1  0.76598300  0.13542999  0.27086598  1
  O  O14  1  0.74039898  0.62851896  0.72436394  1
  O  O15  1  0.75277598  0.63675095  0.27350494  1
