# generated using pymatgen
data_KNaTaNb3MoO11
_symmetry_space_group_name_H-M   'P 1'
_cell_length_a   7.29185009
_cell_length_b   7.42560148
_cell_length_c   7.32424593
_cell_angle_alpha   119.54949951
_cell_angle_beta   90.00000000
_cell_angle_gamma   119.40592957
_symmetry_Int_Tables_number   1
_chemical_formula_structural   KNaTaNb3MoO11
_chemical_formula_sum   'K1 Na1 Ta1 Nb3 Mo1 O11'
_cell_volume   284.79486740
_cell_formula_units_Z   1
loop_
 _symmetry_equiv_pos_site_id
 _symmetry_equiv_pos_as_xyz
  1  'x, y, z'
loop_
 _atom_site_type_symbol
 _atom_site_label
 _atom_site_symmetry_multiplicity
 _atom_site_fract_x
 _atom_site_fract_y
 _atom_site_fract_z
 _atom_site_occupancy
  Na  Na0  1  0.62459700  0.24919400  0.37459701  1
  K  K1  1  0.37540302  0.75080601  0.62540304  1
  Nb  Nb2  1  0.50000001  0.50000001  0.00000002  1
  Ta  Ta3  1  0.00000001  0.50000001  1.00000003  1
  Nb  Nb4  1  0.00000000  0.00000000  0.00000000  1
  Nb  Nb5  1  0.00000003  1.00000002  0.50000005  1
  Mo  Mo6  1  0.71570100  0.43140201  0.96570103  1
  O  O7  1  0.28429901  0.56859801  0.03429903  1
  O  O8  1  0.33981600  0.24699900  0.06467401  1
  O  O9  1  0.92494501  0.84989001  0.67494504  1
  O  O10  1  0.33981600  0.24699900  0.68232502  1
  O  O11  1  0.90718300  0.24699900  0.06467401  1
  O  O12  1  0.09281702  0.75300101  0.31767504  1
  O  O13  1  0.90718300  0.24699900  0.68232502  1
  O  O14  1  0.09281702  0.75300101  0.93532604  1
  O  O15  1  0.66018401  0.75300101  0.31767504  1
  O  O16  1  0.66018401  0.75300101  0.93532604  1
  O  O17  1  0.07505500  0.15011000  0.32505501  1
