# generated using pymatgen
data_Dy3Pd4
_symmetry_space_group_name_H-M   'P 1'
_cell_length_a   5.68454504
_cell_length_b   7.78928947
_cell_length_c   7.78928947
_cell_angle_alpha   114.28240204
_cell_angle_beta   104.07922363
_cell_angle_gamma   104.07922363
_symmetry_Int_Tables_number   1
_chemical_formula_structural   Dy3Pd4
_chemical_formula_sum   'Dy6 Pd8'
_cell_volume   281.01529146
_cell_formula_units_Z   2
loop_
 _symmetry_equiv_pos_site_id
 _symmetry_equiv_pos_as_xyz
  1  'x, y, z'
loop_
 _atom_site_type_symbol
 _atom_site_label
 _atom_site_symmetry_multiplicity
 _atom_site_fract_x
 _atom_site_fract_y
 _atom_site_fract_z
 _atom_site_occupancy
  Dy  Dy0  1  0.72109894  0.74630798  0.12468495  1
  Dy  Dy1  1  0.59641393  0.87531498  0.62162295  1
  Dy  Dy2  1  0.97479098  0.37837699  0.25369196  1
  Dy  Dy3  1  0.27890098  0.25369199  0.87531499  1
  Dy  Dy4  1  0.40358599  0.12468500  0.37837699  1
  Dy  Dy5  1  0.02520895  0.62162298  0.74630798  1
  Pd  Pd6  1  0.00000000  0.00000000  0.00000000  1
  Pd  Pd7  1  0.49999992  0.99999997  0.99999995  1
  Pd  Pd8  1  0.44863796  0.51105099  0.67520197  1
  Pd  Pd9  1  0.77343598  0.32479799  0.83584897  1
  Pd  Pd10  1  0.93758699  0.16415100  0.48894898  1
  Pd  Pd11  1  0.55136196  0.48894899  0.32479797  1
  Pd  Pd12  1  0.22656395  0.67520198  0.16415097  1
  Pd  Pd13  1  0.06241293  0.83584898  0.51105097  1
