# generated using pymatgen
data_Na4Zn2Cu2BSO4
_symmetry_space_group_name_H-M   'P 1'
_cell_length_a   3.58917904
_cell_length_b   7.05807304
_cell_length_c   9.99730492
_cell_angle_alpha   90.00000000
_cell_angle_beta   90.00000000
_cell_angle_gamma   90.00000000
_symmetry_Int_Tables_number   1
_chemical_formula_structural   Na4Zn2Cu2BSO4
_chemical_formula_sum   'Na4 Zn2 Cu2 B1 S1 O4'
_cell_volume   253.25860453
_cell_formula_units_Z   1
loop_
 _symmetry_equiv_pos_site_id
 _symmetry_equiv_pos_as_xyz
  1  'x, y, z'
loop_
 _atom_site_type_symbol
 _atom_site_label
 _atom_site_symmetry_multiplicity
 _atom_site_fract_x
 _atom_site_fract_y
 _atom_site_fract_z
 _atom_site_occupancy
  Na  Na0  1  0.49999999  0.50957000  0.19895800  1
  Na  Na1  1  0.49999999  0.49043000  0.80104201  1
  Na  Na2  1  0.49999999  0.99042999  0.19895800  1
  Na  Na3  1  0.49999999  0.00957000  0.80104201  1
  Cu  Cu4  1  0.00000000  0.75000000  0.45734800  1
  Cu  Cu5  1  -0.00000000  0.25000000  0.54265200  1
  Zn  Zn6  1  0.00000000  0.75000000  0.00640300  1
  Zn  Zn7  1  -0.00000000  0.25000000  0.99359701  1
  B  B8  1  0.49999999  0.50943300  0.56590600  1
  O  O9  1  0.49999999  0.49056700  0.43409400  1
  O  O10  1  0.49999999  0.99056699  0.56590600  1
  S  S11  1  0.49999999  0.00943300  0.43409400  1
  O  O12  1  0.00000000  0.75000000  0.20851200  1
  O  O13  1  -0.00000000  0.25000000  0.79148801  1
