# generated using pymatgen
data_Ti5FeCoSiN4
_symmetry_space_group_name_H-M   'P 1'
_cell_length_a   3.07510209
_cell_length_b   3.07510257
_cell_length_c   17.73591232
_cell_angle_alpha   90.00000000
_cell_angle_beta   90.00000000
_cell_angle_gamma   119.99999237
_symmetry_Int_Tables_number   1
_chemical_formula_structural   Ti5FeCoSiN4
_chemical_formula_sum   'Ti5 Fe1 Co1 Si1 N4'
_cell_volume   145.24571966
_cell_formula_units_Z   1
loop_
 _symmetry_equiv_pos_site_id
 _symmetry_equiv_pos_as_xyz
  1  'x, y, z'
loop_
 _atom_site_type_symbol
 _atom_site_label
 _atom_site_symmetry_multiplicity
 _atom_site_fract_x
 _atom_site_fract_y
 _atom_site_fract_z
 _atom_site_occupancy
  Ti  Ti0  1  0.00000000  0.00000000  0.50000002  1
  Ti  Ti1  1  0.00000000  0.00000000  0.00000000  1
  Ti  Ti2  1  0.33333329  0.66666663  0.63489102  1
  Ti  Ti3  1  0.66666663  0.33333332  0.36510901  1
  Ti  Ti4  1  0.66666663  0.33333332  0.13489101  1
  Fe  Fe5  1  0.33333329  0.66666663  0.86510903  1
  Si  Si6  1  0.00000000  0.00000000  0.75000003  1
  Co  Co7  1  0.00000000  0.00000000  0.25000001  1
  N  N8  1  0.33333329  0.66666663  0.07229400  1
  N  N9  1  0.66666663  0.33333332  0.92770604  1
  N  N10  1  0.66666663  0.33333332  0.57229402  1
  N  N11  1  0.33333329  0.66666663  0.42770602  1
