# generated using pymatgen
data_ThSb3
_symmetry_space_group_name_H-M   'P 1'
_cell_length_a   5.84677505
_cell_length_b   6.31779623
_cell_length_c   6.31779528
_cell_angle_alpha   120.00000000
_cell_angle_beta   90.00000000
_cell_angle_gamma   90.00000000
_symmetry_Int_Tables_number   1
_chemical_formula_structural   ThSb3
_chemical_formula_sum   'Th2 Sb6'
_cell_volume   202.10552230
_cell_formula_units_Z   2
loop_
 _symmetry_equiv_pos_site_id
 _symmetry_equiv_pos_as_xyz
  1  'x, y, z'
loop_
 _atom_site_type_symbol
 _atom_site_label
 _atom_site_symmetry_multiplicity
 _atom_site_fract_x
 _atom_site_fract_y
 _atom_site_fract_z
 _atom_site_occupancy
  Th  Th0  1  0.25000000  0.66666662  0.33333328  1
  Th  Th1  1  0.74999999  0.33333331  0.66666664  1
  Sb  Sb2  1  0.74999999  0.82735394  0.17264694  1
  Sb  Sb3  1  0.74999999  0.34529297  0.17264697  1
  Sb  Sb4  1  0.74999999  0.82735394  0.65470794  1
  Sb  Sb5  1  0.25000000  0.17264599  0.82735299  1
  Sb  Sb6  1  0.25000000  0.65470695  0.82735295  1
  Sb  Sb7  1  0.25000000  0.17264599  0.34529199  1
