# generated using pymatgen
data_MnV2O7
_symmetry_space_group_name_H-M   'P 1'
_cell_length_a   6.43805981
_cell_length_b   6.43805981
_cell_length_c   6.43805981
_cell_angle_alpha   71.07202148
_cell_angle_beta   71.01754761
_cell_angle_gamma   110.50823975
_symmetry_Int_Tables_number   1
_chemical_formula_structural   MnV2O7
_chemical_formula_sum   'Mn2 V4 O14'
_cell_volume   205.36956945
_cell_formula_units_Z   2
loop_
 _symmetry_equiv_pos_site_id
 _symmetry_equiv_pos_as_xyz
  1  'x, y, z'
loop_
 _atom_site_type_symbol
 _atom_site_label
 _atom_site_symmetry_multiplicity
 _atom_site_fract_x
 _atom_site_fract_y
 _atom_site_fract_z
 _atom_site_occupancy
  Mn  Mn0  1  0.00000000  0.00000000  0.00000000  1
  Mn  Mn1  1  0.50000001  0.00000000  0.50000002  1
  V  V2  1  1.00000004  1.00000004  0.50000000  1
  V  V3  1  0.00000001  0.50000002  -0.00000002  1
  V  V4  1  0.50000002  0.50000002  0.50000001  1
  V  V5  1  0.50000003  1.00000004  -0.00000002  1
  O  O6  1  0.00000001  0.50000002  0.50000000  1
  O  O7  1  0.50000002  0.50000002  -0.00000001  1
  O  O8  1  0.12966201  0.82376004  0.69409800  1
  O  O9  1  0.87033802  0.17624001  0.30590202  1
  O  O10  1  0.51785802  0.82376004  0.30590199  1
  O  O11  1  0.48214201  0.17624001  0.69409802  1
  O  O12  1  0.81996003  0.70199503  0.47804501  1
  O  O13  1  0.18004001  0.29800501  0.52195501  1
  O  O14  1  0.81996002  0.29800501  0.88203503  1
  O  O15  1  0.18004001  0.70199503  0.11796498  1
  O  O16  1  0.30479701  0.48785602  0.81694101  1
  O  O17  1  0.69520302  0.51214402  0.18305900  1
  O  O18  1  0.69520303  0.87826204  0.81694101  1
  O  O19  1  0.30479701  0.12173801  0.18305901  1
