# generated using pymatgen
data_La3(I2O)2
_symmetry_space_group_name_H-M   'P 1'
_cell_length_a   6.65374994
_cell_length_b   9.06730556
_cell_length_c   9.06730556
_cell_angle_alpha   120.00000000
_cell_angle_beta   90.00000000
_cell_angle_gamma   90.00000000
_symmetry_Int_Tables_number   1
_chemical_formula_structural   La3(I2O)2
_chemical_formula_sum   'La6 I8 O4'
_cell_volume   473.75478585
_cell_formula_units_Z   2
loop_
 _symmetry_equiv_pos_site_id
 _symmetry_equiv_pos_as_xyz
  1  'x, y, z'
loop_
 _atom_site_type_symbol
 _atom_site_label
 _atom_site_symmetry_multiplicity
 _atom_site_fract_x
 _atom_site_fract_y
 _atom_site_fract_z
 _atom_site_occupancy
  La  La0  1  0.75000001  0.23737001  -0.00000001  1
  La  La1  1  0.25000000  0.00000000  0.76263001  1
  La  La2  1  0.50000000  0.66666669  0.33333332  1
  La  La3  1  0.75000001  0.76263003  0.76263000  1
  La  La4  1  0.25000000  0.76263003  -0.00000002  1
  La  La5  1  0.75000001  1.00000004  0.23736998  1
  I  I6  1  0.50000000  0.33333335  0.66666667  1
  I  I7  1  0.25000000  0.23737001  0.23737000  1
  I  I8  1  -0.00000000  0.66666669  0.33333332  1
  I  I9  1  -0.00000000  0.33333335  0.66666667  1
  O  O10  1  0.00000000  0.00000000  0.00000000  1
  O  O11  1  0.50000000  0.00000000  -0.00000000  1
  I  I12  1  0.25000000  0.60101302  0.60101300  1
  O  O13  1  0.75000001  0.39898702  0.39898700  1
  I  I14  1  0.75000001  0.60101302  1.00000000  1
  I  I15  1  0.75000001  1.00000004  0.60101299  1
  O  O16  1  0.25000000  0.00000000  0.39898701  1
  I  I17  1  0.25000000  0.39898702  1.00000001  1
