# generated using pymatgen
data_NaNb4VS8
_symmetry_space_group_name_H-M   'P 1'
_cell_length_a   3.51277494
_cell_length_b   8.83031750
_cell_length_c   9.10345650
_cell_angle_alpha   104.05356598
_cell_angle_beta   101.04141998
_cell_angle_gamma   90.25229645
_symmetry_Int_Tables_number   1
_chemical_formula_structural   NaNb4VS8
_chemical_formula_sum   'Na1 Nb4 V1 S8'
_cell_volume   268.47222066
_cell_formula_units_Z   1
loop_
 _symmetry_equiv_pos_site_id
 _symmetry_equiv_pos_as_xyz
  1  'x, y, z'
loop_
 _atom_site_type_symbol
 _atom_site_label
 _atom_site_symmetry_multiplicity
 _atom_site_fract_x
 _atom_site_fract_y
 _atom_site_fract_z
 _atom_site_occupancy
  Na  Na0  1  0.20686616  0.84646405  0.41879204  1
  Nb  Nb1  1  0.84419009  0.50462003  0.67931503  1
  Nb  Nb2  1  0.15581010  0.49538003  0.32068503  1
  Nb  Nb3  1  0.79313402  0.15353601  0.58120802  1
  V  V4  1  0.50000009  0.50000003  0.00000003  1
  Nb  Nb5  1  0.00000000  0.00000000  0.00000000  1
  S  S6  1  0.07545413  0.66610704  0.15137803  1
  S  S7  1  0.33719900  0.00850000  0.67519501  1
  S  S8  1  0.41767513  0.67045404  0.82323204  1
  S  S9  1  0.73717112  0.66674704  0.48077604  1
  S  S10  1  0.26282906  0.33325302  0.51922402  1
  S  S11  1  0.58232506  0.32954602  0.17676802  1
  S  S12  1  0.66280119  0.99150006  0.32480505  1
  S  S13  1  0.92454606  0.33389302  0.84862203  1
