# generated using pymatgen
data_TbSi
_symmetry_space_group_name_H-M   'P 1'
_cell_length_a   3.97504592
_cell_length_b   3.98215294
_cell_length_c   10.54883575
_cell_angle_alpha   90.00000000
_cell_angle_beta   100.86009979
_cell_angle_gamma   90.00000000
_symmetry_Int_Tables_number   1
_chemical_formula_structural   TbSi
_chemical_formula_sum   'Tb3 Si3'
_cell_volume   163.98947482
_cell_formula_units_Z   3
loop_
 _symmetry_equiv_pos_site_id
 _symmetry_equiv_pos_as_xyz
  1  'x, y, z'
loop_
 _atom_site_type_symbol
 _atom_site_label
 _atom_site_symmetry_multiplicity
 _atom_site_fract_x
 _atom_site_fract_y
 _atom_site_fract_z
 _atom_site_occupancy
  Tb  Tb0  1  0.58937101  0.50000001  0.17874200  1
  Tb  Tb1  1  0.41062901  0.50000001  0.82125802  1
  Tb  Tb2  1  0.84226301  0.00000000  0.68452601  1
  Si  Si3  1  0.15773700  0.00000000  0.31547401  1
  Si  Si4  1  0.50000001  0.00000000  -0.00000000  1
  Si  Si5  1  0.00000000  0.50000001  -0.00000000  1
