# generated using pymatgen
data_ScAlGe
_symmetry_space_group_name_H-M   'P 1'
_cell_length_a   3.75320196
_cell_length_b   3.75320196
_cell_length_c   7.75956631
_cell_angle_alpha   103.99537659
_cell_angle_beta   103.99537659
_cell_angle_gamma   90.00000000
_symmetry_Int_Tables_number   1
_chemical_formula_structural   ScAlGe
_chemical_formula_sum   'Sc2 Al2 Ge2'
_cell_volume   102.71347237
_cell_formula_units_Z   2
loop_
 _symmetry_equiv_pos_site_id
 _symmetry_equiv_pos_as_xyz
  1  'x, y, z'
loop_
 _atom_site_type_symbol
 _atom_site_label
 _atom_site_symmetry_multiplicity
 _atom_site_fract_x
 _atom_site_fract_y
 _atom_site_fract_z
 _atom_site_occupancy
  Sc  Sc0  1  0.67631304  0.67631302  0.35262604  1
  Sc  Sc1  1  0.32368702  0.32368701  0.64737401  1
  Al  Al2  1  0.50000001  0.00000000  0.00000001  1
  Al  Al3  1  0.00000001  0.50000001  0.00000002  1
  Ge  Ge4  1  0.12673901  0.12673900  0.25347801  1
  Ge  Ge5  1  0.87326105  0.87326102  0.74652204  1
