# generated using pymatgen
data_Dy5Lu3(ReC2)4
_symmetry_space_group_name_H-M   'P 1'
_cell_length_a   5.12989998
_cell_length_b   6.59519815
_cell_length_c   9.90978241
_cell_angle_alpha   90.00000000
_cell_angle_beta   90.00000000
_cell_angle_gamma   90.00000000
_symmetry_Int_Tables_number   1
_chemical_formula_structural   Dy5Lu3(ReC2)4
_chemical_formula_sum   'Dy5 Lu3 Re4 C8'
_cell_volume   335.27476343
_cell_formula_units_Z   1
loop_
 _symmetry_equiv_pos_site_id
 _symmetry_equiv_pos_as_xyz
  1  'x, y, z'
loop_
 _atom_site_type_symbol
 _atom_site_label
 _atom_site_symmetry_multiplicity
 _atom_site_fract_x
 _atom_site_fract_y
 _atom_site_fract_z
 _atom_site_occupancy
  Dy  Dy0  1  0.75000000  0.53205099  0.78300197  1
  Dy  Dy1  1  0.25000000  0.96794898  0.28300199  1
  Dy  Dy2  1  0.75000000  0.68063898  0.44430898  1
  Dy  Dy3  1  0.25000000  0.81936098  0.94430896  1
  Dy  Dy4  1  0.75000000  0.18063900  0.05569100  1
  Lu  Lu5  1  0.25000000  0.31936099  0.55569098  1
  Lu  Lu6  1  0.25000000  0.46794899  0.21699799  1
  Lu  Lu7  1  0.75000000  0.03205100  0.71699797  1
  Re  Re8  1  0.25000000  0.27811499  0.86492496  1
  Re  Re9  1  0.25000000  0.77811498  0.63507497  1
  Re  Re10  1  0.75000000  0.22188499  0.36492498  1
  Re  Re11  1  0.75000000  0.72188498  0.13507499  1
  C  C12  1  0.25000000  0.67871198  0.45193598  1
  C  C13  1  0.25000000  0.54488699  0.75932897  1
  C  C14  1  0.75000000  0.45511299  0.24067099  1
  C  C15  1  0.75000000  0.82128798  0.95193596  1
  C  C16  1  0.25000000  0.04488700  0.74067097  1
  C  C17  1  0.25000000  0.17871200  0.04806400  1
  C  C18  1  0.75000000  0.32128799  0.54806398  1
  C  C19  1  0.75000000  0.95511298  0.25932899  1
