# generated using pymatgen
data_ScNi4Au
_symmetry_space_group_name_H-M   'P 1'
_cell_length_a   4.87517738
_cell_length_b   4.87517738
_cell_length_c   4.87517738
_cell_angle_alpha   60.00000000
_cell_angle_beta   60.00000000
_cell_angle_gamma   60.00000000
_symmetry_Int_Tables_number   1
_chemical_formula_structural   ScNi4Au
_chemical_formula_sum   'Sc1 Ni4 Au1'
_cell_volume   81.93251168
_cell_formula_units_Z   1
loop_
 _symmetry_equiv_pos_site_id
 _symmetry_equiv_pos_as_xyz
  1  'x, y, z'
loop_
 _atom_site_type_symbol
 _atom_site_label
 _atom_site_symmetry_multiplicity
 _atom_site_fract_x
 _atom_site_fract_y
 _atom_site_fract_z
 _atom_site_occupancy
  Sc  Sc0  1  0.00000000  0.00000000  0.00000000  1
  Ni  Ni1  1  0.37569400  0.87291600  0.37569500  1
  Ni  Ni2  1  0.37569400  0.37569500  0.37569500  1
  Ni  Ni3  1  0.37569400  0.37569500  0.87291600  1
  Ni  Ni4  1  0.87291500  0.37569500  0.37569500  1
  Au  Au5  1  0.75000000  0.75000000  0.75000000  1
