# generated using pymatgen
data_In2AgSe4
_symmetry_space_group_name_H-M   'P 1'
_cell_length_a   7.25985670
_cell_length_b   7.25985670
_cell_length_c   8.51025867
_cell_angle_alpha   89.71697998
_cell_angle_beta   89.71697998
_cell_angle_gamma   108.66670990
_symmetry_Int_Tables_number   1
_chemical_formula_structural   In2AgSe4
_chemical_formula_sum   'In4 Ag2 Se8'
_cell_volume   424.92766130
_cell_formula_units_Z   2
loop_
 _symmetry_equiv_pos_site_id
 _symmetry_equiv_pos_as_xyz
  1  'x, y, z'
loop_
 _atom_site_type_symbol
 _atom_site_label
 _atom_site_symmetry_multiplicity
 _atom_site_fract_x
 _atom_site_fract_y
 _atom_site_fract_z
 _atom_site_occupancy
  In  In0  1  0.01155706  0.98844299  0.49999995  1
  In  In1  1  0.48884201  0.51115799  -0.00000004  1
  In  In2  1  0.49929401  0.50070599  0.49999995  1
  In  In3  1  0.48729804  0.98854099  0.75429492  1
  Ag  Ag4  1  0.01145903  0.51270199  0.24570497  1
  Ag  Ag5  1  0.00071706  0.99928299  -0.00000004  1
  Se  Se6  1  0.11170902  0.38563900  0.98426796  1
  Se  Se7  1  0.62104303  0.88693999  0.48176593  1
  Se  Se8  1  0.61436103  0.88829099  0.01573194  1
  Se  Se9  1  0.11306002  0.37895700  0.51823397  1
  Se  Se10  1  0.16160705  0.88831099  0.25040895  1
  Se  Se11  1  0.64770100  0.38033500  0.75182194  1
  Se  Se12  1  0.11168904  0.83839299  0.74959094  1
  Se  Se13  1  0.61966500  0.35229900  0.24817796  1
