# generated using pymatgen
data_SrLaTaWO6
_symmetry_space_group_name_H-M   'P 1'
_cell_length_a   5.76094007
_cell_length_b   5.76094007
_cell_length_c   5.76094007
_cell_angle_alpha   90.67854309
_cell_angle_beta   119.60901642
_cell_angle_gamma   119.60901642
_symmetry_Int_Tables_number   1
_chemical_formula_structural   SrLaTaWO6
_chemical_formula_sum   'Sr1 La1 Ta1 W1 O6'
_cell_volume   135.98503654
_cell_formula_units_Z   1
loop_
 _symmetry_equiv_pos_site_id
 _symmetry_equiv_pos_as_xyz
  1  'x, y, z'
loop_
 _atom_site_type_symbol
 _atom_site_label
 _atom_site_symmetry_multiplicity
 _atom_site_fract_x
 _atom_site_fract_y
 _atom_site_fract_z
 _atom_site_occupancy
  Sr  Sr0  1  0.49999993  0.74999997  0.24999991  1
  La  La1  1  0.49999998  0.24999999  0.74999997  1
  Ta  Ta2  1  0.00000000  0.00000000  0.00000000  1
  W  W3  1  -0.00000005  0.49999998  0.49999995  1
  O  O4  1  -0.00000002  0.26126899  0.26126897  1
  O  O5  1  0.48259794  0.66508398  0.79020393  1
  O  O6  1  0.87487999  0.20979599  0.69239397  1
  O  O7  1  -0.00000007  0.73873097  0.73873093  1
  O  O8  1  0.12511992  0.81751397  0.33491591  1
  O  O9  1  0.51740197  0.30760599  0.18248596  1
