# generated using pymatgen
data_NaAl(GeO3)2
_symmetry_space_group_name_H-M   'P 1'
_cell_length_a   5.55865908
_cell_length_b   6.74099064
_cell_length_c   6.74099064
_cell_angle_alpha   83.08576965
_cell_angle_beta   76.79740143
_cell_angle_gamma   76.79740143
_symmetry_Int_Tables_number   1
_chemical_formula_structural   NaAl(GeO3)2
_chemical_formula_sum   'Na2 Al2 Ge4 O12'
_cell_volume   238.79364586
_cell_formula_units_Z   2
loop_
 _symmetry_equiv_pos_site_id
 _symmetry_equiv_pos_as_xyz
  1  'x, y, z'
loop_
 _atom_site_type_symbol
 _atom_site_label
 _atom_site_symmetry_multiplicity
 _atom_site_fract_x
 _atom_site_fract_y
 _atom_site_fract_z
 _atom_site_occupancy
  Na  Na0  1  0.25000000  0.30199400  0.69800602  1
  Na  Na1  1  0.75000001  0.69800600  0.30199404  1
  Al  Al2  1  0.24999998  0.90527400  0.09472606  1
  Al  Al3  1  0.75000003  0.09472600  0.90527400  1
  Ge  Ge4  1  0.27581600  0.38371700  0.19282503  1
  Ge  Ge5  1  0.22418398  0.80717500  0.61628306  1
  Ge  Ge6  1  0.72418401  0.61628300  0.80717504  1
  Ge  Ge7  1  0.77581602  0.19282500  0.38371701  1
  O  O8  1  0.19604299  0.63087900  0.08328904  1
  O  O9  1  0.30395698  0.91671100  0.36912106  1
  O  O10  1  0.80395702  0.36912100  0.91671102  1
  O  O11  1  0.69604302  0.08328900  0.63087900  1
  O  O12  1  0.37313501  0.18421800  0.02261901  1
  O  O13  1  0.12686497  0.97738100  0.81578207  1
  O  O14  1  0.62686500  0.81578200  0.97738106  1
  O  O15  1  0.87313503  0.02261900  0.18421799  1
  O  O16  1  0.49196001  0.37219600  0.35311202  1
  O  O17  1  0.00803998  0.64688800  0.62780405  1
  O  O18  1  0.50804000  0.62780400  0.64688804  1
  O  O19  1  0.99196003  0.35311200  0.37219602  1
