# generated using pymatgen
data_Li3VF8
_symmetry_space_group_name_H-M   'P 1'
_cell_length_a   5.14835405
_cell_length_b   6.12172413
_cell_length_c   6.23470306
_cell_angle_alpha   108.80062866
_cell_angle_beta   91.71055603
_cell_angle_gamma   113.44919586
_symmetry_Int_Tables_number   1
_chemical_formula_structural   Li3VF8
_chemical_formula_sum   'Li3 V1 F8'
_cell_volume   167.80022673
_cell_formula_units_Z   1
loop_
 _symmetry_equiv_pos_site_id
 _symmetry_equiv_pos_as_xyz
  1  'x, y, z'
loop_
 _atom_site_type_symbol
 _atom_site_label
 _atom_site_symmetry_multiplicity
 _atom_site_fract_x
 _atom_site_fract_y
 _atom_site_fract_z
 _atom_site_occupancy
  Li  Li0  1  0.85555300  0.89802400  0.78461101  1
  Li  Li1  1  0.36343200  0.90201300  0.29004900  1
  V  V2  1  0.11251900  0.41753100  0.62554498  1
  Li  Li3  1  0.61003200  0.38532900  0.95237900  1
  F  F4  1  0.33035200  0.21110500  0.62575100  1
  F  F5  1  0.82445699  0.19770000  0.80961202  1
  F  F6  1  0.35475700  0.64972100  0.51536799  1
  F  F7  1  0.86524100  0.63090900  0.21139703  1
  F  F8  1  0.86318299  0.17409100  0.36334203  1
  F  F9  1  0.39020900  0.59056100  0.95440098  1
  F  F10  1  0.89505400  0.60323900  0.76452002  1
  F  F11  1  0.37400900  0.15557600  0.06712501  1
