# generated using pymatgen
data_NaYAlSiO6
_symmetry_space_group_name_H-M   'P 1'
_cell_length_a   5.38443232
_cell_length_b   5.38443232
_cell_length_c   5.38443279
_cell_angle_alpha   60.09763718
_cell_angle_beta   60.09763718
_cell_angle_gamma   60.09762573
_symmetry_Int_Tables_number   1
_chemical_formula_structural   NaYAlSiO6
_chemical_formula_sum   'Na1 Y1 Al1 Si1 O6'
_cell_volume   110.62785794
_cell_formula_units_Z   1
loop_
 _symmetry_equiv_pos_site_id
 _symmetry_equiv_pos_as_xyz
  1  'x, y, z'
loop_
 _atom_site_type_symbol
 _atom_site_label
 _atom_site_symmetry_multiplicity
 _atom_site_fract_x
 _atom_site_fract_y
 _atom_site_fract_z
 _atom_site_occupancy
  Na  Na0  1  0.00000000  0.00000000  0.00000000  1
  Y  Y1  1  0.50000002  0.50000003  0.49999998  1
  Al  Al2  1  0.25005801  0.25005801  0.25005799  1
  Si  Si3  1  0.74994203  0.74994204  0.74994197  1
  O  O4  1  0.97313805  0.02686200  0.49999998  1
  O  O5  1  0.02686200  0.50000003  0.97313799  1
  O  O6  1  0.50000002  0.97313805  0.02686196  1
  O  O7  1  0.47424701  1.00000005  0.52575297  1
  O  O8  1  -0.00000001  0.52575303  0.47424699  1
  O  O9  1  0.52575302  0.47424703  -0.00000002  1
