# generated using pymatgen
data_Dy(CoSi)2
_symmetry_space_group_name_H-M   'P 1'
_cell_length_a   3.94128799
_cell_length_b   3.94128799
_cell_length_c   5.72338152
_cell_angle_alpha   110.13996124
_cell_angle_beta   110.13996124
_cell_angle_gamma   90.00000000
_symmetry_Int_Tables_number   1
_chemical_formula_structural   Dy(CoSi)2
_chemical_formula_sum   'Dy1 Co2 Si2'
_cell_volume   77.65356563
_cell_formula_units_Z   1
loop_
 _symmetry_equiv_pos_site_id
 _symmetry_equiv_pos_as_xyz
  1  'x, y, z'
loop_
 _atom_site_type_symbol
 _atom_site_label
 _atom_site_symmetry_multiplicity
 _atom_site_fract_x
 _atom_site_fract_y
 _atom_site_fract_z
 _atom_site_occupancy
  Dy  Dy0  1  0.00000000  0.00000000  0.00000000  1
  Co  Co1  1  0.74999998  0.24999999  0.49999997  1
  Co  Co2  1  0.24999997  0.74999998  0.49999996  1
  Si  Si3  1  0.63290597  0.63290599  0.26581195  1
  Si  Si4  1  0.36709398  0.36709399  0.73418798  1
