# generated using pymatgen
data_VWO9
_symmetry_space_group_name_H-M   'P 1'
_cell_length_a   5.96162701
_cell_length_b   5.96161461
_cell_length_c   6.47292900
_cell_angle_alpha   89.99996185
_cell_angle_beta   90.00033569
_cell_angle_gamma   119.99987793
_symmetry_Int_Tables_number   1
_chemical_formula_structural   VWO9
_chemical_formula_sum   'V1 W1 O9'
_cell_volume   199.23273983
_cell_formula_units_Z   1
loop_
 _symmetry_equiv_pos_site_id
 _symmetry_equiv_pos_as_xyz
  1  'x, y, z'
loop_
 _atom_site_type_symbol
 _atom_site_label
 _atom_site_symmetry_multiplicity
 _atom_site_fract_x
 _atom_site_fract_y
 _atom_site_fract_z
 _atom_site_occupancy
  V  V0  1  0.00000000  0.00000000  0.99775400  1
  W  W1  1  0.66666666  0.33333333  0.71840803  1
  O  O2  1  0.33333333  0.66666666  0.28182901  1
  O  O3  1  0.66666666  0.33333333  0.45127903  1
  O  O4  1  0.33333333  0.66666666  0.55290101  1
  O  O5  1  0.33527200  0.16763600  0.81351602  1
  O  O6  1  0.83236099  0.66472399  0.81351504  1
  O  O7  1  0.83236100  0.16763700  0.81351504  1
  O  O8  1  0.66760199  0.83380099  0.18576003  1
  O  O9  1  0.16620200  0.33240100  0.18576101  1
  O  O10  1  0.16620199  0.83380099  0.18576000  1
