# generated using pymatgen
data_NbMo3(WS2)2
_symmetry_space_group_name_H-M   'P 1'
_cell_length_a   6.63780308
_cell_length_b   6.67983055
_cell_length_c   6.68090439
_cell_angle_alpha   100.30294037
_cell_angle_beta   100.65863037
_cell_angle_gamma   99.85431671
_symmetry_Int_Tables_number   1
_chemical_formula_structural   NbMo3(WS2)2
_chemical_formula_sum   'Nb1 Mo3 W2 S4'
_cell_volume   279.96058218
_cell_formula_units_Z   1
loop_
 _symmetry_equiv_pos_site_id
 _symmetry_equiv_pos_as_xyz
  1  'x, y, z'
loop_
 _atom_site_type_symbol
 _atom_site_label
 _atom_site_symmetry_multiplicity
 _atom_site_fract_x
 _atom_site_fract_y
 _atom_site_fract_z
 _atom_site_occupancy
  Nb  Nb0  1  0.99780100  0.99779800  0.99653794  1
  Mo  Mo1  1  0.81685999  0.54026100  0.40075795  1
  Mo  Mo2  1  0.54688699  0.39812700  0.82064597  1
  Mo  Mo3  1  0.39945401  0.82018900  0.54359898  1
  W  W4  1  0.25917900  0.12992500  0.58065899  1
  W  W5  1  0.13846701  0.58781900  0.26297099  1
  S  S6  1  0.58429899  0.26166400  0.13472397  1
  S  S7  1  0.73443100  0.88651500  0.45432296  1
  S  S8  1  0.88728099  0.45382400  0.73963995  1
  S  S9  1  0.45097000  0.73950900  0.88177098  1
