# generated using pymatgen
data_TmInNi4
_symmetry_space_group_name_H-M   'P 1'
_cell_length_a   4.29218197
_cell_length_b   5.38952589
_cell_length_c   5.38952589
_cell_angle_alpha   77.42287445
_cell_angle_beta   66.53450775
_cell_angle_gamma   66.53450775
_symmetry_Int_Tables_number   1
_chemical_formula_structural   TmInNi4
_chemical_formula_sum   'Tm1 In1 Ni4'
_cell_volume   104.64652813
_cell_formula_units_Z   1
loop_
 _symmetry_equiv_pos_site_id
 _symmetry_equiv_pos_as_xyz
  1  'x, y, z'
loop_
 _atom_site_type_symbol
 _atom_site_label
 _atom_site_symmetry_multiplicity
 _atom_site_fract_x
 _atom_site_fract_y
 _atom_site_fract_z
 _atom_site_occupancy
  Tm  Tm0  1  0.45805499  0.29194500  0.79194497  1
  In  In1  1  0.54194496  0.70805500  0.20805498  1
  Ni  Ni2  1  0.83474097  0.71551400  0.61500396  1
  Ni  Ni3  1  0.16525898  0.28448600  0.38499599  1
  Ni  Ni4  1  0.16525894  0.88499600  0.78448599  1
  Ni  Ni5  1  0.83474102  0.11500400  0.21551396  1
