# generated using pymatgen
data_KMnCu3Se4
_symmetry_space_group_name_H-M   'P 1'
_cell_length_a   5.82540703
_cell_length_b   7.85481977
_cell_length_c   10.39247131
_cell_angle_alpha   90.00000000
_cell_angle_beta   106.24755859
_cell_angle_gamma   90.00000000
_symmetry_Int_Tables_number   1
_chemical_formula_structural   KMnCu3Se4
_chemical_formula_sum   'K2 Mn2 Cu6 Se8'
_cell_volume   456.54176570
_cell_formula_units_Z   2
loop_
 _symmetry_equiv_pos_site_id
 _symmetry_equiv_pos_as_xyz
  1  'x, y, z'
loop_
 _atom_site_type_symbol
 _atom_site_label
 _atom_site_symmetry_multiplicity
 _atom_site_fract_x
 _atom_site_fract_y
 _atom_site_fract_z
 _atom_site_occupancy
  K  K0  1  0.19959100  0.75000002  0.37800998  1
  K  K1  1  0.80040899  0.25000001  0.62198996  1
  Mn  Mn2  1  0.85335899  0.25000001  0.20531698  1
  Mn  Mn3  1  0.14664100  0.75000002  0.79468297  1
  Cu  Cu4  1  0.28002900  0.49422201  0.00213300  1
  Cu  Cu5  1  0.34956300  0.25000001  0.19966099  1
  Cu  Cu6  1  0.65043699  0.75000002  0.80033896  1
  Cu  Cu7  1  0.71997099  0.50577801  0.99786695  1
  Cu  Cu8  1  0.71997099  0.99422203  0.99786695  1
  Cu  Cu9  1  0.28002900  0.00577800  0.00213300  1
  Se  Se10  1  0.61306999  0.50311801  0.21078098  1
  Se  Se11  1  0.38693000  0.00311800  0.78921896  1
  Se  Se12  1  0.61306999  0.99688203  0.21078098  1
  Se  Se13  1  0.38693000  0.49688201  0.78921896  1
  Se  Se14  1  0.02099500  0.75000002  0.00308400  1
  Se  Se15  1  0.97900499  0.25000001  0.99691595  1
  Se  Se16  1  0.80795899  0.75000002  0.60618596  1
  Se  Se17  1  0.19204100  0.25000001  0.39381398  1
