# generated using pymatgen
data_CeGe4
_symmetry_space_group_name_H-M   'P 1'
_cell_length_a   4.47893476
_cell_length_b   8.23475647
_cell_length_c   13.88494301
_cell_angle_alpha   107.24963379
_cell_angle_beta   90.00000000
_cell_angle_gamma   90.00000000
_symmetry_Int_Tables_number   1
_chemical_formula_structural   CeGe4
_chemical_formula_sum   'Ce4 Ge16'
_cell_volume   489.08337669
_cell_formula_units_Z   4
loop_
 _symmetry_equiv_pos_site_id
 _symmetry_equiv_pos_as_xyz
  1  'x, y, z'
loop_
 _atom_site_type_symbol
 _atom_site_label
 _atom_site_symmetry_multiplicity
 _atom_site_fract_x
 _atom_site_fract_y
 _atom_site_fract_z
 _atom_site_occupancy
  Ce  Ce0  1  0.75000004  0.58830297  0.17660601  1
  Ce  Ce1  1  0.25000001  0.41169698  0.82339401  1
  Ce  Ce2  1  0.75000004  0.13494699  0.26989400  1
  Ce  Ce3  1  0.25000001  0.86505295  0.73010601  1
  Ge  Ge4  1  0.75000004  0.76068896  0.90814401  1
  Ge  Ge5  1  0.25000001  0.85254495  0.09185601  1
  Ge  Ge6  1  0.25000001  0.23931099  0.09185600  1
  Ge  Ge7  1  0.75000004  0.14745499  0.90814401  1
  Ge  Ge8  1  0.75000004  0.75021296  0.50042601  1
  Ge  Ge9  1  0.25000001  0.24978699  0.49957401  1
  Ge  Ge10  1  0.75000004  0.51368597  0.64661301  1
  Ge  Ge11  1  0.25000001  0.86707295  0.35338701  1
  Ge  Ge12  1  0.25000001  0.48631397  0.35338701  1
  Ge  Ge13  1  0.75000004  0.13292699  0.64661301  1
  Ge  Ge14  1  0.75000004  0.40369098  0.43030001  1
  Ge  Ge15  1  0.25000001  0.97339095  0.56970001  1
  Ge  Ge16  1  0.25000001  0.59630897  0.56970001  1
  Ge  Ge17  1  0.75000004  0.02660900  0.43030000  1
  Ge  Ge18  1  0.75000004  0.03802000  0.07604000  1
  Ge  Ge19  1  0.25000001  0.96197995  0.92396002  1
