# generated using pymatgen
data_Dy4Si5Ir3
_symmetry_space_group_name_H-M   'P 1'
_cell_length_a   4.34999800
_cell_length_b   7.27935123
_cell_length_c   7.45292711
_cell_angle_alpha   90.00000000
_cell_angle_beta   90.00000000
_cell_angle_gamma   90.00000000
_symmetry_Int_Tables_number   1
_chemical_formula_structural   Dy4Si5Ir3
_chemical_formula_sum   'Dy4 Si5 Ir3'
_cell_volume   235.99815402
_cell_formula_units_Z   1
loop_
 _symmetry_equiv_pos_site_id
 _symmetry_equiv_pos_as_xyz
  1  'x, y, z'
loop_
 _atom_site_type_symbol
 _atom_site_label
 _atom_site_symmetry_multiplicity
 _atom_site_fract_x
 _atom_site_fract_y
 _atom_site_fract_z
 _atom_site_occupancy
  Dy  Dy0  1  0.25000000  0.98730497  0.30584300  1
  Dy  Dy1  1  0.25000000  0.48730498  0.19415700  1
  Dy  Dy2  1  0.75000000  0.01269500  0.69415699  1
  Dy  Dy3  1  0.75000000  0.51269498  0.80584299  1
  Si  Si4  1  0.25000000  0.14925000  0.92727099  1
  Si  Si5  1  0.25000000  0.64924998  0.57272899  1
  Si  Si6  1  0.75000000  0.85074997  0.07272900  1
  Si  Si7  1  0.75000000  0.35074999  0.42727099  1
  Si  Si8  1  0.25000000  0.30126799  0.59672199  1
  Ir  Ir9  1  0.25000000  0.80126797  0.90327799  1
  Ir  Ir10  1  0.75000000  0.69873198  0.40327799  1
  Ir  Ir11  1  0.75000000  0.19873199  0.09672200  1
