# generated using pymatgen
data_Ti5Ge3
_symmetry_space_group_name_H-M   'P 1'
_cell_length_a   5.36358595
_cell_length_b   7.70846796
_cell_length_c   7.70846891
_cell_angle_alpha   120.00000000
_cell_angle_beta   90.00000000
_cell_angle_gamma   90.00000000
_symmetry_Int_Tables_number   1
_chemical_formula_structural   Ti5Ge3
_chemical_formula_sum   'Ti10 Ge6'
_cell_volume   276.00825608
_cell_formula_units_Z   2
loop_
 _symmetry_equiv_pos_site_id
 _symmetry_equiv_pos_as_xyz
  1  'x, y, z'
loop_
 _atom_site_type_symbol
 _atom_site_label
 _atom_site_symmetry_multiplicity
 _atom_site_fract_x
 _atom_site_fract_y
 _atom_site_fract_z
 _atom_site_occupancy
  Ti  Ti0  1  0.25000000  0.00000000  0.75110399  1
  Ti  Ti1  1  0.75000001  1.00000004  0.24889606  1
  Ti  Ti2  1  0.75000001  0.24889601  0.00000002  1
  Ti  Ti3  1  0.25000000  0.24889601  0.24889601  1
  Ti  Ti4  1  0.25000000  0.75110403  0.00000005  1
  Ti  Ti5  1  0.75000001  0.75110403  0.75110404  1
  Ti  Ti6  1  -0.00000000  0.66666669  0.33333337  1
  Ti  Ti7  1  0.50000000  0.33333335  0.66666668  1
  Ti  Ti8  1  1.00000001  0.33333335  0.66666668  1
  Ti  Ti9  1  0.50000000  0.66666669  0.33333337  1
  Ge  Ge10  1  0.25000000  0.60836802  0.60836803  1
  Ge  Ge11  1  0.75000001  0.60836802  1.00000002  1
  Ge  Ge12  1  0.75000001  0.00000000  0.60836799  1
  Ge  Ge13  1  0.25000000  0.00000000  0.39163199  1
  Ge  Ge14  1  0.25000000  0.39163202  1.00000001  1
  Ge  Ge15  1  0.75000001  0.39163202  0.39163202  1
