# generated using pymatgen
data_YSb2
_symmetry_space_group_name_H-M   'P 1'
_cell_length_a   4.35069084
_cell_length_b   4.35069084
_cell_length_c   17.24798775
_cell_angle_alpha   90.00000000
_cell_angle_beta   90.00000000
_cell_angle_gamma   89.59311676
_symmetry_Int_Tables_number   1
_chemical_formula_structural   YSb2
_chemical_formula_sum   'Y4 Sb8'
_cell_volume   326.47049012
_cell_formula_units_Z   4
loop_
 _symmetry_equiv_pos_site_id
 _symmetry_equiv_pos_as_xyz
  1  'x, y, z'
loop_
 _atom_site_type_symbol
 _atom_site_label
 _atom_site_symmetry_multiplicity
 _atom_site_fract_x
 _atom_site_fract_y
 _atom_site_fract_z
 _atom_site_occupancy
  Y  Y0  1  0.63933499  0.36066499  0.89231696  1
  Y  Y1  1  0.36066501  0.63933498  0.10768300  1
  Y  Y2  1  0.86066498  0.13933500  0.39231698  1
  Y  Y3  1  0.13933503  0.86066497  0.60768297  1
  Sb  Sb4  1  0.64016599  0.35983399  0.56948498  1
  Sb  Sb5  1  0.35983401  0.64016598  0.43051498  1
  Sb  Sb6  1  0.85983398  0.14016600  0.06948500  1
  Sb  Sb7  1  0.14016603  0.85983397  0.93051496  1
  Sb  Sb8  1  0.12761101  0.37238899  0.74999997  1
  Sb  Sb9  1  0.37238899  0.12761100  0.24999999  1
  Sb  Sb10  1  0.87238900  0.62761098  0.24999999  1
  Sb  Sb11  1  0.62761101  0.87238897  0.74999997  1
