# generated using pymatgen
data_Ba8PrSm2Sb3CN5
_symmetry_space_group_name_H-M   'P 1'
_cell_length_a   7.63906193
_cell_length_b   7.63906145
_cell_length_c   12.79439545
_cell_angle_alpha   90.00000000
_cell_angle_beta   90.00000000
_cell_angle_gamma   120.00000000
_symmetry_Int_Tables_number   1
_chemical_formula_structural   Ba8PrSm2Sb3CN5
_chemical_formula_sum   'Ba8 Pr1 Sm2 Sb3 C1 N5'
_cell_volume   646.59216198
_cell_formula_units_Z   1
loop_
 _symmetry_equiv_pos_site_id
 _symmetry_equiv_pos_as_xyz
  1  'x, y, z'
loop_
 _atom_site_type_symbol
 _atom_site_label
 _atom_site_symmetry_multiplicity
 _atom_site_fract_x
 _atom_site_fract_y
 _atom_site_fract_z
 _atom_site_occupancy
  Ba  Ba0  1  0.17484998  0.34969999  0.24999999  1
  Ba  Ba1  1  0.82514997  0.65029997  0.74999997  1
  Ba  Ba2  1  0.65029996  0.82514997  0.24999999  1
  Pr  Pr3  1  0.34969999  0.17484999  0.74999997  1
  Ba  Ba4  1  0.17484995  0.82514997  0.24999999  1
  Sm  Sm5  1  0.82515000  0.17484999  0.74999997  1
  Ba  Ba6  1  0.50000000  0.00000000  0.00000000  1
  Ba  Ba7  1  0.99999998  0.49999998  -0.00000000  1
  Ba  Ba8  1  0.50000000  0.00000000  0.49999998  1
  Ba  Ba9  1  0.49999998  0.49999998  0.99999997  1
  Sb  Sb10  1  0.99999998  0.49999998  0.49999998  1
  Sm  Sm11  1  0.49999998  0.49999998  0.49999998  1
  Sb  Sb12  1  0.00000000  0.00000000  0.00000000  1
  Sb  Sb13  1  0.00000000  0.00000000  0.49999998  1
  C  C14  1  0.33333330  0.66666664  0.74999997  1
  N  N15  1  0.66666665  0.33333332  0.24999999  1
  N  N16  1  0.33333330  0.66666664  0.11271100  1
  N  N17  1  0.66666665  0.33333332  0.88728897  1
  N  N18  1  0.66666665  0.33333332  0.61271098  1
  N  N19  1  0.33333330  0.66666664  0.38728899  1
