# generated using pymatgen
data_LiCo5O13
_symmetry_space_group_name_H-M   'P 1'
_cell_length_a   5.85159492
_cell_length_b   6.03869629
_cell_length_c   6.09873629
_cell_angle_alpha   100.22656250
_cell_angle_beta   99.97608948
_cell_angle_gamma   98.77386475
_symmetry_Int_Tables_number   1
_chemical_formula_structural   LiCo5O13
_chemical_formula_sum   'Li1 Co5 O13'
_cell_volume   205.10573967
_cell_formula_units_Z   1
loop_
 _symmetry_equiv_pos_site_id
 _symmetry_equiv_pos_as_xyz
  1  'x, y, z'
loop_
 _atom_site_type_symbol
 _atom_site_label
 _atom_site_symmetry_multiplicity
 _atom_site_fract_x
 _atom_site_fract_y
 _atom_site_fract_z
 _atom_site_occupancy
  Li  Li0  1  0.99274198  0.98270703  0.99554298  1
  Co  Co1  1  0.29820098  0.61191602  0.13505900  1
  Co  Co2  1  0.85046699  0.65125402  0.37215899  1
  Co  Co3  1  0.60230700  0.15457800  0.34957899  1
  Co  Co4  1  0.40055998  0.85613102  0.65458400  1
  Co  Co5  1  0.14722199  0.34549201  0.60992700  1
  O  O6  1  0.67478199  0.41270401  0.87287799  1
  O  O7  1  0.92838499  0.65780502  0.06904999  1
  O  O8  1  0.57156999  0.40311901  0.17643699  1
  O  O9  1  0.59264698  0.82992702  0.41057099  1
  O  O10  1  0.18842998  0.57539902  0.41610400  1
  O  O11  1  0.82066099  0.41866701  0.59426499  1
  O  O12  1  0.40426700  0.17746600  0.59008499  1
  O  O13  1  0.41328698  0.60718702  0.83334199  1
  O  O14  1  0.31911397  0.95949403  0.11497600  1
  O  O15  1  0.94171201  0.11754300  0.31603798  1
  O  O16  1  0.05503697  0.88486702  0.67190600  1
  O  O17  1  0.68293200  0.05626800  0.88804698  1
  O  O18  1  0.11567999  0.29748001  0.92945299  1
