# generated using pymatgen
data_Ti4Co7Ge6
_symmetry_space_group_name_H-M   'P 1'
_cell_length_a   6.63364220
_cell_length_b   6.63364220
_cell_length_c   6.63364220
_cell_angle_alpha   109.47122192
_cell_angle_beta   109.47122192
_cell_angle_gamma   109.47122192
_symmetry_Int_Tables_number   1
_chemical_formula_structural   Ti4Co7Ge6
_chemical_formula_sum   'Ti4 Co7 Ge6'
_cell_volume   224.71611473
_cell_formula_units_Z   1
loop_
 _symmetry_equiv_pos_site_id
 _symmetry_equiv_pos_as_xyz
  1  'x, y, z'
loop_
 _atom_site_type_symbol
 _atom_site_label
 _atom_site_symmetry_multiplicity
 _atom_site_fract_x
 _atom_site_fract_y
 _atom_site_fract_z
 _atom_site_occupancy
  Ti  Ti0  1  0.50000002  0.50000001  0.50000003  1
  Ti  Ti1  1  0.00000000  0.00000000  0.49999999  1
  Ti  Ti2  1  0.00000003  0.50000001  0.00000003  1
  Ti  Ti3  1  0.50000005  1.00000001  0.00000007  1
  Co  Co4  1  0.00000000  0.00000000  0.00000000  1
  Co  Co5  1  0.25000004  0.75000001  0.50000003  1
  Co  Co6  1  0.75000000  0.25000000  0.50000002  1
  Co  Co7  1  0.75000002  0.50000001  0.25000004  1
  Co  Co8  1  0.25000003  0.50000001  0.75000001  1
  Co  Co9  1  0.50000004  0.75000001  0.25000005  1
  Co  Co10  1  0.50000001  0.25000000  0.75000000  1
  Ge  Ge11  1  0.31265001  0.31265000  1.00000000  1
  Ge  Ge12  1  0.68735003  0.68735001  1.00000003  1
  Ge  Ge13  1  0.31265006  1.00000001  0.31265005  1
  Ge  Ge14  1  0.68735005  1.00000001  0.68735005  1
  Ge  Ge15  1  1.00000002  0.68735001  0.68735004  1
  Ge  Ge16  1  0.00000002  0.31265000  0.31265001  1
