# generated using pymatgen
data_La4Ti(ReO4)3
_symmetry_space_group_name_H-M   'P 1'
_cell_length_a   5.55777311
_cell_length_b   5.78974199
_cell_length_c   8.00284004
_cell_angle_alpha   90.00000000
_cell_angle_beta   89.80200195
_cell_angle_gamma   90.00000000
_symmetry_Int_Tables_number   1
_chemical_formula_structural   La4Ti(ReO4)3
_chemical_formula_sum   'La4 Ti1 Re3 O12'
_cell_volume   257.51442850
_cell_formula_units_Z   1
loop_
 _symmetry_equiv_pos_site_id
 _symmetry_equiv_pos_as_xyz
  1  'x, y, z'
loop_
 _atom_site_type_symbol
 _atom_site_label
 _atom_site_symmetry_multiplicity
 _atom_site_fract_x
 _atom_site_fract_y
 _atom_site_fract_z
 _atom_site_occupancy
  La  La0  1  0.98468398  0.44409000  0.25369395  1
  La  La1  1  0.01531600  0.55591000  0.74630597  1
  La  La2  1  0.51531599  0.94409000  0.24630597  1
  La  La3  1  0.48468399  0.05591000  0.75369395  1
  Re  Re4  1  0.00000000  0.00000000  0.49999998  1
  Ti  Ti5  1  0.49999999  0.50000000  -0.00000002  1
  Re  Re6  1  0.00000000  0.00000000  0.00000000  1
  Re  Re7  1  0.49999999  0.50000000  0.49999996  1
  O  O8  1  0.10562200  0.04306600  0.23509399  1
  O  O9  1  0.89437798  0.95693400  0.76490594  1
  O  O10  1  0.39437799  0.54306600  0.26490597  1
  O  O11  1  0.60562199  0.45693400  0.73509395  1
  O  O12  1  0.81645098  0.71600200  0.06094096  1
  O  O13  1  0.18354900  0.28399800  0.93905896  1
  O  O14  1  0.68354899  0.21600200  0.43905896  1
  O  O15  1  0.31645099  0.78399800  0.56094097  1
  O  O16  1  0.71171799  0.18795900  0.05045297  1
  O  O17  1  0.28828199  0.81204100  0.94954696  1
  O  O18  1  0.78828198  0.68795900  0.44954695  1
  O  O19  1  0.21171800  0.31204100  0.55045297  1
