# generated using pymatgen
data_LaPr11Co8
_symmetry_space_group_name_H-M   'P 1'
_cell_length_a   6.21455908
_cell_length_b   9.82636833
_cell_length_c   9.82636833
_cell_angle_alpha   120.00000000
_cell_angle_beta   90.00000000
_cell_angle_gamma   90.00000000
_symmetry_Int_Tables_number   1
_chemical_formula_structural   LaPr11Co8
_chemical_formula_sum   'La1 Pr11 Co8'
_cell_volume   519.66926398
_cell_formula_units_Z   1
loop_
 _symmetry_equiv_pos_site_id
 _symmetry_equiv_pos_as_xyz
  1  'x, y, z'
loop_
 _atom_site_type_symbol
 _atom_site_label
 _atom_site_symmetry_multiplicity
 _atom_site_fract_x
 _atom_site_fract_y
 _atom_site_fract_z
 _atom_site_occupancy
  La  La0  1  0.92965299  0.66666666  0.33333337  1
  Pr  Pr1  1  0.42965299  0.33333333  0.66666670  1
  Pr  Pr2  1  0.75898599  0.87303999  0.74608005  1
  Pr  Pr3  1  0.25898600  0.74608099  0.87304105  1
  Pr  Pr4  1  0.25898600  0.12696000  0.87304103  1
  Pr  Pr5  1  0.75898599  0.87303999  0.12695904  1
  Pr  Pr6  1  0.75898599  0.25391900  0.12695901  1
  Pr  Pr7  1  0.25898600  0.12696000  0.25392001  1
  Pr  Pr8  1  0.96138599  0.45566499  0.91133004  1
  Pr  Pr9  1  0.46138599  0.91132999  0.45566505  1
  Pr  Pr10  1  0.46138599  0.54433499  0.45566503  1
  Pr  Pr11  1  0.96138599  0.45566499  0.54433503  1
  Co  Co12  1  0.96138599  0.08867000  0.54433502  1
  Co  Co13  1  0.46138599  0.54433499  0.08867002  1
  Co  Co14  1  0.69307599  0.18644200  0.37288402  1
  Co  Co15  1  0.19307600  0.37288499  0.18644302  1
  Co  Co16  1  0.19307600  0.81355799  0.18644304  1
  Co  Co17  1  0.69307599  0.18644200  0.81355703  1
  Co  Co18  1  0.69307599  0.62711499  0.81355705  1
  Co  Co19  1  0.19307600  0.81355799  0.62711605  1
