# generated using pymatgen
data_Dy4Si11Rh5
_symmetry_space_group_name_H-M   'P 1'
_cell_length_a   5.75718117
_cell_length_b   8.09776688
_cell_length_c   8.09776688
_cell_angle_alpha   93.13501740
_cell_angle_beta   109.54667664
_cell_angle_gamma   109.54667664
_symmetry_Int_Tables_number   1
_chemical_formula_structural   Dy4Si11Rh5
_chemical_formula_sum   'Dy4 Si11 Rh5'
_cell_volume   329.30619873
_cell_formula_units_Z   1
loop_
 _symmetry_equiv_pos_site_id
 _symmetry_equiv_pos_as_xyz
  1  'x, y, z'
loop_
 _atom_site_type_symbol
 _atom_site_label
 _atom_site_symmetry_multiplicity
 _atom_site_fract_x
 _atom_site_fract_y
 _atom_site_fract_z
 _atom_site_occupancy
  Dy  Dy0  1  0.76464400  0.40593399  0.12755401  1
  Dy  Dy1  1  0.73535601  0.87244598  0.59406601  1
  Dy  Dy2  1  0.23535601  0.59406599  0.87244599  1
  Dy  Dy3  1  0.26464400  0.12755400  0.40593399  1
  Si  Si4  1  0.61805401  0.46150799  0.74128299  1
  Si  Si5  1  0.88194600  0.25871700  0.53849199  1
  Si  Si6  1  0.38194601  0.53849199  0.25871701  1
  Si  Si7  1  0.11805401  0.74128299  0.46150801  1
  Si  Si8  1  0.75000000  0.00388700  0.99611298  1
  Si  Si9  1  0.25000002  0.99611298  0.00388702  1
  Si  Si10  1  0.82963701  0.73958899  0.92426000  1
  Si  Si11  1  0.67036300  0.07574000  0.26041100  1
  Si  Si12  1  0.17036300  0.26041100  0.07574000  1
  Rh  Rh13  1  0.32963701  0.92425998  0.73958900  1
  Si  Si14  1  0.75000000  0.21734900  0.78265099  1
  Si  Si15  1  0.25000001  0.78265099  0.21734901  1
  Rh  Rh16  1  0.75000001  0.50750999  0.49249000  1
  Rh  Rh17  1  0.25000001  0.49248999  0.50751000  1
  Rh  Rh18  1  0.75000001  0.77180099  0.22819901  1
  Rh  Rh19  1  0.25000000  0.22819900  0.77180099  1
