# generated using pymatgen
data_NaZrCu3AgO10
_symmetry_space_group_name_H-M   'P 1'
_cell_length_a   5.84410620
_cell_length_b   5.84410620
_cell_length_c   5.84410620
_cell_angle_alpha   90.00000000
_cell_angle_beta   90.00000000
_cell_angle_gamma   90.00000000
_symmetry_Int_Tables_number   1
_chemical_formula_structural   NaZrCu3AgO10
_chemical_formula_sum   'Na1 Zr1 Cu3 Ag1 O10'
_cell_volume   199.59713245
_cell_formula_units_Z   1
loop_
 _symmetry_equiv_pos_site_id
 _symmetry_equiv_pos_as_xyz
  1  'x, y, z'
loop_
 _atom_site_type_symbol
 _atom_site_label
 _atom_site_symmetry_multiplicity
 _atom_site_fract_x
 _atom_site_fract_y
 _atom_site_fract_z
 _atom_site_occupancy
  Na  Na0  1  0.49999998  0.49999998  0.49999998  1
  Zr  Zr1  1  0.00000000  0.00000000  0.00000000  1
  Cu  Cu2  1  0.74999997  0.00000000  0.49999998  1
  Ag  Ag3  1  0.49999998  0.74999997  -0.00000000  1
  Cu  Cu4  1  -0.00000000  0.49999998  0.74999997  1
  Cu  Cu5  1  -0.00000000  0.49999998  0.24999999  1
  O  O6  1  0.24999999  0.00000000  0.49999998  1
  O  O7  1  0.49999998  0.24999999  -0.00000000  1
  O  O8  1  0.74999997  0.24999999  0.24999999  1
  O  O9  1  0.24999999  0.24999999  0.74999997  1
  O  O10  1  0.24999999  0.74999997  0.24999999  1
  O  O11  1  0.74999997  0.74999997  0.74999997  1
  O  O12  1  0.24999999  0.74999997  0.74999997  1
  O  O13  1  0.74999997  0.74999997  0.24999999  1
  O  O14  1  0.24999999  0.24999999  0.24999999  1
  O  O15  1  0.74999997  0.24999999  0.74999997  1
