# generated using pymatgen
data_Na5Bi(SbO6)2
_symmetry_space_group_name_H-M   'P 1'
_cell_length_a   5.82889414
_cell_length_b   7.05114698
_cell_length_c   8.97140026
_cell_angle_alpha   104.49767303
_cell_angle_beta   90.00000000
_cell_angle_gamma   114.41416168
_symmetry_Int_Tables_number   1
_chemical_formula_structural   Na5Bi(SbO6)2
_chemical_formula_sum   'Na5 Bi1 Sb2 O12'
_cell_volume   322.81887695
_cell_formula_units_Z   1
loop_
 _symmetry_equiv_pos_site_id
 _symmetry_equiv_pos_as_xyz
  1  'x, y, z'
loop_
 _atom_site_type_symbol
 _atom_site_label
 _atom_site_symmetry_multiplicity
 _atom_site_fract_x
 _atom_site_fract_y
 _atom_site_fract_z
 _atom_site_occupancy
  Na  Na0  1  0.11542300  0.23084599  0.48086000  1
  Na  Na1  1  0.88457698  0.76915398  0.51913999  1
  Na  Na2  1  0.12973600  0.25947199  0.92828399  1
  Na  Na3  1  0.87026398  0.74052798  0.07171599  1
  Bi  Bi4  1  0.58841099  0.17682199  0.20492900  1
  Na  Na5  1  0.41158899  0.82317797  0.79507099  1
  Sb  Sb6  1  0.34071600  0.68143198  0.29694199  1
  Sb  Sb7  1  0.65928399  0.31856799  0.70305799  1
  O  O8  1  0.31716499  0.09682700  0.70750500  1
  O  O9  1  0.22033800  0.90317297  0.29249499  1
  O  O10  1  0.25228600  0.99999997  -0.00000001  1
  O  O11  1  0.46859399  0.47277298  0.16781400  1
  O  O12  1  0.68283499  0.90317297  0.29249499  1
  O  O13  1  0.53140599  0.52722698  0.83218599  1
  O  O14  1  0.99582098  0.52722698  0.83218599  1
  O  O15  1  0.67705599  0.35411199  0.50390200  1
  O  O16  1  0.32294400  0.64588798  0.49609799  1
  O  O17  1  0.74771398  0.00000000  0.00000000  1
  O  O18  1  0.00417900  0.47277298  0.16781400  1
  O  O19  1  0.77966198  0.09682700  0.70750500  1
