# generated using pymatgen
data_NaCeN2
_symmetry_space_group_name_H-M   'P 1'
_cell_length_a   3.49949718
_cell_length_b   3.49949718
_cell_length_c   6.05553579
_cell_angle_alpha   73.20488739
_cell_angle_beta   73.20488739
_cell_angle_gamma   60.00001526
_symmetry_Int_Tables_number   1
_chemical_formula_structural   NaCeN2
_chemical_formula_sum   'Na1 Ce1 N2'
_cell_volume   60.54336523
_cell_formula_units_Z   1
loop_
 _symmetry_equiv_pos_site_id
 _symmetry_equiv_pos_as_xyz
  1  'x, y, z'
loop_
 _atom_site_type_symbol
 _atom_site_label
 _atom_site_symmetry_multiplicity
 _atom_site_fract_x
 _atom_site_fract_y
 _atom_site_fract_z
 _atom_site_occupancy
  Na  Na0  1  0.00000000  0.00000000  0.00000000  1
  Ce  Ce1  1  0.50000005  0.50000001  0.49999997  1
  N  N2  1  0.23986502  0.23986500  0.28040499  1
  N  N3  1  0.76013507  0.76013501  0.71959495  1
