# generated using pymatgen
data_FeCo7P9
_symmetry_space_group_name_H-M   'P 1'
_cell_length_a   6.75129509
_cell_length_b   6.75129509
_cell_length_c   6.75129509
_cell_angle_alpha   109.47122192
_cell_angle_beta   109.47122192
_cell_angle_gamma   109.47122192
_symmetry_Int_Tables_number   1
_chemical_formula_structural   FeCo7P9
_chemical_formula_sum   'Fe1 Co7 P9'
_cell_volume   236.88598164
_cell_formula_units_Z   1
loop_
 _symmetry_equiv_pos_site_id
 _symmetry_equiv_pos_as_xyz
  1  'x, y, z'
loop_
 _atom_site_type_symbol
 _atom_site_label
 _atom_site_symmetry_multiplicity
 _atom_site_fract_x
 _atom_site_fract_y
 _atom_site_fract_z
 _atom_site_occupancy
  Fe  Fe0  1  0.00000000  0.00000000  0.00000000  1
  Co  Co1  1  0.50000003  0.50000001  0.50000003  1
  Co  Co2  1  0.00000000  0.00000000  0.49999999  1
  Co  Co3  1  1.00000003  0.50000001  0.00000005  1
  Co  Co4  1  0.50000000  0.00000000  0.00000001  1
  P  P5  1  0.15086802  0.35293401  0.50380202  1
  P  P6  1  0.84913204  0.64706602  0.49619805  1
  Co  Co7  1  0.15086804  0.64706602  0.79793403  1
  Co  Co8  1  0.84913202  0.35293401  0.20206604  1
  P  P9  1  0.64706603  0.49619801  0.84913203  1
  Co  Co10  1  0.35293403  0.50380201  0.15086803  1
  P  P11  1  0.35293401  0.20206601  0.84913201  1
  P  P12  1  0.64706605  0.79793402  0.15086806  1
  P  P13  1  0.79793401  0.15086800  0.64706602  1
  P  P14  1  0.20206605  0.84913202  0.35293405  1
  P  P15  1  0.50380201  0.15086800  0.35293402  1
  P  P16  1  0.49619805  0.84913202  0.64706605  1
