# generated using pymatgen
data_GdFeC2
_symmetry_space_group_name_H-M   'P 1'
_cell_length_a   3.46805501
_cell_length_b   3.73287320
_cell_length_c   3.73287320
_cell_angle_alpha   105.91622925
_cell_angle_beta   90.00000000
_cell_angle_gamma   90.00000000
_symmetry_Int_Tables_number   1
_chemical_formula_structural   GdFeC2
_chemical_formula_sum   'Gd1 Fe1 C2'
_cell_volume   46.47246013
_cell_formula_units_Z   1
loop_
 _symmetry_equiv_pos_site_id
 _symmetry_equiv_pos_as_xyz
  1  'x, y, z'
loop_
 _atom_site_type_symbol
 _atom_site_label
 _atom_site_symmetry_multiplicity
 _atom_site_fract_x
 _atom_site_fract_y
 _atom_site_fract_z
 _atom_site_occupancy
  Gd  Gd0  1  -0.00000000  0.99901001  0.00099003  1
  Fe  Fe1  1  0.50000000  0.38770601  0.61229402  1
  C  C2  1  0.50000000  0.85226101  0.45397803  1
  C  C3  1  0.50000000  0.54602201  0.14773902  1
