# generated using pymatgen
data_Tl2In3SbPbSe6
_symmetry_space_group_name_H-M   'P 1'
_cell_length_a   7.72061586
_cell_length_b   7.72061586
_cell_length_c   8.51669312
_cell_angle_alpha   98.73403931
_cell_angle_beta   98.73403931
_cell_angle_gamma   119.89827728
_symmetry_Int_Tables_number   1
_chemical_formula_structural   Tl2In3SbPbSe6
_chemical_formula_sum   'Tl2 In3 Sb1 Pb1 Se6'
_cell_volume   419.37740344
_cell_formula_units_Z   1
loop_
 _symmetry_equiv_pos_site_id
 _symmetry_equiv_pos_as_xyz
  1  'x, y, z'
loop_
 _atom_site_type_symbol
 _atom_site_label
 _atom_site_symmetry_multiplicity
 _atom_site_fract_x
 _atom_site_fract_y
 _atom_site_fract_z
 _atom_site_occupancy
  Tl  Tl0  1  0.33196507  0.66803504  1.00000002  1
  Tl  Tl1  1  0.66818504  0.33181502  0.00000004  1
  In  In2  1  0.99988801  0.00011200  1.00000000  1
  In  In3  1  0.16650308  0.83349705  0.50000004  1
  In  In4  1  0.83350003  0.16650001  0.50000002  1
  Sb  Sb5  1  0.45247005  0.45255603  0.35428603  1
  Pb  Pb6  1  0.54744406  0.54753004  0.64571403  1
  Se  Se7  1  0.73246508  0.73304905  0.25833606  1
  Se  Se8  1  0.26695103  0.26753502  0.74166400  1
  Se  Se9  1  0.10620304  0.41891203  0.25647802  1
  Se  Se10  1  0.42034002  0.10700101  0.25616101  1
  Se  Se11  1  0.89299907  0.57966004  0.74383904  1
  Se  Se12  1  0.58108809  0.89379706  0.74352205  1
