# generated using pymatgen
data_ZrPt3
_symmetry_space_group_name_H-M   'P 1'
_cell_length_a   4.04267597
_cell_length_b   4.08240509
_cell_length_c   8.23494530
_cell_angle_alpha   90.00000000
_cell_angle_beta   90.00000000
_cell_angle_gamma   90.00000000
_symmetry_Int_Tables_number   1
_chemical_formula_structural   ZrPt3
_chemical_formula_sum   'Zr2 Pt6'
_cell_volume   135.90822755
_cell_formula_units_Z   2
loop_
 _symmetry_equiv_pos_site_id
 _symmetry_equiv_pos_as_xyz
  1  'x, y, z'
loop_
 _atom_site_type_symbol
 _atom_site_label
 _atom_site_symmetry_multiplicity
 _atom_site_fract_x
 _atom_site_fract_y
 _atom_site_fract_z
 _atom_site_occupancy
  Zr  Zr0  1  0.00000000  0.00000000  0.75438597  1
  Zr  Zr1  1  0.00000000  0.00000000  0.24561399  1
  Pt  Pt2  1  0.50000000  0.00000000  0.49999998  1
  Pt  Pt3  1  0.00000000  0.49999999  0.00000000  1
  Pt  Pt4  1  0.00000000  0.49999999  0.49999998  1
  Pt  Pt5  1  0.50000000  0.49999999  0.74327597  1
  Pt  Pt6  1  0.50000000  0.49999999  0.25672399  1
  Pt  Pt7  1  0.50000000  0.00000000  0.00000000  1
