# generated using pymatgen
data_Zr3(TiNi4)2
_symmetry_space_group_name_H-M   'P 1'
_cell_length_a   4.91691494
_cell_length_b   4.91691589
_cell_length_c   9.67173004
_cell_angle_alpha   75.27439880
_cell_angle_beta   75.27439880
_cell_angle_gamma   59.99999619
_symmetry_Int_Tables_number   1
_chemical_formula_structural   Zr3(TiNi4)2
_chemical_formula_sum   'Zr3 Ti2 Ni8'
_cell_volume   193.57874846
_cell_formula_units_Z   1
loop_
 _symmetry_equiv_pos_site_id
 _symmetry_equiv_pos_as_xyz
  1  'x, y, z'
loop_
 _atom_site_type_symbol
 _atom_site_label
 _atom_site_symmetry_multiplicity
 _atom_site_fract_x
 _atom_site_fract_y
 _atom_site_fract_z
 _atom_site_occupancy
  Zr  Zr0  1  0.16738299  0.16738300  0.49785201  1
  Zr  Zr1  1  0.83261695  0.83261702  0.50214800  1
  Zr  Zr2  1  0.35060398  0.35060401  0.94818701  1
  Ti  Ti3  1  0.64939596  0.64939601  0.05181299  1
  Ti  Ti4  1  0.45257298  0.45257301  0.64228100  1
  Ni  Ni5  1  0.54742697  0.54742701  0.35771900  1
  Ni  Ni6  1  0.00000000  0.00000000  0.00000000  1
  Ni  Ni7  1  0.59007398  0.09489200  0.22014199  1
  Ni  Ni8  1  0.09489198  0.59007401  0.22014201  1
  Ni  Ni9  1  0.09489199  0.09489200  0.22014200  1
  Ni  Ni10  1  0.40992596  0.90510802  0.77985801  1
  Ni  Ni11  1  0.90510797  0.40992601  0.77985800  1
  Ni  Ni12  1  0.90510795  0.90510802  0.77985800  1
