# generated using pymatgen
data_Gd2Fe2Si2C
_symmetry_space_group_name_H-M   'P 1'
_cell_length_a   4.00780582
_cell_length_b   5.82986450
_cell_length_c   5.99500942
_cell_angle_alpha   71.97312164
_cell_angle_beta   70.47234344
_cell_angle_gamma   69.89567566
_symmetry_Int_Tables_number   1
_chemical_formula_structural   Gd2Fe2Si2C
_chemical_formula_sum   'Gd2 Fe2 Si2 C1'
_cell_volume   120.93947140
_cell_formula_units_Z   1
loop_
 _symmetry_equiv_pos_site_id
 _symmetry_equiv_pos_as_xyz
  1  'x, y, z'
loop_
 _atom_site_type_symbol
 _atom_site_label
 _atom_site_symmetry_multiplicity
 _atom_site_fract_x
 _atom_site_fract_y
 _atom_site_fract_z
 _atom_site_occupancy
  Gd  Gd0  1  0.42740607  0.84479099  0.30039704  1
  Gd  Gd1  1  0.57259403  0.15520900  0.69960302  1
  Fe  Fe2  1  0.79265305  0.32223300  0.09246103  1
  Fe  Fe3  1  0.20734705  0.67776699  0.90753903  1
  Si  Si4  1  0.85762707  0.60215399  0.68259204  1
  Si  Si5  1  0.14237303  0.39784600  0.31740802  1
  C  C6  1  0.00000000  0.00000000  0.00000000  1
