# generated using pymatgen
data_Cs2Ba2SbAu
_symmetry_space_group_name_H-M   'P 1'
_cell_length_a   5.42796278
_cell_length_b   5.42796278
_cell_length_c   8.51923847
_cell_angle_alpha   90.00000000
_cell_angle_beta   90.00000000
_cell_angle_gamma   90.00000000
_symmetry_Int_Tables_number   1
_chemical_formula_structural   Cs2Ba2SbAu
_chemical_formula_sum   'Cs2 Ba2 Sb1 Au1'
_cell_volume   251.00044837
_cell_formula_units_Z   1
loop_
 _symmetry_equiv_pos_site_id
 _symmetry_equiv_pos_as_xyz
  1  'x, y, z'
loop_
 _atom_site_type_symbol
 _atom_site_label
 _atom_site_symmetry_multiplicity
 _atom_site_fract_x
 _atom_site_fract_y
 _atom_site_fract_z
 _atom_site_occupancy
  Cs  Cs0  1  0.50000002  0.00000000  0.86480595  1
  Cs  Cs1  1  0.00000000  0.50000002  0.13519399  1
  Ba  Ba2  1  0.50000002  0.50000002  0.49999997  1
  Ba  Ba3  1  0.00000000  0.00000000  0.49999997  1
  Au  Au4  1  0.50000002  0.00000000  0.29045898  1
  Sb  Sb5  1  0.00000000  0.50000002  0.70954096  1
