# generated using pymatgen
data_Ce2Ag8Sn
_symmetry_space_group_name_H-M   'P 1'
_cell_length_a   4.68026876
_cell_length_b   4.68026876
_cell_length_c   12.20059681
_cell_angle_alpha   90.00000000
_cell_angle_beta   90.00000000
_cell_angle_gamma   90.00000000
_symmetry_Int_Tables_number   1
_chemical_formula_structural   Ce2Ag8Sn
_chemical_formula_sum   'Ce2 Ag8 Sn1'
_cell_volume   267.25304470
_cell_formula_units_Z   1
loop_
 _symmetry_equiv_pos_site_id
 _symmetry_equiv_pos_as_xyz
  1  'x, y, z'
loop_
 _atom_site_type_symbol
 _atom_site_label
 _atom_site_symmetry_multiplicity
 _atom_site_fract_x
 _atom_site_fract_y
 _atom_site_fract_z
 _atom_site_occupancy
  Ce  Ce0  1  0.50000003  0.50000003  0.19331100  1
  Ce  Ce1  1  0.50000003  0.50000003  0.80668901  1
  Ag  Ag2  1  0.00000000  0.50000003  0.62388401  1
  Ag  Ag3  1  0.00000000  0.00000000  0.19394900  1
  Ag  Ag4  1  0.00000000  0.50000003  0.37611601  1
  Ag  Ag5  1  0.50000003  0.00000000  0.62388401  1
  Ag  Ag6  1  0.00000000  0.00000000  0.80605101  1
  Ag  Ag7  1  0.50000003  0.00000000  0.37611601  1
  Ag  Ag8  1  0.00000000  0.50000003  0.00000000  1
  Ag  Ag9  1  0.50000003  0.00000000  0.00000000  1
  Sn  Sn10  1  0.50000003  0.50000003  0.50000001  1
