# generated using pymatgen
data_Sr2DyLuAl8
_symmetry_space_group_name_H-M   'P 1'
_cell_length_a   5.68540621
_cell_length_b   5.68540621
_cell_length_c   9.89323330
_cell_angle_alpha   73.30133057
_cell_angle_beta   73.30133057
_cell_angle_gamma   59.99999619
_symmetry_Int_Tables_number   1
_chemical_formula_structural   Sr2DyLuAl8
_chemical_formula_sum   'Sr2 Dy1 Lu1 Al8'
_cell_volume   261.25600419
_cell_formula_units_Z   1
loop_
 _symmetry_equiv_pos_site_id
 _symmetry_equiv_pos_as_xyz
  1  'x, y, z'
loop_
 _atom_site_type_symbol
 _atom_site_label
 _atom_site_symmetry_multiplicity
 _atom_site_fract_x
 _atom_site_fract_y
 _atom_site_fract_z
 _atom_site_occupancy
  Sr  Sr0  1  0.62487802  0.62487802  0.12536596  1
  Sr  Sr1  1  0.00191500  0.00191500  0.99425497  1
  Dy  Dy2  1  0.49841502  0.49841501  0.50475495  1
  Lu  Lu3  1  0.12516200  0.12516200  0.62451397  1
  Al  Al4  1  0.56394702  0.56394701  0.80855294  1
  Al  Al5  1  0.06305400  0.06305400  0.31613699  1
  Al  Al6  1  0.06355301  0.56394701  0.80855295  1
  Al  Al7  1  0.55775502  0.06305400  0.31613697  1
  Al  Al8  1  0.81212203  0.81212202  0.56363393  1
  Al  Al9  1  0.31219701  0.31219701  0.06340898  1
  Al  Al10  1  0.56394702  0.06355300  0.80855295  1
  Al  Al11  1  0.06305401  0.55775501  0.31613697  1
