# generated using pymatgen
data_Dy2Si3Rh
_symmetry_space_group_name_H-M   'P 1'
_cell_length_a   4.39394999
_cell_length_b   6.90190411
_cell_length_c   7.01130009
_cell_angle_alpha   90.00000000
_cell_angle_beta   90.00000000
_cell_angle_gamma   90.00000000
_symmetry_Int_Tables_number   1
_chemical_formula_structural   Dy2Si3Rh
_chemical_formula_sum   'Dy4 Si6 Rh2'
_cell_volume   212.62904359
_cell_formula_units_Z   2
loop_
 _symmetry_equiv_pos_site_id
 _symmetry_equiv_pos_as_xyz
  1  'x, y, z'
loop_
 _atom_site_type_symbol
 _atom_site_label
 _atom_site_symmetry_multiplicity
 _atom_site_fract_x
 _atom_site_fract_y
 _atom_site_fract_z
 _atom_site_occupancy
  Dy  Dy0  1  0.25000000  0.19644700  0.51919099  1
  Dy  Dy1  1  0.25000000  0.30355300  0.01919100  1
  Dy  Dy2  1  0.75000000  0.69644699  0.98080899  1
  Dy  Dy3  1  0.75000000  0.80355299  0.48080899  1
  Si  Si4  1  0.25000000  0.89563299  0.19462700  1
  Si  Si5  1  0.75000000  0.39563299  0.30537300  1
  Si  Si6  1  0.25000000  0.60436699  0.69462699  1
  Si  Si7  1  0.75000000  0.10436700  0.80537299  1
  Si  Si8  1  0.25000000  0.93391799  0.84246199  1
  Si  Si9  1  0.25000000  0.56608199  0.34246200  1
  Rh  Rh10  1  0.75000000  0.06608200  0.15753800  1
  Rh  Rh11  1  0.75000000  0.43391799  0.65753799  1
