# generated using pymatgen
data_DyS2
_symmetry_space_group_name_H-M   'P 1'
_cell_length_a   3.60256600
_cell_length_b   3.60256600
_cell_length_c   8.01020432
_cell_angle_alpha   90.00000000
_cell_angle_beta   90.00000000
_cell_angle_gamma   90.00000000
_symmetry_Int_Tables_number   1
_chemical_formula_structural   DyS2
_chemical_formula_sum   'Dy2 S4'
_cell_volume   103.96029101
_cell_formula_units_Z   2
loop_
 _symmetry_equiv_pos_site_id
 _symmetry_equiv_pos_as_xyz
  1  'x, y, z'
loop_
 _atom_site_type_symbol
 _atom_site_label
 _atom_site_symmetry_multiplicity
 _atom_site_fract_x
 _atom_site_fract_y
 _atom_site_fract_z
 _atom_site_occupancy
  Dy  Dy0  1  0.00000000  0.50000000  0.73951597  1
  Dy  Dy1  1  0.50000000  0.00000000  0.26048399  1
  S  S2  1  0.00000000  0.00000000  0.00000000  1
  S  S3  1  0.50000000  0.50000000  0.00000000  1
  S  S4  1  0.00000000  0.50000000  0.38953698  1
  S  S5  1  0.50000000  0.00000000  0.61046298  1
