# generated using pymatgen
data_Ce2AsS3
_symmetry_space_group_name_H-M   'P 1'
_cell_length_a   3.93034101
_cell_length_b   3.93034101
_cell_length_c   8.12410545
_cell_angle_alpha   90.00000000
_cell_angle_beta   90.00000000
_cell_angle_gamma   90.00000000
_symmetry_Int_Tables_number   1
_chemical_formula_structural   Ce2AsS3
_chemical_formula_sum   'Ce2 As1 S3'
_cell_volume   125.49777232
_cell_formula_units_Z   1
loop_
 _symmetry_equiv_pos_site_id
 _symmetry_equiv_pos_as_xyz
  1  'x, y, z'
loop_
 _atom_site_type_symbol
 _atom_site_label
 _atom_site_symmetry_multiplicity
 _atom_site_fract_x
 _atom_site_fract_y
 _atom_site_fract_z
 _atom_site_occupancy
  Ce  Ce0  1  0.00000000  0.50000000  0.72556996  1
  Ce  Ce1  1  0.50000000  0.00000000  0.27442998  1
  As  As2  1  0.00000000  0.00000000  0.00000000  1
  S  S3  1  0.50000000  0.50000000  -0.00000000  1
  S  S4  1  0.00000000  0.50000000  0.36689098  1
  S  S5  1  0.50000000  0.00000000  0.63310896  1
