# generated using pymatgen
data_Mn5CoIr2
_symmetry_space_group_name_H-M   'P 1'
_cell_length_a   4.37596512
_cell_length_b   5.46509981
_cell_length_c   5.46509981
_cell_angle_alpha   120.00000000
_cell_angle_beta   90.00000000
_cell_angle_gamma   90.00000000
_symmetry_Int_Tables_number   1
_chemical_formula_structural   Mn5CoIr2
_chemical_formula_sum   'Mn5 Co1 Ir2'
_cell_volume   113.18807642
_cell_formula_units_Z   1
loop_
 _symmetry_equiv_pos_site_id
 _symmetry_equiv_pos_as_xyz
  1  'x, y, z'
loop_
 _atom_site_type_symbol
 _atom_site_label
 _atom_site_symmetry_multiplicity
 _atom_site_fract_x
 _atom_site_fract_y
 _atom_site_fract_z
 _atom_site_occupancy
  Mn  Mn0  1  0.24999999  0.66666667  0.33333329  1
  Mn  Mn1  1  0.74999998  0.33333334  0.66666663  1
  Mn  Mn2  1  0.74999998  0.83229301  0.16770796  1
  Co  Co3  1  0.74999998  0.33541500  0.16770798  1
  Mn  Mn4  1  0.74999998  0.83229301  0.66458594  1
  Mn  Mn5  1  0.24999999  0.16770700  0.83229196  1
  Ir  Ir6  1  0.24999999  0.66458501  0.83229194  1
  Ir  Ir7  1  0.24999999  0.16770700  0.33541398  1
