# generated using pymatgen
data_ErGe3
_symmetry_space_group_name_H-M   'P 1'
_cell_length_a   4.19259596
_cell_length_b   5.46988297
_cell_length_c   7.13140440
_cell_angle_alpha   89.98691559
_cell_angle_beta   90.00000000
_cell_angle_gamma   90.00000000
_symmetry_Int_Tables_number   1
_chemical_formula_structural   ErGe3
_chemical_formula_sum   'Er2 Ge6'
_cell_volume   163.54455855
_cell_formula_units_Z   2
loop_
 _symmetry_equiv_pos_site_id
 _symmetry_equiv_pos_as_xyz
  1  'x, y, z'
loop_
 _atom_site_type_symbol
 _atom_site_label
 _atom_site_symmetry_multiplicity
 _atom_site_fract_x
 _atom_site_fract_y
 _atom_site_fract_z
 _atom_site_occupancy
  Er  Er0  1  0.00000000  0.63416400  0.32068502  1
  Er  Er1  1  -0.00000000  0.86619201  0.82006302  1
  Ge  Ge2  1  0.50000000  0.36535300  0.68095100  1
  Ge  Ge3  1  0.50000000  0.13417300  0.17912700  1
  Ge  Ge4  1  0.00000000  0.12586800  0.46258299  1
  Ge  Ge5  1  0.00000000  0.37350600  0.96097899  1
  Ge  Ge6  1  0.50000000  0.87546601  0.53943702  1
  Ge  Ge7  1  0.50000000  0.62527700  0.03617503  1
