# generated using pymatgen
data_LuI3
_symmetry_space_group_name_H-M   'P 1'
_cell_length_a   4.12503815
_cell_length_b   11.32680416
_cell_length_c   11.32680511
_cell_angle_alpha   120.00000000
_cell_angle_beta   90.00000000
_cell_angle_gamma   90.00000000
_symmetry_Int_Tables_number   1
_chemical_formula_structural   LuI3
_chemical_formula_sum   'Lu2 I6'
_cell_volume   458.32486664
_cell_formula_units_Z   2
loop_
 _symmetry_equiv_pos_site_id
 _symmetry_equiv_pos_as_xyz
  1  'x, y, z'
loop_
 _atom_site_type_symbol
 _atom_site_label
 _atom_site_symmetry_multiplicity
 _atom_site_fract_x
 _atom_site_fract_y
 _atom_site_fract_z
 _atom_site_occupancy
  Lu  Lu0  1  0.74999997  0.33333334  0.66666667  1
  Lu  Lu1  1  0.24999999  0.66666667  0.33333336  1
  I  I2  1  0.74999997  0.78772201  0.21227804  1
  I  I3  1  0.24999999  0.21227800  0.42455600  1
  I  I4  1  0.24999999  0.57544401  0.78772201  1
  I  I5  1  0.24999999  0.21227800  0.78772199  1
  I  I6  1  0.74999997  0.78772201  0.57544403  1
  I  I7  1  0.74999997  0.42455600  0.21227802  1
