# generated using pymatgen
data_ZrCu3S4
_symmetry_space_group_name_H-M   'P 1'
_cell_length_a   3.93200302
_cell_length_b   6.19622612
_cell_length_c   13.18208027
_cell_angle_alpha   90.00000000
_cell_angle_beta   90.00000000
_cell_angle_gamma   90.00000000
_symmetry_Int_Tables_number   1
_chemical_formula_structural   ZrCu3S4
_chemical_formula_sum   'Zr2 Cu6 S8'
_cell_volume   321.16266488
_cell_formula_units_Z   2
loop_
 _symmetry_equiv_pos_site_id
 _symmetry_equiv_pos_as_xyz
  1  'x, y, z'
loop_
 _atom_site_type_symbol
 _atom_site_label
 _atom_site_symmetry_multiplicity
 _atom_site_fract_x
 _atom_site_fract_y
 _atom_site_fract_z
 _atom_site_occupancy
  Zr  Zr0  1  0.28206400  0.75380599  0.63420899  1
  Zr  Zr1  1  0.78206400  0.74619399  0.36579099  1
  Cu  Cu2  1  0.71793600  0.25380600  0.86579098  1
  Cu  Cu3  1  0.21793600  0.24619400  0.13420900  1
  Cu  Cu4  1  0.70649500  0.34823699  0.55636299  1
  Cu  Cu5  1  0.20649500  0.15176300  0.44363699  1
  Cu  Cu6  1  0.29350500  0.84823698  0.94363698  1
  Cu  Cu7  1  0.79350500  0.65176299  0.05636300  1
  S  S8  1  0.77825200  0.51902899  0.70725799  1
  S  S9  1  0.27825200  0.98097098  0.29274199  1
  S  S10  1  0.22174800  0.01902900  0.79274198  1
  S  S11  1  0.72174800  0.48097099  0.20725800  1
  S  S12  1  0.78401400  0.98433798  0.53996599  1
  S  S13  1  0.28401400  0.51566199  0.46003399  1
  S  S14  1  0.21598600  0.48433799  0.96003398  1
  S  S15  1  0.71598600  0.01566200  0.03996600  1
