# generated using pymatgen
data_LiMnO3
_symmetry_space_group_name_H-M   'P 1'
_cell_length_a   5.04844713
_cell_length_b   5.22772551
_cell_length_c   8.63835335
_cell_angle_alpha   90.00000000
_cell_angle_beta   90.00000000
_cell_angle_gamma   91.03526306
_symmetry_Int_Tables_number   1
_chemical_formula_structural   LiMnO3
_chemical_formula_sum   'Li4 Mn4 O12'
_cell_volume   227.94530694
_cell_formula_units_Z   4
loop_
 _symmetry_equiv_pos_site_id
 _symmetry_equiv_pos_as_xyz
  1  'x, y, z'
loop_
 _atom_site_type_symbol
 _atom_site_label
 _atom_site_symmetry_multiplicity
 _atom_site_fract_x
 _atom_site_fract_y
 _atom_site_fract_z
 _atom_site_occupancy
  Li  Li0  1  0.00000006  0.99999997  0.71247997  1
  Li  Li1  1  0.49999999  0.00000000  0.84840897  1
  Li  Li2  1  0.00000003  0.49999998  0.29932799  1
  Li  Li3  1  0.50000002  0.49999998  0.17803499  1
  Mn  Mn4  1  0.00000000  0.00000000  0.10350700  1
  Mn  Mn5  1  0.50000002  0.49999998  0.60687898  1
  Mn  Mn6  1  0.49999999  0.00000000  0.40105098  1
  Mn  Mn7  1  0.00000003  0.49999998  0.92518696  1
  O  O8  1  0.73523303  0.84520797  0.25632299  1
  O  O9  1  0.70640903  0.83798597  0.57655598  1
  O  O10  1  0.80072903  0.80988798  0.92100796  1
  O  O11  1  0.29293903  0.67744498  0.42793298  1
  O  O12  1  0.20119404  0.67195098  0.08771300  1
  O  O13  1  0.23450904  0.66571598  0.76356997  1
  O  O14  1  0.76549100  0.33428399  0.76356997  1
  O  O15  1  0.79880600  0.32804899  0.08771300  1
  O  O16  1  0.70706100  0.32255499  0.42793298  1
  O  O17  1  0.19927101  0.19011199  0.92100796  1
  O  O18  1  0.29359100  0.16201400  0.57655598  1
  O  O19  1  0.26476700  0.15479200  0.25632299  1
