# generated using pymatgen
data_Li5Cu2F9
_symmetry_space_group_name_H-M   'P 1'
_cell_length_a   4.05340004
_cell_length_b   5.80540562
_cell_length_c   10.42510891
_cell_angle_alpha   90.00000000
_cell_angle_beta   90.00000000
_cell_angle_gamma   110.43262482
_symmetry_Int_Tables_number   1
_chemical_formula_structural   Li5Cu2F9
_chemical_formula_sum   'Li5 Cu2 F9'
_cell_volume   229.88512020
_cell_formula_units_Z   1
loop_
 _symmetry_equiv_pos_site_id
 _symmetry_equiv_pos_as_xyz
  1  'x, y, z'
loop_
 _atom_site_type_symbol
 _atom_site_label
 _atom_site_symmetry_multiplicity
 _atom_site_fract_x
 _atom_site_fract_y
 _atom_site_fract_z
 _atom_site_occupancy
  Li  Li0  1  0.85721902  0.71443800  0.06888500  1
  Li  Li1  1  0.85721902  0.71443800  0.43111500  1
  Li  Li2  1  0.14278101  0.28556200  0.93111501  1
  Li  Li3  1  0.14278101  0.28556200  0.56888500  1
  Cu  Cu4  1  0.82643801  0.65287600  0.75000001  1
  Li  Li5  1  0.17356201  0.34712400  0.25000000  1
  Cu  Cu6  1  0.94889502  0.89779000  0.62311601  1
  F  F7  1  0.94889502  0.89779000  0.87688401  1
  F  F8  1  0.29239002  0.58478000  0.08971700  1
  F  F9  1  0.29239002  0.58478000  0.41028300  1
  F  F10  1  0.72928201  0.45856400  0.25000000  1
  F  F11  1  0.27071802  0.54143600  0.75000001  1
  F  F12  1  0.70761001  0.41522000  0.91028301  1
  F  F13  1  0.70761001  0.41522000  0.58971701  1
  F  F14  1  0.05110500  0.10221000  0.37688400  1
  F  F15  1  0.05110500  0.10221000  0.12311600  1
