# generated using pymatgen
data_KCaBr3
_symmetry_space_group_name_H-M   'P 1'
_cell_length_a   4.63698816
_cell_length_b   8.07196140
_cell_length_c   11.75006199
_cell_angle_alpha   90.00000000
_cell_angle_beta   90.00000000
_cell_angle_gamma   106.69207764
_symmetry_Int_Tables_number   1
_chemical_formula_structural   KCaBr3
_chemical_formula_sum   'K2 Ca2 Br6'
_cell_volume   421.26780082
_cell_formula_units_Z   2
loop_
 _symmetry_equiv_pos_site_id
 _symmetry_equiv_pos_as_xyz
  1  'x, y, z'
loop_
 _atom_site_type_symbol
 _atom_site_label
 _atom_site_symmetry_multiplicity
 _atom_site_fract_x
 _atom_site_fract_y
 _atom_site_fract_z
 _atom_site_occupancy
  K  K0  1  0.75254797  0.50509601  0.75000000  1
  K  K1  1  0.24745199  0.49490401  0.25000000  1
  Ca  Ca2  1  0.00000000  0.00000000  0.00000000  1
  Ca  Ca3  1  0.00000000  0.00000000  0.50000000  1
  Br  Br4  1  0.36609599  0.73219201  0.94414200  1
  Br  Br5  1  0.63390398  0.26780800  0.05585800  1
  Br  Br6  1  0.63390398  0.26780800  0.44414200  1
  Br  Br7  1  0.36609599  0.73219201  0.55585800  1
  Br  Br8  1  0.07498600  0.14997200  0.75000000  1
  Br  Br9  1  0.92501397  0.85002802  0.25000000  1
