# generated using pymatgen
data_Rb2NbI(ClF)2
_symmetry_space_group_name_H-M   'P 1'
_cell_length_a   6.74181509
_cell_length_b   6.74181509
_cell_length_c   6.77598143
_cell_angle_alpha   109.48940277
_cell_angle_beta   109.48940277
_cell_angle_gamma   109.22953033
_symmetry_Int_Tables_number   1
_chemical_formula_structural   Rb2NbI(ClF)2
_chemical_formula_sum   'Rb2 Nb1 I1 Cl2 F2'
_cell_volume   237.68260411
_cell_formula_units_Z   1
loop_
 _symmetry_equiv_pos_site_id
 _symmetry_equiv_pos_as_xyz
  1  'x, y, z'
loop_
 _atom_site_type_symbol
 _atom_site_label
 _atom_site_symmetry_multiplicity
 _atom_site_fract_x
 _atom_site_fract_y
 _atom_site_fract_z
 _atom_site_occupancy
  Rb  Rb0  1  0.49459394  0.99459394  0.50000000  1
  Rb  Rb1  1  0.99459394  0.49459397  0.50000001  1
  I  I2  1  0.50469996  0.50469997  -0.00000001  1
  Nb  Nb3  1  0.99415392  0.99415394  -0.00000001  1
  Cl  Cl4  1  0.99903092  0.99903094  0.66083801  1
  Cl  Cl5  1  0.33819297  0.33819298  0.33916201  1
  F  F6  1  0.99814594  0.67658896  1.00000002  1
  F  F7  1  0.67658893  0.99814594  -0.00000001  1
