# generated using pymatgen
data_MgTl
_symmetry_space_group_name_H-M   'P 1'
_cell_length_a   5.41513777
_cell_length_b   6.94462013
_cell_length_c   6.94462061
_cell_angle_alpha   60.00000381
_cell_angle_beta   90.00000000
_cell_angle_gamma   90.00000000
_symmetry_Int_Tables_number   1
_chemical_formula_structural   MgTl
_chemical_formula_sum   'Mg4 Tl4'
_cell_volume   226.17113545
_cell_formula_units_Z   4
loop_
 _symmetry_equiv_pos_site_id
 _symmetry_equiv_pos_as_xyz
  1  'x, y, z'
loop_
 _atom_site_type_symbol
 _atom_site_label
 _atom_site_symmetry_multiplicity
 _atom_site_fract_x
 _atom_site_fract_y
 _atom_site_fract_z
 _atom_site_occupancy
  Mg  Mg0  1  0.25000001  0.83163897  0.33672202  1
  Mg  Mg1  1  0.25000001  0.83163897  0.83163801  1
  Mg  Mg2  1  0.25000001  0.33672299  0.83163800  1
  Mg  Mg3  1  0.75000003  0.16836099  0.66327800  1
  Tl  Tl4  1  0.75000003  0.16836099  0.16836200  1
  Tl  Tl5  1  0.75000003  0.66327698  0.16836201  1
  Tl  Tl6  1  0.75000003  0.66666665  0.66666668  1
  Tl  Tl7  1  0.25000001  0.33333332  0.33333334  1
