# generated using pymatgen
data_CeCuGe
_symmetry_space_group_name_H-M   'P 1'
_cell_length_a   4.08283186
_cell_length_b   4.08283186
_cell_length_c   8.36706448
_cell_angle_alpha   104.12170410
_cell_angle_beta   104.12170410
_cell_angle_gamma   90.00000000
_symmetry_Int_Tables_number   1
_chemical_formula_structural   CeCuGe
_chemical_formula_sum   'Ce2 Cu2 Ge2'
_cell_volume   130.90931469
_cell_formula_units_Z   2
loop_
 _symmetry_equiv_pos_site_id
 _symmetry_equiv_pos_as_xyz
  1  'x, y, z'
loop_
 _atom_site_type_symbol
 _atom_site_label
 _atom_site_symmetry_multiplicity
 _atom_site_fract_x
 _atom_site_fract_y
 _atom_site_fract_z
 _atom_site_occupancy
  Ce  Ce0  1  0.58242705  0.58242703  0.16485405  1
  Ce  Ce1  1  0.33242704  0.83242704  0.66485408  1
  Cu  Cu2  1  0.00048800  0.00048800  0.00097600  1
  Cu  Cu3  1  0.75048805  0.25048801  0.50097606  1
  Ge  Ge4  1  0.16408501  0.16408501  0.32817003  1
  Ge  Ge5  1  0.91408506  0.41408502  0.82817009  1
