# generated using pymatgen
data_SrIn3
_symmetry_space_group_name_H-M   'P 1'
_cell_length_a   6.06685400
_cell_length_b   6.12549400
_cell_length_c   6.12549400
_cell_angle_alpha   102.89994049
_cell_angle_beta   90.00000000
_cell_angle_gamma   90.00000000
_symmetry_Int_Tables_number   1
_chemical_formula_structural   SrIn3
_chemical_formula_sum   'Sr2 In6'
_cell_volume   221.89326290
_cell_formula_units_Z   2
loop_
 _symmetry_equiv_pos_site_id
 _symmetry_equiv_pos_as_xyz
  1  'x, y, z'
loop_
 _atom_site_type_symbol
 _atom_site_label
 _atom_site_symmetry_multiplicity
 _atom_site_fract_x
 _atom_site_fract_y
 _atom_site_fract_z
 _atom_site_occupancy
  Sr  Sr0  1  0.75000000  0.13810600  0.50104098  1
  Sr  Sr1  1  0.25000000  0.49895898  0.86189397  1
  In  In2  1  0.25000000  0.86189397  0.49895897  1
  In  In3  1  0.75000000  0.50104098  0.13810599  1
  In  In4  1  0.75000000  0.68987698  0.68987697  1
  In  In5  1  0.25000000  0.31012299  0.31012299  1
  In  In6  1  0.50000000  0.00000000  -0.00000000  1
  In  In7  1  0.00000000  0.00000000  0.00000000  1
