# generated using pymatgen
data_CeNdNi5Ge
_symmetry_space_group_name_H-M   'P 1'
_cell_length_a   4.24979115
_cell_length_b   4.28901815
_cell_length_c   9.07992935
_cell_angle_alpha   76.33873749
_cell_angle_beta   90.00000000
_cell_angle_gamma   90.00000000
_symmetry_Int_Tables_number   1
_chemical_formula_structural   CeNdNi5Ge
_chemical_formula_sum   'Ce1 Nd1 Ni5 Ge1'
_cell_volume   160.82152532
_cell_formula_units_Z   1
loop_
 _symmetry_equiv_pos_site_id
 _symmetry_equiv_pos_as_xyz
  1  'x, y, z'
loop_
 _atom_site_type_symbol
 _atom_site_label
 _atom_site_symmetry_multiplicity
 _atom_site_fract_x
 _atom_site_fract_y
 _atom_site_fract_z
 _atom_site_occupancy
  Nd  Nd0  1  0.74999997  0.59701198  0.80597598  1
  Ce  Ce1  1  0.24999999  0.40298798  0.19402400  1
  Ge  Ge2  1  0.74999997  0.96746696  0.06506601  1
  Ni  Ni3  1  0.24999999  0.03253300  0.93493397  1
  Ni  Ni4  1  0.74999997  0.83531597  0.32936800  1
  Ni  Ni5  1  0.24999999  0.16468399  0.67063198  1
  Ni  Ni6  1  0.74999997  0.25164599  0.49670799  1
  Ni  Ni7  1  0.24999999  0.74835397  0.50329199  1
