# generated using pymatgen
data_AgS
_symmetry_space_group_name_H-M   'P 1'
_cell_length_a   6.01548481
_cell_length_b   6.01548481
_cell_length_c   7.77996206
_cell_angle_alpha   95.13922119
_cell_angle_beta   95.13922119
_cell_angle_gamma   96.45650482
_symmetry_Int_Tables_number   1
_chemical_formula_structural   AgS
_chemical_formula_sum   'Ag6 S6'
_cell_volume   277.20005419
_cell_formula_units_Z   6
loop_
 _symmetry_equiv_pos_site_id
 _symmetry_equiv_pos_as_xyz
  1  'x, y, z'
loop_
 _atom_site_type_symbol
 _atom_site_label
 _atom_site_symmetry_multiplicity
 _atom_site_fract_x
 _atom_site_fract_y
 _atom_site_fract_z
 _atom_site_occupancy
  Ag  Ag0  1  0.59028996  0.86246097  0.67090508  1
  Ag  Ag1  1  0.13753899  0.40970999  0.82909504  1
  Ag  Ag2  1  0.86246096  0.59028998  0.17090506  1
  Ag  Ag3  1  0.40970998  0.13753900  0.32909503  1
  Ag  Ag4  1  0.82719095  0.94152897  0.02686507  1
  Ag  Ag5  1  0.05847099  0.17280899  0.47313502  1
  S  S6  1  0.17280899  0.05847100  0.97313504  1
  S  S7  1  0.19252598  0.80747397  0.75000006  1
  S  S8  1  0.80747397  0.19252599  0.25000005  1
  S  S9  1  0.94152895  0.82719097  0.52686509  1
  S  S10  1  0.62737097  0.37262899  0.75000006  1
  S  S11  1  0.37262897  0.62737098  0.25000005  1
