# generated using pymatgen
data_V2SiO6
_symmetry_space_group_name_H-M   'P 1'
_cell_length_a   5.36559772
_cell_length_b   6.58171701
_cell_length_c   6.58171701
_cell_angle_alpha   84.33640289
_cell_angle_beta   75.21110535
_cell_angle_gamma   75.21110535
_symmetry_Int_Tables_number   1
_chemical_formula_structural   V2SiO6
_chemical_formula_sum   'V4 Si2 O12'
_cell_volume   217.14795391
_cell_formula_units_Z   2
loop_
 _symmetry_equiv_pos_site_id
 _symmetry_equiv_pos_as_xyz
  1  'x, y, z'
loop_
 _atom_site_type_symbol
 _atom_site_label
 _atom_site_symmetry_multiplicity
 _atom_site_fract_x
 _atom_site_fract_y
 _atom_site_fract_z
 _atom_site_occupancy
  V  V0  1  0.24999993  0.88956999  0.11043001  1
  V  V1  1  0.75000001  0.11043000  0.88956994  1
  V  V2  1  0.25036997  0.38008000  0.21471499  1
  V  V3  1  0.75037000  0.21471500  0.38007996  1
  Si  Si4  1  0.24962994  0.78528499  0.61991999  1
  Si  Si5  1  0.74962996  0.61991999  0.78528496  1
  O  O6  1  0.36827299  0.18547200  0.04771998  1
  O  O7  1  0.86827301  0.04772000  0.18547195  1
  O  O8  1  0.22471195  0.61713699  0.10584400  1
  O  O9  1  0.45477298  0.34752500  0.36700998  1
  O  O10  1  0.72471201  0.10584400  0.61713695  1
  O  O11  1  0.95477299  0.36701000  0.34752495  1
  O  O12  1  0.04522695  0.63298999  0.65247500  1
  O  O13  1  0.27528793  0.89415599  0.38286300  1
  O  O14  1  0.54522696  0.65247499  0.63298997  1
  O  O15  1  0.77528798  0.38286300  0.89415594  1
  O  O16  1  0.13172692  0.95227999  0.81452800  1
  O  O17  1  0.63172694  0.81452799  0.95227996  1
