# generated using pymatgen
data_Dy(CoGe)2
_symmetry_space_group_name_H-M   'P 1'
_cell_length_a   4.03211784
_cell_length_b   4.03211784
_cell_length_c   5.54804802
_cell_angle_alpha   111.30802155
_cell_angle_beta   111.30802155
_cell_angle_gamma   90.00000000
_symmetry_Int_Tables_number   1
_chemical_formula_structural   Dy(CoGe)2
_chemical_formula_sum   'Dy1 Co2 Ge2'
_cell_volume   77.37813669
_cell_formula_units_Z   1
loop_
 _symmetry_equiv_pos_site_id
 _symmetry_equiv_pos_as_xyz
  1  'x, y, z'
loop_
 _atom_site_type_symbol
 _atom_site_label
 _atom_site_symmetry_multiplicity
 _atom_site_fract_x
 _atom_site_fract_y
 _atom_site_fract_z
 _atom_site_occupancy
  Dy  Dy0  1  0.00000000  0.00000000  0.00000000  1
  Co  Co1  1  0.75000003  0.25000001  0.50000001  1
  Co  Co2  1  0.25000001  0.75000003  0.50000000  1
  Ge  Ge3  1  0.63016902  0.63016902  0.26033800  1
  Ge  Ge4  1  0.36983101  0.36983101  0.73966201  1
