# generated using pymatgen
data_KSr(SeO)2
_symmetry_space_group_name_H-M   'P 1'
_cell_length_a   4.10049582
_cell_length_b   4.10049582
_cell_length_c   7.66773987
_cell_angle_alpha   90.00000000
_cell_angle_beta   90.00000000
_cell_angle_gamma   90.00000000
_symmetry_Int_Tables_number   1
_chemical_formula_structural   KSr(SeO)2
_chemical_formula_sum   'K1 Sr1 Se2 O2'
_cell_volume   128.92588369
_cell_formula_units_Z   1
loop_
 _symmetry_equiv_pos_site_id
 _symmetry_equiv_pos_as_xyz
  1  'x, y, z'
loop_
 _atom_site_type_symbol
 _atom_site_label
 _atom_site_symmetry_multiplicity
 _atom_site_fract_x
 _atom_site_fract_y
 _atom_site_fract_z
 _atom_site_occupancy
  Sr  Sr0  1  0.50000002  0.00000000  0.15478200  1
  K  K1  1  0.00000000  0.50000002  0.84521801  1
  Se  Se2  1  0.50000002  0.00000000  0.64044101  1
  Se  Se3  1  0.00000000  0.50000002  0.35955901  1
  O  O4  1  0.00000000  0.00000000  0.00000000  1
  O  O5  1  0.50000002  0.50000002  0.00000000  1
