# generated using pymatgen
data_Al7Fe6
_symmetry_space_group_name_H-M   'P 1'
_cell_length_a   5.08789015
_cell_length_b   6.62856102
_cell_length_c   6.62856102
_cell_angle_alpha   80.88628387
_cell_angle_beta   67.43164062
_cell_angle_gamma   67.43164062
_symmetry_Int_Tables_number   1
_chemical_formula_structural   Al7Fe6
_chemical_formula_sum   'Al7 Fe6'
_cell_volume   190.60756647
_cell_formula_units_Z   1
loop_
 _symmetry_equiv_pos_site_id
 _symmetry_equiv_pos_as_xyz
  1  'x, y, z'
loop_
 _atom_site_type_symbol
 _atom_site_label
 _atom_site_symmetry_multiplicity
 _atom_site_fract_x
 _atom_site_fract_y
 _atom_site_fract_z
 _atom_site_occupancy
  Al  Al0  1  0.00000000  0.00000000  0.00000000  1
  Al  Al1  1  0.34898994  0.65101003  0.65101005  1
  Al  Al2  1  0.65100996  0.34899001  0.34899001  1
  Al  Al3  1  0.99999993  0.65325303  0.34674702  1
  Al  Al4  1  -0.00000003  0.34674701  0.65325304  1
  Al  Al5  1  0.29685398  0.20314601  0.20314601  1
  Al  Al6  1  0.70314592  0.79685403  0.79685405  1
  Fe  Fe7  1  0.49999999  0.00000000  0.50000000  1
  Fe  Fe8  1  -0.00000009  1.00000004  0.50000008  1
  Fe  Fe9  1  0.49999995  0.50000002  0.00000002  1
  Fe  Fe10  1  -0.00000004  0.50000002  1.00000006  1
  Fe  Fe11  1  0.49999997  0.22927601  0.77072402  1
  Fe  Fe12  1  0.49999993  0.77072403  0.22927604  1
