# generated using pymatgen
data_Li4MnCuF12
_symmetry_space_group_name_H-M   'P 1'
_cell_length_a   4.96117020
_cell_length_b   5.70721626
_cell_length_c   9.05274773
_cell_angle_alpha   91.99763489
_cell_angle_beta   105.90329742
_cell_angle_gamma   90.00000000
_symmetry_Int_Tables_number   1
_chemical_formula_structural   Li4MnCuF12
_chemical_formula_sum   'Li4 Mn1 Cu1 F12'
_cell_volume   246.35113168
_cell_formula_units_Z   1
loop_
 _symmetry_equiv_pos_site_id
 _symmetry_equiv_pos_as_xyz
  1  'x, y, z'
loop_
 _atom_site_type_symbol
 _atom_site_label
 _atom_site_symmetry_multiplicity
 _atom_site_fract_x
 _atom_site_fract_y
 _atom_site_fract_z
 _atom_site_occupancy
  Li  Li0  1  0.58802097  0.82609598  0.65943102  1
  Li  Li1  1  0.92858996  0.67390398  0.34056901  1
  Li  Li2  1  0.41197898  0.17390400  0.34056901  1
  Li  Li3  1  0.07141000  0.32609599  0.65943103  1
  Cu  Cu4  1  0.22524599  0.74999998  -0.00000000  1
  Mn  Mn5  1  0.77475397  0.24999999  -0.00000001  1
  F  F6  1  0.27604999  0.85281898  0.43902602  1
  F  F7  1  0.83702396  0.64718098  0.56097401  1
  F  F8  1  0.72394997  0.14718100  0.56097401  1
  F  F9  1  0.16297599  0.35281899  0.43902602  1
  F  F10  1  0.39120298  0.58096199  0.71415703  1
  F  F11  1  0.67704597  0.91903798  0.28584301  1
  F  F12  1  0.00882800  0.40729599  0.85417903  1
  F  F13  1  0.15464899  0.09270400  0.14582100  1
  F  F14  1  0.99117196  0.59270399  0.14582100  1
  F  F15  1  0.84535096  0.90729598  0.85417903  1
  F  F16  1  0.32295399  0.08096200  0.71415702  1
  F  F17  1  0.60879697  0.41903799  0.28584301  1
