# generated using pymatgen
data_Er3InNi4
_symmetry_space_group_name_H-M   'P 1'
_cell_length_a   4.08022499
_cell_length_b   5.30826521
_cell_length_c   6.90904093
_cell_angle_alpha   90.00000000
_cell_angle_beta   90.00000000
_cell_angle_gamma   90.00000000
_symmetry_Int_Tables_number   1
_chemical_formula_structural   Er3InNi4
_chemical_formula_sum   'Er3 In1 Ni4'
_cell_volume   149.64233962
_cell_formula_units_Z   1
loop_
 _symmetry_equiv_pos_site_id
 _symmetry_equiv_pos_as_xyz
  1  'x, y, z'
loop_
 _atom_site_type_symbol
 _atom_site_label
 _atom_site_symmetry_multiplicity
 _atom_site_fract_x
 _atom_site_fract_y
 _atom_site_fract_z
 _atom_site_occupancy
  Er  Er0  1  0.25000000  0.37316799  0.67902501  1
  Er  Er1  1  0.25000000  0.12683200  0.17902500  1
  Er  Er2  1  0.75000000  0.62683198  0.32097500  1
  In  In3  1  0.75000000  0.87316797  0.82097501  1
  Ni  Ni4  1  0.25000000  0.87654797  0.53645101  1
  Ni  Ni5  1  0.25000000  0.62345198  0.03645100  1
  Ni  Ni6  1  0.75000000  0.12345200  0.46354900  1
  Ni  Ni7  1  0.75000000  0.37654799  0.96354901  1
