# generated using pymatgen
data_Li4Mn3CoF10
_symmetry_space_group_name_H-M   'P 1'
_cell_length_a   4.79115391
_cell_length_b   5.73564339
_cell_length_c   7.98794746
_cell_angle_alpha   87.46582794
_cell_angle_beta   90.00021362
_cell_angle_gamma   90.00009918
_symmetry_Int_Tables_number   1
_chemical_formula_structural   Li4Mn3CoF10
_chemical_formula_sum   'Li4 Mn3 Co1 F10'
_cell_volume   219.29691785
_cell_formula_units_Z   1
loop_
 _symmetry_equiv_pos_site_id
 _symmetry_equiv_pos_as_xyz
  1  'x, y, z'
loop_
 _atom_site_type_symbol
 _atom_site_label
 _atom_site_symmetry_multiplicity
 _atom_site_fract_x
 _atom_site_fract_y
 _atom_site_fract_z
 _atom_site_occupancy
  Li  Li0  1  0.46111604  0.49746198  0.00982802  1
  Li  Li1  1  0.49994502  0.16667999  0.33333334  1
  Li  Li2  1  0.53887307  0.83588197  0.65684503  1
  Li  Li3  1  0.99998407  0.66666664  0.33333336  1
  Mn  Mn4  1  0.96114904  0.33587699  0.65685301  1
  Mn  Mn5  1  0.03887007  0.99744997  0.00981804  1
  Mn  Mn6  1  0.81396706  0.62927098  0.55067302  1
  Co  Co7  1  0.68604402  0.12927100  0.55067300  1
  F  F8  1  0.31396902  0.20406899  0.11599201  1
  F  F9  1  0.18604505  0.70406498  0.11599203  1
  F  F10  1  0.78919808  0.96952297  0.23596904  1
  F  F11  1  0.80264804  0.29347399  0.90832201  1
  F  F12  1  0.69735907  0.79347197  0.90832202  1
  F  F13  1  0.71081205  0.46952298  0.23596902  1
  F  F14  1  0.28920207  0.86381397  0.43069603  1
  F  F15  1  0.30265104  0.53986398  0.75834501  1
  F  F16  1  0.21080903  0.36381399  0.43069601  1
  F  F17  1  0.19736001  0.03986400  0.75834499  1
