# generated using pymatgen
data_Li3Tb(CuSe2)2
_symmetry_space_group_name_H-M   'P 1'
_cell_length_a   3.93782210
_cell_length_b   3.93782115
_cell_length_c   16.94721222
_cell_angle_alpha   90.00000000
_cell_angle_beta   90.00000000
_cell_angle_gamma   120.00000763
_symmetry_Int_Tables_number   1
_chemical_formula_structural   Li3Tb(CuSe2)2
_chemical_formula_sum   'Li3 Tb1 Cu2 Se4'
_cell_volume   227.58359101
_cell_formula_units_Z   1
loop_
 _symmetry_equiv_pos_site_id
 _symmetry_equiv_pos_as_xyz
  1  'x, y, z'
loop_
 _atom_site_type_symbol
 _atom_site_label
 _atom_site_symmetry_multiplicity
 _atom_site_fract_x
 _atom_site_fract_y
 _atom_site_fract_z
 _atom_site_occupancy
  Li  Li0  1  0.00000000  0.00000000  0.89759104  1
  Li  Li1  1  0.00000000  0.00000000  0.10240900  1
  Tb  Tb2  1  0.00000000  0.00000000  0.39759102  1
  Li  Li3  1  0.00000000  0.00000000  0.60240903  1
  Cu  Cu4  1  0.66666666  0.33333334  0.49854202  1
  Cu  Cu5  1  0.33333334  0.66666669  0.50145802  1
  Se  Se6  1  0.33333334  0.66666669  0.99854205  1
  Se  Se7  1  0.66666666  0.33333334  0.00145800  1
  Se  Se8  1  0.66666666  0.33333334  0.75000003  1
  Se  Se9  1  0.33333334  0.66666669  0.25000001  1
