# generated using pymatgen
data_Cs3ScTc3F13
_symmetry_space_group_name_H-M   'P 1'
_cell_length_a   6.02599621
_cell_length_b   6.02599621
_cell_length_c   8.67309761
_cell_angle_alpha   90.00000000
_cell_angle_beta   90.00000000
_cell_angle_gamma   90.00000000
_symmetry_Int_Tables_number   1
_chemical_formula_structural   Cs3ScTc3F13
_chemical_formula_sum   'Cs3 Sc1 Tc3 F13'
_cell_volume   314.94298709
_cell_formula_units_Z   1
loop_
 _symmetry_equiv_pos_site_id
 _symmetry_equiv_pos_as_xyz
  1  'x, y, z'
loop_
 _atom_site_type_symbol
 _atom_site_label
 _atom_site_symmetry_multiplicity
 _atom_site_fract_x
 _atom_site_fract_y
 _atom_site_fract_z
 _atom_site_occupancy
  Cs  Cs0  1  0.49999998  0.00000000  0.75832003  1
  Cs  Cs1  1  0.00000000  0.49999998  0.25832001  1
  Cs  Cs2  1  0.49999998  0.00000000  0.25832001  1
  Sc  Sc3  1  0.00000000  0.49999998  0.75832003  1
  Tc  Tc4  1  0.49999998  0.49999998  0.50543002  1
  Tc  Tc5  1  0.00000000  0.00000000  0.00543000  1
  Tc  Tc6  1  0.49999998  0.49999998  0.02257700  1
  F  F7  1  0.00000000  0.00000000  0.52257702  1
  F  F8  1  0.49999998  0.49999998  0.22761601  1
  F  F9  1  0.71238998  0.28760999  0.98077904  1
  F  F10  1  0.21238999  0.21238999  0.48077902  1
  F  F11  1  0.00000000  0.00000000  0.72761603  1
  F  F12  1  0.78760997  0.78760997  0.48077902  1
  F  F13  1  0.28760999  0.71238998  0.98077904  1
  F  F14  1  0.23616799  0.76383197  0.50322502  1
  F  F15  1  0.49999998  0.49999998  0.76563203  1
  F  F16  1  0.26383199  0.26383199  0.00322500  1
  F  F17  1  0.00000000  0.00000000  0.26563201  1
  F  F18  1  0.73616797  0.73616797  0.00322500  1
  F  F19  1  0.76383197  0.23616799  0.50322502  1
