# generated using pymatgen
data_Sc3Si2
_symmetry_space_group_name_H-M   'P 1'
_cell_length_a   4.17127895
_cell_length_b   7.14528084
_cell_length_c   7.14528084
_cell_angle_alpha   90.00000000
_cell_angle_beta   90.00000000
_cell_angle_gamma   90.00000000
_symmetry_Int_Tables_number   1
_chemical_formula_structural   Sc3Si2
_chemical_formula_sum   'Sc6 Si4'
_cell_volume   212.96480654
_cell_formula_units_Z   2
loop_
 _symmetry_equiv_pos_site_id
 _symmetry_equiv_pos_as_xyz
  1  'x, y, z'
loop_
 _atom_site_type_symbol
 _atom_site_label
 _atom_site_symmetry_multiplicity
 _atom_site_fract_x
 _atom_site_fract_y
 _atom_site_fract_z
 _atom_site_occupancy
  Sc  Sc0  1  0.50000001  0.67689702  0.17689700  1
  Sc  Sc1  1  0.50000001  0.32310301  0.82310302  1
  Sc  Sc2  1  0.50000001  0.17689700  0.32310301  1
  Sc  Sc3  1  0.50000001  0.82310302  0.67689702  1
  Sc  Sc4  1  0.00000000  0.50000001  0.50000001  1
  Sc  Sc5  1  0.00000000  0.00000000  0.00000000  1
  Si  Si6  1  1.00000001  0.87496402  0.37496401  1
  Si  Si7  1  0.00000000  0.12503600  0.62503601  1
  Si  Si8  1  1.00000001  0.37496401  0.12503600  1
  Si  Si9  1  1.00000001  0.62503601  0.87496402  1
