# generated using pymatgen
data_ErSi
_symmetry_space_group_name_H-M   'P 1'
_cell_length_a   4.40264702
_cell_length_b   5.53906822
_cell_length_c   6.91270113
_cell_angle_alpha   90.00000000
_cell_angle_beta   90.00000000
_cell_angle_gamma   90.00000000
_symmetry_Int_Tables_number   1
_chemical_formula_structural   ErSi
_chemical_formula_sum   'Er4 Si4'
_cell_volume   168.57701602
_cell_formula_units_Z   4
loop_
 _symmetry_equiv_pos_site_id
 _symmetry_equiv_pos_as_xyz
  1  'x, y, z'
loop_
 _atom_site_type_symbol
 _atom_site_label
 _atom_site_symmetry_multiplicity
 _atom_site_fract_x
 _atom_site_fract_y
 _atom_site_fract_z
 _atom_site_occupancy
  Er  Er0  1  0.25000000  0.64013797  0.18024500  1
  Er  Er1  1  0.75000000  0.35986199  0.81975498  1
  Er  Er2  1  0.75000000  0.14013799  0.31975499  1
  Er  Er3  1  0.25000000  0.85986197  0.68024499  1
  Si  Si4  1  0.25000000  0.15712399  0.04555400  1
  Si  Si5  1  0.75000000  0.84287597  0.95444598  1
  Si  Si6  1  0.75000000  0.65712397  0.45444599  1
  Si  Si7  1  0.25000000  0.34287599  0.54555399  1
