# generated using pymatgen
data_NaLiCu3O5
_symmetry_space_group_name_H-M   'P 1'
_cell_length_a   5.27979183
_cell_length_b   5.49506950
_cell_length_c   5.27979183
_cell_angle_alpha   118.71229553
_cell_angle_beta   90.00000000
_cell_angle_gamma   118.71229553
_symmetry_Int_Tables_number   1
_chemical_formula_structural   NaLiCu3O5
_chemical_formula_sum   'Na1 Li1 Cu3 O5'
_cell_volume   112.39914538
_cell_formula_units_Z   1
loop_
 _symmetry_equiv_pos_site_id
 _symmetry_equiv_pos_as_xyz
  1  'x, y, z'
loop_
 _atom_site_type_symbol
 _atom_site_label
 _atom_site_symmetry_multiplicity
 _atom_site_fract_x
 _atom_site_fract_y
 _atom_site_fract_z
 _atom_site_occupancy
  Li  Li0  1  0.68714292  0.99999988  0.18714290  1
  Na  Na1  1  0.81285703  0.00000000  0.68714302  1
  Cu  Cu2  1  0.31285701  0.00000000  0.81285703  1
  Cu  Cu3  1  0.24999996  0.49999994  0.24999996  1
  Cu  Cu4  1  0.18714301  0.00000000  0.31285701  1
  O  O5  1  0.74999997  0.49999994  0.74999997  1
  O  O6  1  0.24999996  0.49999994  0.74999997  1
  O  O7  1  0.74999997  0.49999994  0.24999996  1
  O  O8  1  0.50000002  0.00000000  0.50000002  1
  O  O9  1  0.00000000  0.00000000  0.00000000  1
