# generated using pymatgen
data_Ti3FeGe2
_symmetry_space_group_name_H-M   'P 1'
_cell_length_a   2.94250011
_cell_length_b   2.94250011
_cell_length_c   21.06113625
_cell_angle_alpha   90.00000000
_cell_angle_beta   90.00000000
_cell_angle_gamma   90.00000000
_symmetry_Int_Tables_number   1
_chemical_formula_structural   Ti3FeGe2
_chemical_formula_sum   'Ti6 Fe2 Ge4'
_cell_volume   182.35378177
_cell_formula_units_Z   2
loop_
 _symmetry_equiv_pos_site_id
 _symmetry_equiv_pos_as_xyz
  1  'x, y, z'
loop_
 _atom_site_type_symbol
 _atom_site_label
 _atom_site_symmetry_multiplicity
 _atom_site_fract_x
 _atom_site_fract_y
 _atom_site_fract_z
 _atom_site_occupancy
  Ti  Ti0  1  0.49999998  0.49999998  0.07659400  1
  Ti  Ti1  1  0.00000000  0.00000000  0.33101100  1
  Ti  Ti2  1  0.49999998  0.49999998  0.58108999  1
  Ti  Ti3  1  0.00000000  0.00000000  0.83349599  1
  Ti  Ti4  1  0.00000000  0.00000000  0.16650400  1
  Ti  Ti5  1  0.49999998  0.49999998  0.41891000  1
  Fe  Fe6  1  0.00000000  0.00000000  0.66898899  1
  Fe  Fe7  1  0.49999998  0.49999998  0.92340599  1
  Ge  Ge8  1  0.49999998  0.49999998  0.24972200  1
  Ge  Ge9  1  0.00000000  0.00000000  0.49999999  1
  Ge  Ge10  1  0.49999998  0.49999998  0.75027799  1
  Ge  Ge11  1  0.00000000  0.00000000  0.00000000  1
