# generated using pymatgen
data_NaLaGd2(CO5)2
_symmetry_space_group_name_H-M   'P 1'
_cell_length_a   4.39335012
_cell_length_b   4.92678499
_cell_length_c   11.03618908
_cell_angle_alpha   90.00000000
_cell_angle_beta   90.00000000
_cell_angle_gamma   90.00000000
_symmetry_Int_Tables_number   1
_chemical_formula_structural   NaLaGd2(CO5)2
_chemical_formula_sum   'Na1 La1 Gd2 C2 O10'
_cell_volume   238.87932197
_cell_formula_units_Z   1
loop_
 _symmetry_equiv_pos_site_id
 _symmetry_equiv_pos_as_xyz
  1  'x, y, z'
loop_
 _atom_site_type_symbol
 _atom_site_label
 _atom_site_symmetry_multiplicity
 _atom_site_fract_x
 _atom_site_fract_y
 _atom_site_fract_z
 _atom_site_occupancy
  Na  Na0  1  0.23956699  0.50000000  0.75192299  1
  La  La1  1  0.76043298  0.00000000  0.25192300  1
  Gd  Gd2  1  0.72005998  0.50000000  0.49735300  1
  Gd  Gd3  1  0.27993999  0.00000000  0.99735299  1
  C  C4  1  0.90012897  0.50000000  0.00186600  1
  C  C5  1  0.09987100  0.00000000  0.50186600  1
  O  O6  1  0.77243098  0.26640700  0.01171100  1
  O  O7  1  0.22756899  0.23359300  0.51171100  1
  O  O8  1  0.28021799  0.00000000  0.82957499  1
  O  O9  1  0.71978198  0.50000000  0.32957500  1
  O  O10  1  0.72833898  0.50000000  0.66591800  1
  O  O11  1  0.80524398  0.00000000  0.48014900  1
  O  O12  1  0.22756899  0.76640700  0.51171100  1
  O  O13  1  0.19475599  0.50000000  0.98014899  1
  O  O14  1  0.27166099  0.00000000  0.16591800  1
  O  O15  1  0.77243098  0.73359300  0.01171100  1
