# generated using pymatgen
data_KTl2AgSe2
_symmetry_space_group_name_H-M   'P 1'
_cell_length_a   4.63869190
_cell_length_b   9.14624500
_cell_length_c   9.26329136
_cell_angle_alpha   113.32310486
_cell_angle_beta   90.00000000
_cell_angle_gamma   104.68972778
_symmetry_Int_Tables_number   1
_chemical_formula_structural   KTl2AgSe2
_chemical_formula_sum   'K2 Tl4 Ag2 Se4'
_cell_volume   346.86240389
_cell_formula_units_Z   2
loop_
 _symmetry_equiv_pos_site_id
 _symmetry_equiv_pos_as_xyz
  1  'x, y, z'
loop_
 _atom_site_type_symbol
 _atom_site_label
 _atom_site_symmetry_multiplicity
 _atom_site_fract_x
 _atom_site_fract_y
 _atom_site_fract_z
 _atom_site_occupancy
  K  K0  1  0.86610305  0.73220601  0.95170896  1
  K  K1  1  0.13389701  0.26779400  0.04829099  1
  Tl  Tl2  1  0.41079905  0.82159801  0.37103797  1
  Tl  Tl3  1  0.58920102  0.17840200  0.62896198  1
  Tl  Tl4  1  0.30786703  0.61573400  0.54359597  1
  Tl  Tl5  1  0.69213303  0.38426600  0.45640398  1
  Ag  Ag6  1  0.93625406  0.87250801  0.59020996  1
  Ag  Ag7  1  0.06374601  0.12749200  0.40978999  1
  Se  Se8  1  0.79507304  0.59014600  0.29267998  1
  Se  Se9  1  0.20492702  0.40985400  0.70731998  1
  Se  Se10  1  0.48195605  0.96391201  0.77914896  1
  Se  Se11  1  0.51804401  0.03608800  0.22085100  1
