# generated using pymatgen
data_Dy2Al3Ag
_symmetry_space_group_name_H-M   'P 1'
_cell_length_a   4.37501717
_cell_length_b   5.46205997
_cell_length_c   5.70115757
_cell_angle_alpha   78.07682800
_cell_angle_beta   67.43721771
_cell_angle_gamma   66.39109802
_symmetry_Int_Tables_number   1
_chemical_formula_structural   Dy2Al3Ag
_chemical_formula_sum   'Dy2 Al3 Ag1'
_cell_volume   115.05452277
_cell_formula_units_Z   1
loop_
 _symmetry_equiv_pos_site_id
 _symmetry_equiv_pos_as_xyz
  1  'x, y, z'
loop_
 _atom_site_type_symbol
 _atom_site_label
 _atom_site_symmetry_multiplicity
 _atom_site_fract_x
 _atom_site_fract_y
 _atom_site_fract_z
 _atom_site_occupancy
  Dy  Dy0  1  0.53794995  0.71933997  0.20475907  1
  Dy  Dy1  1  0.46204997  0.28065999  0.79524103  1
  Al  Al2  1  0.16742598  0.28052299  0.38462502  1
  Al  Al3  1  0.83257393  0.71947697  0.61537508  1
  Al  Al4  1  0.83436795  0.11765899  0.21360504  1
  Ag  Ag5  1  0.16563196  0.88234096  0.78639507  1
