# generated using pymatgen
data_NdGeRh
_symmetry_space_group_name_H-M   'P 1'
_cell_length_a   4.55430412
_cell_length_b   7.34973717
_cell_length_c   7.64588594
_cell_angle_alpha   90.00000000
_cell_angle_beta   90.00000000
_cell_angle_gamma   90.00000000
_symmetry_Int_Tables_number   1
_chemical_formula_structural   NdGeRh
_chemical_formula_sum   'Nd4 Ge4 Rh4'
_cell_volume   255.93026834
_cell_formula_units_Z   4
loop_
 _symmetry_equiv_pos_site_id
 _symmetry_equiv_pos_as_xyz
  1  'x, y, z'
loop_
 _atom_site_type_symbol
 _atom_site_label
 _atom_site_symmetry_multiplicity
 _atom_site_fract_x
 _atom_site_fract_y
 _atom_site_fract_z
 _atom_site_occupancy
  Nd  Nd0  1  0.24999999  0.99090298  0.30866400  1
  Nd  Nd1  1  0.24999999  0.49090299  0.19133600  1
  Nd  Nd2  1  0.74999998  0.00909700  0.69133601  1
  Nd  Nd3  1  0.74999998  0.50909699  0.80866401  1
  Ge  Ge4  1  0.24999999  0.32043699  0.59059800  1
  Ge  Ge5  1  0.24999999  0.82043698  0.90940201  1
  Ge  Ge6  1  0.74999998  0.67956298  0.40940200  1
  Ge  Ge7  1  0.74999998  0.17956300  0.09059800  1
  Rh  Rh8  1  0.24999999  0.18718500  0.91200101  1
  Rh  Rh9  1  0.24999999  0.68718498  0.58799900  1
  Rh  Rh10  1  0.74999998  0.81281498  0.08799900  1
  Rh  Rh11  1  0.74999998  0.31281499  0.41200100  1
