# generated using pymatgen
data_Dy5Tl3
_symmetry_space_group_name_H-M   'P 1'
_cell_length_a   5.28659391
_cell_length_b   6.71911621
_cell_length_c   6.71911478
_cell_angle_alpha   120.00000763
_cell_angle_beta   90.00000000
_cell_angle_gamma   90.00000000
_symmetry_Int_Tables_number   1
_chemical_formula_structural   Dy5Tl3
_chemical_formula_sum   'Dy5 Tl3'
_cell_volume   206.69537670
_cell_formula_units_Z   1
loop_
 _symmetry_equiv_pos_site_id
 _symmetry_equiv_pos_as_xyz
  1  'x, y, z'
loop_
 _atom_site_type_symbol
 _atom_site_label
 _atom_site_symmetry_multiplicity
 _atom_site_fract_x
 _atom_site_fract_y
 _atom_site_fract_z
 _atom_site_occupancy
  Dy  Dy0  1  0.25000000  0.17295400  0.34590802  1
  Dy  Dy1  1  0.25000000  0.65409200  0.82704606  1
  Dy  Dy2  1  0.25000000  0.17295400  0.82704604  1
  Dy  Dy3  1  0.75000001  0.82704600  0.65409207  1
  Dy  Dy4  1  0.75000001  0.34590800  0.17295403  1
  Tl  Tl5  1  0.75000001  0.82704600  0.17295405  1
  Tl  Tl6  1  0.75000001  0.33333333  0.66666671  1
  Tl  Tl7  1  0.25000000  0.66666666  0.33333338  1
