# generated using pymatgen
data_LaMn2(CoO)3
_symmetry_space_group_name_H-M   'P 1'
_cell_length_a   3.74992299
_cell_length_b   5.85716391
_cell_length_c   5.85716438
_cell_angle_alpha   120.00000000
_cell_angle_beta   90.00000000
_cell_angle_gamma   90.00000000
_symmetry_Int_Tables_number   1
_chemical_formula_structural   LaMn2(CoO)3
_chemical_formula_sum   'La1 Mn2 Co3 O3'
_cell_volume   111.41092268
_cell_formula_units_Z   1
loop_
 _symmetry_equiv_pos_site_id
 _symmetry_equiv_pos_as_xyz
  1  'x, y, z'
loop_
 _atom_site_type_symbol
 _atom_site_label
 _atom_site_symmetry_multiplicity
 _atom_site_fract_x
 _atom_site_fract_y
 _atom_site_fract_z
 _atom_site_occupancy
  Mn  Mn0  1  -0.00000000  0.25096301  0.99999997  1
  La  La1  1  -0.00000000  0.74903702  0.74903698  1
  Mn  Mn2  1  0.00000000  0.00000000  0.25096299  1
  Co  Co3  1  0.50000000  0.00000000  0.58617398  1
  Co  Co4  1  0.50000000  0.41382601  0.41382599  1
  Co  Co5  1  0.50000000  0.58617401  0.99999997  1
  O  O6  1  0.50000000  0.00000000  -0.00000000  1
  O  O7  1  -0.00000000  0.33333334  0.66666665  1
  O  O8  1  -0.00000000  0.66666668  0.33333333  1
