# generated using pymatgen
data_LaTiO3
_symmetry_space_group_name_H-M   'P 1'
_cell_length_a   5.57716990
_cell_length_b   5.79387712
_cell_length_c   8.02661991
_cell_angle_alpha   90.00000000
_cell_angle_beta   90.11154175
_cell_angle_gamma   90.00000000
_symmetry_Int_Tables_number   1
_chemical_formula_structural   LaTiO3
_chemical_formula_sum   'La4 Ti4 O12'
_cell_volume   259.36718595
_cell_formula_units_Z   4
loop_
 _symmetry_equiv_pos_site_id
 _symmetry_equiv_pos_as_xyz
  1  'x, y, z'
loop_
 _atom_site_type_symbol
 _atom_site_label
 _atom_site_symmetry_multiplicity
 _atom_site_fract_x
 _atom_site_fract_y
 _atom_site_fract_z
 _atom_site_occupancy
  La  La0  1  0.01413500  0.44479499  0.24750901  1
  La  La1  1  0.98586502  0.55520499  0.75249103  1
  La  La2  1  0.51413501  0.05520500  0.74750903  1
  La  La3  1  0.48586501  0.94479498  0.25249101  1
  Ti  Ti4  1  0.00000000  0.00000000  0.50000002  1
  Ti  Ti5  1  0.50000001  0.49999999  1.00000004  1
  Ti  Ti6  1  0.50000001  0.49999999  0.50000002  1
  Ti  Ti7  1  0.00000000  0.00000000  0.00000000  1
  O  O8  1  0.10807500  0.95766098  0.73920403  1
  O  O9  1  0.81543602  0.28908899  0.56089802  1
  O  O10  1  0.79372401  0.31116299  0.94727803  1
  O  O11  1  0.31543601  0.21091100  0.06089800  1
  O  O12  1  0.89192502  0.04233900  0.26079601  1
  O  O13  1  0.60807501  0.54233899  0.23920401  1
  O  O14  1  0.29372401  0.18883700  0.44727802  1
  O  O15  1  0.70627601  0.81116298  0.55272202  1
  O  O16  1  0.68456401  0.78908898  0.93910203  1
  O  O17  1  0.18456400  0.71091098  0.43910202  1
  O  O18  1  0.20627600  0.68883699  0.05272200  1
  O  O19  1  0.39192501  0.45766099  0.76079603  1
