# generated using pymatgen
data_MnO
_symmetry_space_group_name_H-M   'P 1'
_cell_length_a   4.16171455
_cell_length_b   4.16172171
_cell_length_c   5.09818649
_cell_angle_alpha   65.91116333
_cell_angle_beta   65.91031647
_cell_angle_gamma   89.99961853
_symmetry_Int_Tables_number   1
_chemical_formula_structural   MnO
_chemical_formula_sum   'Mn4 O4'
_cell_volume   72.10467692
_cell_formula_units_Z   4
loop_
 _symmetry_equiv_pos_site_id
 _symmetry_equiv_pos_as_xyz
  1  'x, y, z'
loop_
 _atom_site_type_symbol
 _atom_site_label
 _atom_site_symmetry_multiplicity
 _atom_site_fract_x
 _atom_site_fract_y
 _atom_site_fract_z
 _atom_site_occupancy
  Mn  Mn0  1  0.74999999  0.25000002  0.50000002  1
  Mn  Mn1  1  0.49999997  0.50000003  0.00000000  1
  Mn  Mn2  1  0.00000000  0.00000000  0.99999900  1
  Mn  Mn3  1  0.24999996  0.75000005  0.50000099  1
  O  O4  1  0.48338895  0.98338806  0.03322199  1
  O  O5  1  0.76886096  0.76886105  0.46227800  1
  O  O6  1  0.01660997  0.51661103  0.96677799  1
  O  O7  1  0.23113899  0.23113902  0.53772200  1
