# generated using pymatgen
data_DyMg2
_symmetry_space_group_name_H-M   'P 1'
_cell_length_a   5.07719612
_cell_length_b   6.02172184
_cell_length_c   6.02172184
_cell_angle_alpha   120.00000000
_cell_angle_beta   90.00000000
_cell_angle_gamma   90.00000000
_symmetry_Int_Tables_number   1
_chemical_formula_structural   DyMg2
_chemical_formula_sum   'Dy2 Mg4'
_cell_volume   159.43951038
_cell_formula_units_Z   2
loop_
 _symmetry_equiv_pos_site_id
 _symmetry_equiv_pos_as_xyz
  1  'x, y, z'
loop_
 _atom_site_type_symbol
 _atom_site_label
 _atom_site_symmetry_multiplicity
 _atom_site_fract_x
 _atom_site_fract_y
 _atom_site_fract_z
 _atom_site_occupancy
  Dy  Dy0  1  0.49999999  0.00000000  -0.00000000  1
  Mg  Mg1  1  0.49999999  0.66666668  0.33333332  1
  Dy  Dy2  1  0.00000000  0.00000000  0.67236700  1
  Mg  Mg3  1  -0.00000000  0.32763300  0.32763299  1
  Mg  Mg4  1  0.99999998  0.67236701  0.99999998  1
  Mg  Mg5  1  0.49999999  0.33333334  0.66666665  1
