# generated using pymatgen
data_CrCu2Se3
_symmetry_space_group_name_H-M   'P 1'
_cell_length_a   4.05637312
_cell_length_b   6.26614094
_cell_length_c   12.52866268
_cell_angle_alpha   90.00000000
_cell_angle_beta   90.00000000
_cell_angle_gamma   90.00000000
_symmetry_Int_Tables_number   1
_chemical_formula_structural   CrCu2Se3
_chemical_formula_sum   'Cr2 Cu4 Se6'
_cell_volume   318.45111325
_cell_formula_units_Z   2
loop_
 _symmetry_equiv_pos_site_id
 _symmetry_equiv_pos_as_xyz
  1  'x, y, z'
loop_
 _atom_site_type_symbol
 _atom_site_label
 _atom_site_symmetry_multiplicity
 _atom_site_fract_x
 _atom_site_fract_y
 _atom_site_fract_z
 _atom_site_occupancy
  Cu  Cu0  1  0.24999999  0.92182901  0.84192402  1
  Cr  Cr1  1  0.24999999  0.57817101  0.34192401  1
  Cu  Cu2  1  0.74999998  0.42182900  0.65807602  1
  Cr  Cr3  1  0.74999998  0.07817100  0.15807600  1
  Cu  Cu4  1  0.24999999  0.87131701  0.48936001  1
  Se  Se5  1  0.24999999  0.62868301  0.98936003  1
  Se  Se6  1  0.74999998  0.37131700  0.01064000  1
  Cu  Cu7  1  0.74999998  0.12868300  0.51064001  1
  Se  Se8  1  0.24999999  0.80164301  0.16003900  1
  Se  Se9  1  0.24999999  0.69835701  0.66003902  1
  Se  Se10  1  0.74999998  0.30164300  0.33996101  1
  Se  Se11  1  0.74999998  0.19835700  0.83996102  1
