# generated using pymatgen
data_LiMnO4
_symmetry_space_group_name_H-M   'P 1'
_cell_length_a   4.99508333
_cell_length_b   5.01927614
_cell_length_c   9.15056705
_cell_angle_alpha   92.21971893
_cell_angle_beta   90.62715149
_cell_angle_gamma   111.11506653
_symmetry_Int_Tables_number   1
_chemical_formula_structural   LiMnO4
_chemical_formula_sum   'Li3 Mn3 O12'
_cell_volume   213.77986049
_cell_formula_units_Z   3
loop_
 _symmetry_equiv_pos_site_id
 _symmetry_equiv_pos_as_xyz
  1  'x, y, z'
loop_
 _atom_site_type_symbol
 _atom_site_label
 _atom_site_symmetry_multiplicity
 _atom_site_fract_x
 _atom_site_fract_y
 _atom_site_fract_z
 _atom_site_occupancy
  Li  Li0  1  0.00353005  0.99783598  0.00016200  1
  Li  Li1  1  0.50238204  0.49642399  0.50008100  1
  Li  Li2  1  0.93033906  0.55478699  0.73921200  1
  Mn  Mn3  1  0.07564803  0.43865799  0.26145200  1
  Mn  Mn4  1  0.57933007  0.93041198  0.76062901  1
  Mn  Mn5  1  0.42663402  0.06275500  0.23924500  1
  O  O6  1  0.29174003  0.31069799  0.11706100  1
  O  O7  1  0.80131307  0.79870699  0.61593500  1
  O  O8  1  0.20429102  0.19269900  0.38386901  1
  O  O9  1  0.71567506  0.68395899  0.88307301  1
  O  O10  1  0.74844703  0.08707900  0.14460999  1
  O  O11  1  0.25939904  0.57645499  0.64172901  1
  O  O12  1  0.10436404  0.77003399  0.13652700  1
  O  O13  1  0.61904703  0.26240200  0.63988800  1
  O  O14  1  0.74674005  0.41689899  0.35831599  1
  O  O15  1  0.25861106  0.90748298  0.85527902  1
  O  O16  1  0.38818705  0.73133699  0.35960800  1
  O  O17  1  0.90181804  0.22388100  0.86332501  1
