# generated using pymatgen
data_Dy3Ge5
_symmetry_space_group_name_H-M   'P 1'
_cell_length_a   7.73845959
_cell_length_b   7.73845959
_cell_length_c   7.73845959
_cell_angle_alpha   89.42926025
_cell_angle_beta   60.32896805
_cell_angle_gamma   119.67103577
_symmetry_Int_Tables_number   1
_chemical_formula_structural   Dy3Ge5
_chemical_formula_sum   'Dy6 Ge10'
_cell_volume   329.29058790
_cell_formula_units_Z   2
loop_
 _symmetry_equiv_pos_site_id
 _symmetry_equiv_pos_as_xyz
  1  'x, y, z'
loop_
 _atom_site_type_symbol
 _atom_site_label
 _atom_site_symmetry_multiplicity
 _atom_site_fract_x
 _atom_site_fract_y
 _atom_site_fract_z
 _atom_site_occupancy
  Dy  Dy0  1  0.82133907  0.65852704  0.84147298  1
  Dy  Dy1  1  0.17866103  0.33718802  0.16281198  1
  Dy  Dy2  1  0.50000009  0.83718806  0.34147295  1
  Dy  Dy3  1  0.50000002  0.15852701  0.66281201  1
  Dy  Dy4  1  1.00000003  0.25470002  0.74530002  1
  Dy  Dy5  1  0.00000007  0.75470005  0.24529995  1
  Ge  Ge6  1  0.77931604  0.32311702  0.17688300  1
  Ge  Ge7  1  0.22068401  0.04380100  0.45619901  1
  Ge  Ge8  1  0.50000006  0.54380104  0.67688298  1
  Ge  Ge9  1  0.50000008  0.82311706  0.95619897  1
  Ge  Ge10  1  0.00000005  0.50571103  0.49428897  1
  Ge  Ge11  1  0.00000000  0.00571100  0.99428902  1
  Ge  Ge12  1  0.20789807  0.66742705  0.83257297  1
  Ge  Ge13  1  0.79210210  0.95952806  0.54047195  1
  Ge  Ge14  1  0.50000005  0.45952903  0.33257398  1
  Ge  Ge15  1  0.50000002  0.16742601  0.04047100  1
