# generated using pymatgen
data_Na3CuO6
_symmetry_space_group_name_H-M   'P 1'
_cell_length_a   3.75942254
_cell_length_b   5.67910290
_cell_length_c   7.21299791
_cell_angle_alpha   90.54084778
_cell_angle_beta   102.54434967
_cell_angle_gamma   91.00768280
_symmetry_Int_Tables_number   1
_chemical_formula_structural   Na3CuO6
_chemical_formula_sum   'Na3 Cu1 O6'
_cell_volume   150.28522423
_cell_formula_units_Z   1
loop_
 _symmetry_equiv_pos_site_id
 _symmetry_equiv_pos_as_xyz
  1  'x, y, z'
loop_
 _atom_site_type_symbol
 _atom_site_label
 _atom_site_symmetry_multiplicity
 _atom_site_fract_x
 _atom_site_fract_y
 _atom_site_fract_z
 _atom_site_occupancy
  Na  Na0  1  0.61364995  0.52477998  0.76888398  1
  Na  Na1  1  0.38634996  0.47521998  0.23111599  1
  Na  Na2  1  0.00000000  0.00000000  0.49999999  1
  Cu  Cu3  1  0.00000000  0.00000000  0.00000000  1
  O  O4  1  0.15920897  0.30247399  0.88736598  1
  O  O5  1  0.87513298  0.20253899  0.20785498  1
  O  O6  1  0.12486693  0.79746097  0.79214499  1
  O  O7  1  0.48463693  0.74564497  0.47826699  1
  O  O8  1  0.84079093  0.69752597  0.11263399  1
  O  O9  1  0.51536297  0.25435499  0.52173298  1
