# generated using pymatgen
data_BaNi
_symmetry_space_group_name_H-M   'P 1'
_cell_length_a   4.76182318
_cell_length_b   6.04305220
_cell_length_c   7.74309111
_cell_angle_alpha   90.00000000
_cell_angle_beta   90.00000000
_cell_angle_gamma   90.00000000
_symmetry_Int_Tables_number   1
_chemical_formula_structural   BaNi
_chemical_formula_sum   'Ba4 Ni4'
_cell_volume   222.81477164
_cell_formula_units_Z   4
loop_
 _symmetry_equiv_pos_site_id
 _symmetry_equiv_pos_as_xyz
  1  'x, y, z'
loop_
 _atom_site_type_symbol
 _atom_site_label
 _atom_site_symmetry_multiplicity
 _atom_site_fract_x
 _atom_site_fract_y
 _atom_site_fract_z
 _atom_site_occupancy
  Ba  Ba0  1  0.24999999  0.35718299  0.68397299  1
  Ba  Ba1  1  0.24999999  0.14281700  0.18397300  1
  Ba  Ba2  1  0.74999997  0.64281698  0.31602700  1
  Ba  Ba3  1  0.74999997  0.85718297  0.81602699  1
  Ni  Ni4  1  0.24999999  0.85234197  0.53993099  1
  Ni  Ni5  1  0.24999999  0.64765798  0.03993100  1
  Ni  Ni6  1  0.74999997  0.14765800  0.46006899  1
  Ni  Ni7  1  0.74999997  0.35234199  0.96006899  1
