# generated using pymatgen
data_Na2LiBe2BHO6
_symmetry_space_group_name_H-M   'P 1'
_cell_length_a   5.89570236
_cell_length_b   5.89570236
_cell_length_c   5.89570236
_cell_angle_alpha   60.00000763
_cell_angle_beta   60.00000000
_cell_angle_gamma   60.00000763
_symmetry_Int_Tables_number   1
_chemical_formula_structural   Na2LiBe2BHO6
_chemical_formula_sum   'Na2 Li1 Be2 B1 H1 O6'
_cell_volume   144.90778026
_cell_formula_units_Z   1
loop_
 _symmetry_equiv_pos_site_id
 _symmetry_equiv_pos_as_xyz
  1  'x, y, z'
loop_
 _atom_site_type_symbol
 _atom_site_label
 _atom_site_symmetry_multiplicity
 _atom_site_fract_x
 _atom_site_fract_y
 _atom_site_fract_z
 _atom_site_occupancy
  Na  Na0  1  0.48278899  0.01721100  0.01721100  1
  Na  Na1  1  0.48278899  0.01721100  0.48278899  1
  Li  Li2  1  0.01721100  0.01721100  0.48278899  1
  Be  Be3  1  0.01721100  0.48278899  0.48278898  1
  B  B4  1  0.48278898  0.48278899  0.01721100  1
  Be  Be5  1  0.01721100  0.48278899  0.01721100  1
  H  H6  1  0.49999998  0.49999999  0.49999998  1
  O  O7  1  0.00000000  0.00000000  0.00000000  1
  O  O8  1  0.60800398  0.60800399  0.17598799  1
  O  O9  1  0.60800398  0.60800399  0.60800398  1
  O  O10  1  0.17598799  0.60800399  0.60800398  1
  O  O11  1  0.60800398  0.17598800  0.60800398  1
  O  O12  1  0.24999999  0.24999999  0.24999999  1
