# generated using pymatgen
data_La(GaGe)2
_symmetry_space_group_name_H-M   'P 1'
_cell_length_a   4.28149986
_cell_length_b   4.28149986
_cell_length_c   5.97479248
_cell_angle_alpha   110.99564362
_cell_angle_beta   110.99564362
_cell_angle_gamma   90.00000000
_symmetry_Int_Tables_number   1
_chemical_formula_structural   La(GaGe)2
_chemical_formula_sum   'La1 Ga2 Ge2'
_cell_volume   94.42372977
_cell_formula_units_Z   1
loop_
 _symmetry_equiv_pos_site_id
 _symmetry_equiv_pos_as_xyz
  1  'x, y, z'
loop_
 _atom_site_type_symbol
 _atom_site_label
 _atom_site_symmetry_multiplicity
 _atom_site_fract_x
 _atom_site_fract_y
 _atom_site_fract_z
 _atom_site_occupancy
  La  La0  1  0.00000000  0.00000000  0.00000000  1
  Ga  Ga1  1  0.25000001  0.75000002  0.49999999  1
  Ga  Ga2  1  0.75000002  0.25000001  0.49999999  1
  Ge  Ge3  1  0.62655102  0.62655102  0.25310199  1
  Ge  Ge4  1  0.37344901  0.37344901  0.74689798  1
