# generated using pymatgen
data_Li6Co4O9
_symmetry_space_group_name_H-M   'P 1'
_cell_length_a   4.05185175
_cell_length_b   6.56641579
_cell_length_c   7.69142771
_cell_angle_alpha   106.08786011
_cell_angle_beta   105.27193451
_cell_angle_gamma   90.00000000
_symmetry_Int_Tables_number   1
_chemical_formula_structural   Li6Co4O9
_chemical_formula_sum   'Li6 Co4 O9'
_cell_volume   189.09258228
_cell_formula_units_Z   1
loop_
 _symmetry_equiv_pos_site_id
 _symmetry_equiv_pos_as_xyz
  1  'x, y, z'
loop_
 _atom_site_type_symbol
 _atom_site_label
 _atom_site_symmetry_multiplicity
 _atom_site_fract_x
 _atom_site_fract_y
 _atom_site_fract_z
 _atom_site_occupancy
  Li  Li0  1  0.21081299  0.17269599  0.42162501  1
  Li  Li1  1  0.78918695  0.82730397  0.57837501  1
  Li  Li2  1  0.03951499  0.23127999  0.07903000  1
  Li  Li3  1  0.96048494  0.76871997  0.92097002  1
  Li  Li4  1  0.32471697  0.56887898  0.64943501  1
  Li  Li5  1  0.67528296  0.43112099  0.35056501  1
  Co  Co6  1  0.40442298  0.03866000  0.80884501  1
  Co  Co7  1  0.59557695  0.96133997  0.19115501  1
  Co  Co8  1  0.15217197  0.71459798  0.30434301  1
  Co  Co9  1  0.84782796  0.28540199  0.69565701  1
  O  O10  1  0.49999997  0.49999998  0.00000000  1
  O  O11  1  0.09541797  0.95231997  0.19083501  1
  O  O12  1  0.90458196  0.04768000  0.80916501  1
  O  O13  1  0.17669698  0.43056199  0.35339401  1
  O  O14  1  0.82330295  0.56943798  0.64660601  1
  O  O15  1  0.34339698  0.27142099  0.68679301  1
  O  O16  1  0.65660295  0.72857898  0.31320701  1
  O  O17  1  0.45338996  0.76985897  0.90677902  1
  O  O18  1  0.54660997  0.23014099  0.09322100  1
