# generated using pymatgen
data_Al2P3
_symmetry_space_group_name_H-M   'P 1'
_cell_length_a   3.85284591
_cell_length_b   3.85284591
_cell_length_c   15.91043472
_cell_angle_alpha   83.04561615
_cell_angle_beta   83.04561615
_cell_angle_gamma   60.00000381
_symmetry_Int_Tables_number   1
_chemical_formula_structural   Al2P3
_chemical_formula_sum   'Al4 P6'
_cell_volume   202.53001505
_cell_formula_units_Z   2
loop_
 _symmetry_equiv_pos_site_id
 _symmetry_equiv_pos_as_xyz
  1  'x, y, z'
loop_
 _atom_site_type_symbol
 _atom_site_label
 _atom_site_symmetry_multiplicity
 _atom_site_fract_x
 _atom_site_fract_y
 _atom_site_fract_z
 _atom_site_occupancy
  Al  Al0  1  0.73332099  0.73332098  0.80003701  1
  Al  Al1  1  0.13331600  0.13331600  0.60005201  1
  Al  Al2  1  0.53332699  0.53332698  0.40001901  1
  Al  Al3  1  0.26668000  0.26667999  0.19996000  1
  P  P4  1  0.99995699  0.99995697  0.00012900  1
  P  P5  1  0.68328799  0.68328798  0.95013602  1
  P  P6  1  0.08339300  0.08339300  0.74982101  1
  P  P7  1  0.48329899  0.48329899  0.55010301  1
  P  P8  1  0.21673500  0.21673499  0.34979501  1
  P  P9  1  0.95001099  0.95001097  0.14996700  1
