# generated using pymatgen
data_Ce(SiRh)2
_symmetry_space_group_name_H-M   'P 1'
_cell_length_a   4.22283649
_cell_length_b   4.22795773
_cell_length_c   9.88709259
_cell_angle_alpha   89.97113800
_cell_angle_beta   89.97993469
_cell_angle_gamma   89.84949493
_symmetry_Int_Tables_number   1
_chemical_formula_structural   Ce(SiRh)2
_chemical_formula_sum   'Ce2 Si4 Rh4'
_cell_volume   176.52325367
_cell_formula_units_Z   2
loop_
 _symmetry_equiv_pos_site_id
 _symmetry_equiv_pos_as_xyz
  1  'x, y, z'
loop_
 _atom_site_type_symbol
 _atom_site_label
 _atom_site_symmetry_multiplicity
 _atom_site_fract_x
 _atom_site_fract_y
 _atom_site_fract_z
 _atom_site_occupancy
  Ce  Ce0  1  0.25000200  0.25000200  0.74381499  1
  Ce  Ce1  1  0.75001201  0.75000801  0.25615199  1
  Si  Si2  1  0.24996700  0.24995900  0.13245400  1
  Si  Si3  1  0.74994203  0.25007700  0.50013999  1
  Si  Si4  1  0.75003701  0.75003101  0.86750499  1
  Si  Si5  1  0.25004999  0.74993801  0.49996900  1
  Rh  Rh6  1  0.25004200  0.25006400  0.37589799  1
  Rh  Rh7  1  0.24995799  0.75005401  0.99999899  1
  Rh  Rh8  1  0.74994601  0.74993501  0.62415399  1
  Rh  Rh9  1  0.75004403  0.24993200  0.99991498  1
