# generated using pymatgen
data_Cu2Pd3
_symmetry_space_group_name_H-M   'P 1'
_cell_length_a   5.90752220
_cell_length_b   5.90752220
_cell_length_c   7.23370790
_cell_angle_alpha   90.00000000
_cell_angle_beta   90.00000000
_cell_angle_gamma   90.00000000
_symmetry_Int_Tables_number   1
_chemical_formula_structural   Cu2Pd3
_chemical_formula_sum   'Cu8 Pd12'
_cell_volume   252.44785970
_cell_formula_units_Z   4
loop_
 _symmetry_equiv_pos_site_id
 _symmetry_equiv_pos_as_xyz
  1  'x, y, z'
loop_
 _atom_site_type_symbol
 _atom_site_label
 _atom_site_symmetry_multiplicity
 _atom_site_fract_x
 _atom_site_fract_y
 _atom_site_fract_z
 _atom_site_occupancy
  Cu  Cu0  1  0.00000000  0.00000000  0.00000000  1
  Cu  Cu1  1  0.00000000  0.00000000  0.50000001  1
  Cu  Cu2  1  0.49999998  0.49999998  0.25000000  1
  Cu  Cu3  1  0.49999998  0.49999998  0.75000001  1
  Cu  Cu4  1  0.19225499  0.60393498  -0.00000000  1
  Cu  Cu5  1  0.39606499  0.19225499  0.50000001  1
  Cu  Cu6  1  0.60393498  0.80774497  0.50000001  1
  Cu  Cu7  1  0.80774497  0.39606499  0.00000000  1
  Pd  Pd8  1  0.09675600  0.29717799  0.24924700  1
  Pd  Pd9  1  0.70282198  0.09675600  0.74924701  1
  Pd  Pd10  1  0.29717799  0.90324397  0.74924701  1
  Pd  Pd11  1  0.90324397  0.70282198  0.24924700  1
  Pd  Pd12  1  0.90324397  0.70282198  0.75075301  1
  Pd  Pd13  1  0.29717799  0.90324397  0.25075300  1
  Pd  Pd14  1  0.70282198  0.09675600  0.25075300  1
  Pd  Pd15  1  0.09675600  0.29717799  0.75075301  1
  Pd  Pd16  1  0.39771199  0.20758499  0.00000000  1
  Pd  Pd17  1  0.79241497  0.39771199  0.50000001  1
  Pd  Pd18  1  0.20758499  0.60228798  0.50000001  1
  Pd  Pd19  1  0.60228798  0.79241497  -0.00000000  1
