# generated using pymatgen
data_Zr4OF7
_symmetry_space_group_name_H-M   'P 1'
_cell_length_a   4.06909418
_cell_length_b   4.42610216
_cell_length_c   12.25790977
_cell_angle_alpha   90.00000000
_cell_angle_beta   90.00000000
_cell_angle_gamma   90.00000000
_symmetry_Int_Tables_number   1
_chemical_formula_structural   Zr4OF7
_chemical_formula_sum   'Zr4 O1 F7'
_cell_volume   220.76773207
_cell_formula_units_Z   1
loop_
 _symmetry_equiv_pos_site_id
 _symmetry_equiv_pos_as_xyz
  1  'x, y, z'
loop_
 _atom_site_type_symbol
 _atom_site_label
 _atom_site_symmetry_multiplicity
 _atom_site_fract_x
 _atom_site_fract_y
 _atom_site_fract_z
 _atom_site_occupancy
  Zr  Zr0  1  0.24999999  0.43275098  0.63672301  1
  Zr  Zr1  1  0.24999999  0.06724900  0.13672300  1
  Zr  Zr2  1  0.74999997  0.56724898  0.36327701  1
  Zr  Zr3  1  0.74999997  0.93275097  0.86327702  1
  O  O4  1  0.24999999  0.79589697  0.96181702  1
  F  F5  1  0.24999999  0.70410297  0.46181701  1
  F  F6  1  0.74999997  0.20410299  0.03818300  1
  F  F7  1  0.74999997  0.29589699  0.53818301  1
  F  F8  1  0.24999999  0.56363498  0.22866000  1
  F  F9  1  0.24999999  0.93636497  0.72866001  1
  F  F10  1  0.74999997  0.43636498  0.77134001  1
  F  F11  1  0.74999997  0.06363500  0.27134000  1
