# generated using pymatgen
data_Na4AgH4F9
_symmetry_space_group_name_H-M   'P 1'
_cell_length_a   3.37677193
_cell_length_b   5.91232967
_cell_length_c   13.64742565
_cell_angle_alpha   90.00000000
_cell_angle_beta   90.00000000
_cell_angle_gamma   106.59294128
_symmetry_Int_Tables_number   1
_chemical_formula_structural   Na4AgH4F9
_chemical_formula_sum   'Na4 Ag1 H4 F9'
_cell_volume   261.11918011
_cell_formula_units_Z   1
loop_
 _symmetry_equiv_pos_site_id
 _symmetry_equiv_pos_as_xyz
  1  'x, y, z'
loop_
 _atom_site_type_symbol
 _atom_site_label
 _atom_site_symmetry_multiplicity
 _atom_site_fract_x
 _atom_site_fract_y
 _atom_site_fract_z
 _atom_site_occupancy
  Na  Na0  1  0.27095497  0.54191000  0.88674202  1
  Na  Na1  1  0.72904498  0.45809000  0.11325800  1
  Na  Na2  1  0.72904498  0.45809000  0.38674201  1
  Na  Na3  1  0.27095497  0.54191000  0.61325802  1
  H  H4  1  0.52765601  0.05531200  0.75000002  1
  Ag  Ag5  1  0.47234394  0.94468799  0.25000001  1
  H  H6  1  0.00000000  0.00000000  0.00000000  1
  H  H7  1  0.00000000  0.00000000  0.50000001  1
  F  F8  1  0.08426199  0.16852400  0.35517901  1
  H  H9  1  0.91573796  0.83147599  0.64482102  1
  F  F10  1  0.91573796  0.83147599  0.85517902  1
  F  F11  1  0.08426199  0.16852400  0.14482100  1
  F  F12  1  0.36097696  0.72195399  0.45229801  1
  F  F13  1  0.63902299  0.27804600  0.54770201  1
  F  F14  1  0.63902299  0.27804600  0.95229802  1
  F  F15  1  0.36097696  0.72195399  0.04770200  1
  F  F16  1  0.16648998  0.33298000  0.75000002  1
  F  F17  1  0.83350997  0.66702000  0.25000001  1
