# generated using pymatgen
data_Na2CuF5
_symmetry_space_group_name_H-M   'P 1'
_cell_length_a   4.19361782
_cell_length_b   4.19361830
_cell_length_c   7.93207979
_cell_angle_alpha   90.00000000
_cell_angle_beta   90.00000000
_cell_angle_gamma   120.00000000
_symmetry_Int_Tables_number   1
_chemical_formula_structural   Na2CuF5
_chemical_formula_sum   'Na2 Cu1 F5'
_cell_volume   120.80793299
_cell_formula_units_Z   1
loop_
 _symmetry_equiv_pos_site_id
 _symmetry_equiv_pos_as_xyz
  1  'x, y, z'
loop_
 _atom_site_type_symbol
 _atom_site_label
 _atom_site_symmetry_multiplicity
 _atom_site_fract_x
 _atom_site_fract_y
 _atom_site_fract_z
 _atom_site_occupancy
  Na  Na0  1  0.33333337  0.66666667  0.58554102  1
  Na  Na1  1  0.66666671  0.33333334  0.08554100  1
  Cu  Cu2  1  0.33333337  0.66666667  0.91445902  1
  F  F3  1  0.66666671  0.33333334  0.41445901  1
  F  F4  1  0.00000000  0.00000000  0.25000001  1
  F  F5  1  0.00000000  0.00000000  0.75000002  1
  F  F6  1  0.66666671  0.33333334  0.75000002  1
  F  F7  1  0.33333337  0.66666667  0.25000001  1
