# generated using pymatgen
data_Li2Sb2Mo2OF13
_symmetry_space_group_name_H-M   'P 1'
_cell_length_a   6.43912220
_cell_length_b   6.43912220
_cell_length_c   6.82324839
_cell_angle_alpha   89.82698059
_cell_angle_beta   89.82698059
_cell_angle_gamma   83.93754578
_symmetry_Int_Tables_number   1
_chemical_formula_structural   Li2Sb2Mo2OF13
_chemical_formula_sum   'Li2 Sb2 Mo2 O1 F13'
_cell_volume   281.32301659
_cell_formula_units_Z   1
loop_
 _symmetry_equiv_pos_site_id
 _symmetry_equiv_pos_as_xyz
  1  'x, y, z'
loop_
 _atom_site_type_symbol
 _atom_site_label
 _atom_site_symmetry_multiplicity
 _atom_site_fract_x
 _atom_site_fract_y
 _atom_site_fract_z
 _atom_site_occupancy
  Li  Li0  1  0.25285401  0.25285400  0.76620296  1
  Li  Li1  1  0.79967501  0.20032500  -0.00000005  1
  Sb  Sb2  1  0.20032504  0.79967500  -0.00000005  1
  Mo  Mo3  1  0.74714603  0.74714600  0.23379591  1
  Sb  Sb4  1  0.22253501  0.22253500  0.29205297  1
  Mo  Mo5  1  0.84288601  0.15711400  0.49999994  1
  O  O6  1  0.15711404  0.84288600  0.49999994  1
  F  F7  1  0.77746504  0.77746500  0.70794690  1
  F  F8  1  0.12923301  0.12923300  0.05504698  1
  F  F9  1  0.32235802  0.32235800  0.51664196  1
  F  F10  1  0.53080601  0.21042600  0.88861295  1
  F  F11  1  0.21042602  0.53080600  0.88861295  1
  F  F12  1  0.73803201  0.06701100  0.25950995  1
  F  F13  1  0.06701103  0.73803200  0.25950995  1
  F  F14  1  0.26196804  0.93298900  0.74048992  1
  F  F15  1  0.93298901  0.26196800  0.74048992  1
  F  F16  1  0.46919404  0.78957400  0.11138693  1
  F  F17  1  0.78957402  0.46919400  0.11138693  1
  F  F18  1  0.67764203  0.67764200  0.48335792  1
  F  F19  1  0.87076704  0.87076700  0.94495289  1
