# generated using pymatgen
data_Na7TiC3N5
_symmetry_space_group_name_H-M   'P 1'
_cell_length_a   3.84619498
_cell_length_b   3.84619498
_cell_length_c   16.04175377
_cell_angle_alpha   90.00000000
_cell_angle_beta   90.00000000
_cell_angle_gamma   90.00000000
_symmetry_Int_Tables_number   1
_chemical_formula_structural   Na7TiC3N5
_chemical_formula_sum   'Na7 Ti1 C3 N5'
_cell_volume   237.30912601
_cell_formula_units_Z   1
loop_
 _symmetry_equiv_pos_site_id
 _symmetry_equiv_pos_as_xyz
  1  'x, y, z'
loop_
 _atom_site_type_symbol
 _atom_site_label
 _atom_site_symmetry_multiplicity
 _atom_site_fract_x
 _atom_site_fract_y
 _atom_site_fract_z
 _atom_site_occupancy
  Na  Na0  1  0.00000000  0.00000000  0.77809196  1
  Na  Na1  1  0.00000000  0.00000000  0.22190799  1
  Na  Na2  1  0.00000000  0.00000000  0.00000000  1
  Na  Na3  1  0.00000000  0.00000000  0.49999998  1
  Na  Na4  1  0.50000000  0.50000000  0.89360996  1
  Na  Na5  1  0.50000000  0.50000000  0.10638999  1
  Ti  Ti6  1  0.50000000  0.50000000  0.38778798  1
  Na  Na7  1  0.50000000  0.50000000  0.61221197  1
  C  C8  1  0.00000000  0.50000000  0.90634796  1
  C  C9  1  0.50000000  0.00000000  0.09365200  1
  N  N10  1  0.00000000  0.50000000  0.09365200  1
  C  C11  1  0.50000000  0.00000000  0.90634796  1
  N  N12  1  0.00000000  0.00000000  0.38400498  1
  N  N13  1  0.50000000  0.50000000  0.74834896  1
  N  N14  1  0.50000000  0.50000000  0.25165099  1
  N  N15  1  0.00000000  0.00000000  0.61599497  1
