# generated using pymatgen
data_Li4Cr(WO4)2
_symmetry_space_group_name_H-M   'P 1'
_cell_length_a   5.94637871
_cell_length_b   5.94637871
_cell_length_c   5.98487043
_cell_angle_alpha   60.21252441
_cell_angle_beta   60.21252441
_cell_angle_gamma   59.99998856
_symmetry_Int_Tables_number   1
_chemical_formula_structural   Li4Cr(WO4)2
_chemical_formula_sum   'Li4 Cr1 W2 O8'
_cell_volume   150.11790314
_cell_formula_units_Z   1
loop_
 _symmetry_equiv_pos_site_id
 _symmetry_equiv_pos_as_xyz
  1  'x, y, z'
loop_
 _atom_site_type_symbol
 _atom_site_label
 _atom_site_symmetry_multiplicity
 _atom_site_fract_x
 _atom_site_fract_y
 _atom_site_fract_z
 _atom_site_occupancy
  Li  Li0  1  -0.00000003  0.50000002  0.00000002  1
  Li  Li1  1  0.50000001  0.00000000  0.00000001  1
  Li  Li2  1  0.49999998  0.50000002  0.00000003  1
  Li  Li3  1  0.50000001  0.00000000  0.50000002  1
  Cr  Cr4  1  0.00000000  0.00000000  0.00000000  1
  W  W5  1  0.00000000  0.00000000  0.50000000  1
  W  W6  1  -0.00000003  0.50000002  0.50000003  1
  O  O7  1  0.22239597  0.76245903  0.25268604  1
  O  O8  1  0.75531798  0.75531803  0.73404606  1
  O  O9  1  0.23754099  0.23754101  0.74731402  1
  O  O10  1  0.76245900  0.22239601  0.25268603  1
  O  O11  1  0.23754097  0.77760403  0.74731404  1
  O  O12  1  0.76245898  0.76245903  0.25268605  1
  O  O13  1  0.24468199  0.24468201  0.26595402  1
  O  O14  1  0.77760400  0.23754101  0.74731404  1
