# generated using pymatgen
data_Zr3(SiNi)4
_symmetry_space_group_name_H-M   'P 1'
_cell_length_a   3.85828710
_cell_length_b   6.47968578
_cell_length_c   7.38123846
_cell_angle_alpha   116.03559113
_cell_angle_beta   105.15064240
_cell_angle_gamma   90.00000000
_symmetry_Int_Tables_number   1
_chemical_formula_structural   Zr3(SiNi)4
_chemical_formula_sum   'Zr3 Si4 Ni4'
_cell_volume   158.63889416
_cell_formula_units_Z   1
loop_
 _symmetry_equiv_pos_site_id
 _symmetry_equiv_pos_as_xyz
  1  'x, y, z'
loop_
 _atom_site_type_symbol
 _atom_site_label
 _atom_site_symmetry_multiplicity
 _atom_site_fract_x
 _atom_site_fract_y
 _atom_site_fract_z
 _atom_site_occupancy
  Zr  Zr0  1  0.00000001  0.50000003  0.00000003  1
  Zr  Zr1  1  0.12665400  0.12665301  0.25330700  1
  Zr  Zr2  1  0.87334600  0.87334705  0.74669304  1
  Si  Si3  1  0.21965401  0.71965405  0.43930804  1
  Si  Si4  1  0.78034599  0.28034602  0.56069201  1
  Si  Si5  1  0.50000001  0.81217605  1.00000004  1
  Si  Si6  1  0.49999999  0.18782401  0.00000001  1
  Ni  Ni7  1  0.32496699  0.12865701  0.64993500  1
  Ni  Ni8  1  0.32496700  0.52127803  0.64993502  1
  Ni  Ni9  1  0.67503299  0.47872203  0.35006502  1
  Ni  Ni10  1  0.67503300  0.87134305  0.35006505  1
