# generated using pymatgen
data_Sc2Ni2Sn
_symmetry_space_group_name_H-M   'P 1'
_cell_length_a   3.35358000
_cell_length_b   7.14663887
_cell_length_c   7.14663887
_cell_angle_alpha   90.00000000
_cell_angle_beta   90.00000000
_cell_angle_gamma   90.00000000
_symmetry_Int_Tables_number   1
_chemical_formula_structural   Sc2Ni2Sn
_chemical_formula_sum   'Sc4 Ni4 Sn2'
_cell_volume   171.28224434
_cell_formula_units_Z   2
loop_
 _symmetry_equiv_pos_site_id
 _symmetry_equiv_pos_as_xyz
  1  'x, y, z'
loop_
 _atom_site_type_symbol
 _atom_site_label
 _atom_site_symmetry_multiplicity
 _atom_site_fract_x
 _atom_site_fract_y
 _atom_site_fract_z
 _atom_site_occupancy
  Sc  Sc0  1  0.50000000  0.66917701  0.16917700  1
  Sc  Sc1  1  0.50000000  0.16917700  0.33082301  1
  Sc  Sc2  1  0.50000000  0.83082302  0.66917701  1
  Sc  Sc3  1  0.50000000  0.33082301  0.83082302  1
  Ni  Ni4  1  0.00000000  0.87650302  0.37650301  1
  Ni  Ni5  1  0.00000000  0.37650301  0.12349700  1
  Ni  Ni6  1  -0.00000000  0.62349701  0.87650302  1
  Ni  Ni7  1  0.00000000  0.12349700  0.62349701  1
  Sn  Sn8  1  0.00000000  0.00000000  0.00000000  1
  Sn  Sn9  1  1.00000000  0.50000001  0.50000001  1
