# generated using pymatgen
data_Mg3Ag4
_symmetry_space_group_name_H-M   'P 1'
_cell_length_a   3.07569003
_cell_length_b   10.40791225
_cell_length_c   10.40791225
_cell_angle_alpha   90.00000000
_cell_angle_beta   90.00000000
_cell_angle_gamma   90.00000000
_symmetry_Int_Tables_number   1
_chemical_formula_structural   Mg3Ag4
_chemical_formula_sum   'Mg6 Ag8'
_cell_volume   333.17300766
_cell_formula_units_Z   2
loop_
 _symmetry_equiv_pos_site_id
 _symmetry_equiv_pos_as_xyz
  1  'x, y, z'
loop_
 _atom_site_type_symbol
 _atom_site_label
 _atom_site_symmetry_multiplicity
 _atom_site_fract_x
 _atom_site_fract_y
 _atom_site_fract_z
 _atom_site_occupancy
  Mg  Mg0  1  0.49999999  0.31999599  0.81999598  1
  Mg  Mg1  1  0.49999999  0.81999598  0.68000398  1
  Mg  Mg2  1  0.49999999  0.18000400  0.31999599  1
  Mg  Mg3  1  0.49999999  0.68000398  0.18000400  1
  Mg  Mg4  1  0.99999999  0.43838399  0.29172199  1
  Ag  Ag5  1  0.00000000  0.56161599  0.70827798  1
  Mg  Mg6  1  0.00000000  0.70827798  0.43838399  1
  Ag  Ag7  1  0.00000000  0.29172199  0.56161599  1
  Ag  Ag8  1  0.00000000  0.49999999  0.00000000  1
  Ag  Ag9  1  0.00000000  0.00000000  0.49999999  1
  Ag  Ag10  1  0.00000000  0.20827799  0.06161600  1
  Ag  Ag11  1  0.00000000  0.06161600  0.79172198  1
  Ag  Ag12  1  0.00000000  0.93838398  0.20827799  1
  Ag  Ag13  1  0.00000000  0.79172198  0.93838398  1
