# generated using pymatgen
data_La2O3
_symmetry_space_group_name_H-M   'P 1'
_cell_length_a   3.74268198
_cell_length_b   7.56823683
_cell_length_c   9.13814545
_cell_angle_alpha   99.85080719
_cell_angle_beta   90.00000000
_cell_angle_gamma   104.31558228
_symmetry_Int_Tables_number   1
_chemical_formula_structural   La2O3
_chemical_formula_sum   'La6 O9'
_cell_volume   246.86468387
_cell_formula_units_Z   3
loop_
 _symmetry_equiv_pos_site_id
 _symmetry_equiv_pos_as_xyz
  1  'x, y, z'
loop_
 _atom_site_type_symbol
 _atom_site_label
 _atom_site_symmetry_multiplicity
 _atom_site_fract_x
 _atom_site_fract_y
 _atom_site_fract_z
 _atom_site_occupancy
  La  La0  1  0.96672812  0.93345601  0.18822896  1
  La  La1  1  0.03327201  0.06654400  0.81177096  1
  La  La2  1  0.30920308  0.61840600  0.86193094  1
  La  La3  1  0.63444204  0.26888400  0.48999097  1
  La  La4  1  0.36555809  0.73111601  0.51000895  1
  La  La5  1  0.69079705  0.38159400  0.13806898  1
  O  O6  1  0.12918503  0.25837000  0.28582498  1
  O  O7  1  0.17546904  0.35093800  0.97365095  1
  O  O8  1  0.47390912  0.94781801  0.34407095  1
  O  O9  1  0.79825808  0.59651600  0.37302596  1
  O  O10  1  0.87081510  0.74163001  0.71417494  1
  O  O11  1  0.50000000  0.00000000  -0.00000000  1
  O  O12  1  0.52609101  0.05218200  0.65592897  1
  O  O13  1  0.82453109  0.64906201  0.02634898  1
  O  O14  1  0.20174205  0.40348400  0.62697396  1
