# generated using pymatgen
data_Sr4Mg6AlIn4
_symmetry_space_group_name_H-M   'P 1'
_cell_length_a   7.67030764
_cell_length_b   7.67030764
_cell_length_c   7.67030811
_cell_angle_alpha   71.95091248
_cell_angle_beta   71.95091248
_cell_angle_gamma   71.95091248
_symmetry_Int_Tables_number   1
_chemical_formula_structural   Sr4Mg6AlIn4
_chemical_formula_sum   'Sr4 Mg6 Al1 In4'
_cell_volume   396.37455881
_cell_formula_units_Z   1
loop_
 _symmetry_equiv_pos_site_id
 _symmetry_equiv_pos_as_xyz
  1  'x, y, z'
loop_
 _atom_site_type_symbol
 _atom_site_label
 _atom_site_symmetry_multiplicity
 _atom_site_fract_x
 _atom_site_fract_y
 _atom_site_fract_z
 _atom_site_occupancy
  Sr  Sr0  1  0.00000000  0.00000000  0.00000000  1
  Sr  Sr1  1  0.20557001  0.20557000  0.20556998  1
  Sr  Sr2  1  0.79443005  0.79443000  0.79442991  1
  Sr  Sr3  1  0.39252404  0.66803100  0.15980394  1
  Mg  Mg4  1  0.66803102  0.15980400  0.39252396  1
  Mg  Mg5  1  0.15980402  0.39252500  0.66803096  1
  Mg  Mg6  1  0.60747602  0.33196900  0.84019595  1
  Mg  Mg7  1  0.33196905  0.84019600  0.60747593  1
  Mg  Mg8  1  0.84019604  0.60747600  0.33196893  1
  Mg  Mg9  1  0.04225104  0.84670200  0.41133795  1
  In  In10  1  0.84670203  0.41133800  0.04225094  1
  Al  Al11  1  0.41133801  0.04225100  0.84670197  1
  In  In12  1  0.95774902  0.15329800  0.58866194  1
  In  In13  1  0.15329803  0.58866200  0.95774895  1
  In  In14  1  0.58866205  0.95774900  0.15329792  1
