# generated using pymatgen
data_LiNbO3
_symmetry_space_group_name_H-M   'P 1'
_cell_length_a   5.31688738
_cell_length_b   5.40627480
_cell_length_c   7.86000824
_cell_angle_alpha   90.00438690
_cell_angle_beta   89.96362305
_cell_angle_gamma   89.99130249
_symmetry_Int_Tables_number   1
_chemical_formula_structural   LiNbO3
_chemical_formula_sum   'Li4 Nb4 O12'
_cell_volume   225.93238426
_cell_formula_units_Z   4
loop_
 _symmetry_equiv_pos_site_id
 _symmetry_equiv_pos_as_xyz
  1  'x, y, z'
loop_
 _atom_site_type_symbol
 _atom_site_label
 _atom_site_symmetry_multiplicity
 _atom_site_fract_x
 _atom_site_fract_y
 _atom_site_fract_z
 _atom_site_occupancy
  Li  Li0  1  0.00011400  0.04496300  0.75765499  1
  Li  Li1  1  0.49977604  0.54525202  0.74206802  1
  Li  Li2  1  0.50817303  0.44998702  0.25848402  1
  Li  Li3  1  0.99204606  0.94962804  0.24164105  1
  Nb  Nb4  1  0.49933706  0.99864004  0.50106002  1
  Nb  Nb5  1  0.00060603  0.49920302  0.99873399  1
  Nb  Nb6  1  0.00318503  0.49935302  0.49956800  1
  Nb  Nb7  1  0.49674606  0.99976004  0.00049403  1
  O  O8  1  0.16041505  0.79787903  0.57561201  1
  O  O9  1  0.65949005  0.70463403  0.07382703  1
  O  O10  1  0.84032602  0.20423401  0.42608703  1
  O  O11  1  0.33976202  0.29807601  0.92454501  1
  O  O12  1  0.18160305  0.82575103  0.94712901  1
  O  O13  1  0.69417905  0.68332003  0.44181503  1
  O  O14  1  0.80557402  0.18338401  0.05825703  1
  O  O15  1  0.31870502  0.32534101  0.55292001  1
  O  O16  1  0.61878006  0.92691604  0.76793003  1
  O  O17  1  0.12361203  0.56849102  0.26797101  1
  O  O18  1  0.37656001  0.06833800  0.23195301  1
  O  O19  1  0.88101103  0.42685002  0.73225103  1
