# generated using pymatgen
data_La2NiWO6
_symmetry_space_group_name_H-M   'P 1'
_cell_length_a   5.52720785
_cell_length_b   5.68608093
_cell_length_c   7.92814112
_cell_angle_alpha   90.00000000
_cell_angle_beta   89.96006775
_cell_angle_gamma   90.00000000
_symmetry_Int_Tables_number   1
_chemical_formula_structural   La2NiWO6
_chemical_formula_sum   'La4 Ni2 W2 O12'
_cell_volume   249.16675705
_cell_formula_units_Z   2
loop_
 _symmetry_equiv_pos_site_id
 _symmetry_equiv_pos_as_xyz
  1  'x, y, z'
loop_
 _atom_site_type_symbol
 _atom_site_label
 _atom_site_symmetry_multiplicity
 _atom_site_fract_x
 _atom_site_fract_y
 _atom_site_fract_z
 _atom_site_occupancy
  La  La0  1  0.48718201  0.55413101  0.25017001  1
  La  La1  1  0.01281800  0.05413100  0.24982999  1
  La  La2  1  0.51281801  0.44586901  0.74983000  1
  La  La3  1  0.98718203  0.94586901  0.75017002  1
  Ni  Ni4  1  0.50000001  0.00000000  0.50000001  1
  Ni  Ni5  1  0.00000000  0.50000001  -0.00000000  1
  W  W6  1  0.50000001  0.00000000  0.00000002  1
  W  W7  1  0.00000000  0.50000001  0.49999999  1
  O  O8  1  0.58978702  0.97510901  0.24840502  1
  O  O9  1  0.91021302  0.47510901  0.25159503  1
  O  O10  1  0.41021301  0.02489100  0.75159500  1
  O  O11  1  0.08978700  0.52489101  0.74840499  1
  O  O12  1  0.20403101  0.79253001  0.04680801  1
  O  O13  1  0.29596901  0.29253000  0.45319200  1
  O  O14  1  0.79772702  0.20772300  0.54729002  1
  O  O15  1  0.70227302  0.70772301  0.95271001  1
  O  O16  1  0.79596902  0.20747000  0.95319201  1
  O  O17  1  0.70403102  0.70747001  0.54680802  1
  O  O18  1  0.20227301  0.79227701  0.45271000  1
  O  O19  1  0.29772701  0.29227700  0.04729001  1
