# generated using pymatgen
data_Na4ZrO5
_symmetry_space_group_name_H-M   'P 1'
_cell_length_a   5.83102560
_cell_length_b   6.01284122
_cell_length_c   10.09480190
_cell_angle_alpha   86.91635132
_cell_angle_beta   73.35856628
_cell_angle_gamma   61.27052689
_symmetry_Int_Tables_number   1
_chemical_formula_structural   Na4ZrO5
_chemical_formula_sum   'Na8 Zr2 O10'
_cell_volume   295.88006454
_cell_formula_units_Z   2
loop_
 _symmetry_equiv_pos_site_id
 _symmetry_equiv_pos_as_xyz
  1  'x, y, z'
loop_
 _atom_site_type_symbol
 _atom_site_label
 _atom_site_symmetry_multiplicity
 _atom_site_fract_x
 _atom_site_fract_y
 _atom_site_fract_z
 _atom_site_occupancy
  Na  Na0  1  0.44961802  0.97945199  0.32645394  1
  Na  Na1  1  0.44959301  0.47944099  0.82647294  1
  Na  Na2  1  0.24446302  0.73131499  0.57708494  1
  Na  Na3  1  0.24446500  0.23131300  0.07710798  1
  Na  Na4  1  0.75553500  0.26868700  0.42289196  1
  Na  Na5  1  0.75553701  0.76868499  0.92291492  1
  Na  Na6  1  0.55040699  0.02055900  0.67352696  1
  Na  Na7  1  0.55038201  0.52054799  0.17354596  1
  Zr  Zr8  1  0.00004201  0.37722199  0.62254996  1
  O  O9  1  0.99995799  0.12277700  0.87744995  1
  O  O10  1  0.00003102  0.87722499  0.12256296  1
  Zr  Zr11  1  0.99996800  0.62277599  0.37743695  1
  O  O12  1  0.68353601  0.64772499  0.54918694  1
  O  O13  1  0.68351900  0.14771600  0.04922199  1
  O  O14  1  0.88311899  0.10444000  0.70145596  1
  O  O15  1  0.88311301  0.60443699  0.20145496  1
  O  O16  1  0.11688702  0.89556299  0.29854495  1
  O  O17  1  0.11688101  0.39555999  0.79854395  1
  O  O18  1  0.31648101  0.35228400  0.45077796  1
  O  O19  1  0.31646402  0.85227499  0.95081292  1
