# generated using pymatgen
data_NaLi3(BiS3)2
_symmetry_space_group_name_H-M   'P 1'
_cell_length_a   6.53474712
_cell_length_b   6.66056252
_cell_length_c   6.66056252
_cell_angle_alpha   60.07556152
_cell_angle_beta   80.18778992
_cell_angle_gamma   99.81221008
_symmetry_Int_Tables_number   1
_chemical_formula_structural   NaLi3(BiS3)2
_chemical_formula_sum   'Na1 Li3 Bi2 S6'
_cell_volume   236.24386650
_cell_formula_units_Z   1
loop_
 _symmetry_equiv_pos_site_id
 _symmetry_equiv_pos_as_xyz
  1  'x, y, z'
loop_
 _atom_site_type_symbol
 _atom_site_label
 _atom_site_symmetry_multiplicity
 _atom_site_fract_x
 _atom_site_fract_y
 _atom_site_fract_z
 _atom_site_occupancy
  Na  Na0  1  0.00000000  0.00000000  0.00000000  1
  Li  Li1  1  0.50000001  0.49999999  0.49999999  1
  Li  Li2  1  0.50000002  0.83510198  0.83510198  1
  Li  Li3  1  0.50000001  0.16489800  0.16489799  1
  Bi  Bi4  1  0.00000001  0.66666665  0.66666665  1
  Bi  Bi5  1  0.00000001  0.33333333  0.33333333  1
  S  S6  1  0.25128402  0.74402499  0.25597499  1
  S  S7  1  0.75183102  0.91722198  0.42148498  1
  S  S8  1  0.75183102  0.57851499  0.08277799  1
  S  S9  1  0.74871601  0.25597500  0.74402498  1
  S  S10  1  0.24816900  0.08277800  0.57851499  1
  S  S11  1  0.24816901  0.42148499  0.91722198  1
