# generated using pymatgen
data_Na3CuOF3
_symmetry_space_group_name_H-M   'P 1'
_cell_length_a   5.27655792
_cell_length_b   5.27655792
_cell_length_c   10.32738495
_cell_angle_alpha   104.80110168
_cell_angle_beta   104.80110168
_cell_angle_gamma   90.00000000
_symmetry_Int_Tables_number   1
_chemical_formula_structural   Na3CuOF3
_chemical_formula_sum   'Na6 Cu2 O2 F6'
_cell_volume   268.11466435
_cell_formula_units_Z   2
loop_
 _symmetry_equiv_pos_site_id
 _symmetry_equiv_pos_as_xyz
  1  'x, y, z'
loop_
 _atom_site_type_symbol
 _atom_site_label
 _atom_site_symmetry_multiplicity
 _atom_site_fract_x
 _atom_site_fract_y
 _atom_site_fract_z
 _atom_site_occupancy
  Na  Na0  1  0.62464700  0.62464701  0.76849902  1
  Na  Na1  1  0.14385200  0.14385200  0.76849903  1
  Na  Na2  1  0.37535299  0.85614801  0.23150099  1
  Na  Na3  1  0.85614800  0.37535300  0.23150099  1
  Na  Na4  1  0.74936100  0.74936101  0.49872200  1
  Na  Na5  1  0.25063900  0.25063900  0.50127802  1
  Cu  Cu6  1  0.24999999  0.75000001  0.50000001  1
  Cu  Cu7  1  0.75000000  0.25000000  0.50000001  1
  F  F8  1  0.00000000  0.00000000  0.00000000  1
  O  O9  1  0.41718500  0.41718500  0.34326700  1
  O  O10  1  0.92608200  0.92608201  0.34326699  1
  F  F11  1  0.58281500  0.07391800  0.65673302  1
  F  F12  1  0.07391799  0.58281500  0.65673302  1
  F  F13  1  0.50000000  0.50000000  -0.00000001  1
  F  F14  1  0.50000000  0.00000000  -0.00000001  1
  F  F15  1  -0.00000001  0.50000000  -0.00000001  1
