# generated using pymatgen
data_Gd2C3
_symmetry_space_group_name_H-M   'P 1'
_cell_length_a   7.06058407
_cell_length_b   7.06058407
_cell_length_c   7.06058407
_cell_angle_alpha   109.47122192
_cell_angle_beta   109.47122192
_cell_angle_gamma   109.47122192
_symmetry_Int_Tables_number   1
_chemical_formula_structural   Gd2C3
_chemical_formula_sum   'Gd8 C12'
_cell_volume   270.95674952
_cell_formula_units_Z   4
loop_
 _symmetry_equiv_pos_site_id
 _symmetry_equiv_pos_as_xyz
  1  'x, y, z'
loop_
 _atom_site_type_symbol
 _atom_site_label
 _atom_site_symmetry_multiplicity
 _atom_site_fract_x
 _atom_site_fract_y
 _atom_site_fract_z
 _atom_site_occupancy
  Gd  Gd0  1  0.40136702  0.40136700  0.90136701  1
  Gd  Gd1  1  0.00000003  0.50000001  0.09863303  1
  Gd  Gd2  1  0.59863305  1.00000001  0.00000007  1
  Gd  Gd3  1  0.50000003  0.59863301  0.50000003  1
  Gd  Gd4  1  0.09863300  0.00000000  0.00000000  1
  Gd  Gd5  1  0.50000000  0.09863300  0.50000000  1
  Gd  Gd6  1  1.00000001  0.50000001  0.59863303  1
  Gd  Gd7  1  0.90136704  0.90136701  0.40136706  1
  C  C8  1  0.96003799  0.21003800  0.75000001  1
  C  C9  1  0.78996199  0.03996200  0.75000000  1
  C  C10  1  0.46003804  0.75000001  0.21003805  1
  C  C11  1  0.75000003  0.71003801  0.96003803  1
  C  C12  1  0.03996202  0.25000000  0.28996201  1
  C  C13  1  0.25000005  0.78996201  0.53996203  1
  C  C14  1  0.53996201  0.28996200  0.25000002  1
  C  C15  1  0.75000002  0.53996201  0.78996203  1
  C  C16  1  0.71003802  0.46003801  0.25000004  1
  C  C17  1  0.28996204  0.75000001  0.03996205  1
  C  C18  1  0.21003801  0.25000000  0.46003801  1
  C  C19  1  0.25000006  0.96003801  0.71003804  1
