# generated using pymatgen
data_CsNF5
_symmetry_space_group_name_H-M   'P 1'
_cell_length_a   6.87450600
_cell_length_b   6.87450600
_cell_length_c   6.87450600
_cell_angle_alpha   109.47122192
_cell_angle_beta   109.47122192
_cell_angle_gamma   109.47122192
_symmetry_Int_Tables_number   1
_chemical_formula_structural   CsNF5
_chemical_formula_sum   'Cs2 N2 F10'
_cell_volume   250.09359761
_cell_formula_units_Z   2
loop_
 _symmetry_equiv_pos_site_id
 _symmetry_equiv_pos_as_xyz
  1  'x, y, z'
loop_
 _atom_site_type_symbol
 _atom_site_label
 _atom_site_symmetry_multiplicity
 _atom_site_fract_x
 _atom_site_fract_y
 _atom_site_fract_z
 _atom_site_occupancy
  Cs  Cs0  1  0.50000008  1.00000007  0.00000007  1
  Cs  Cs1  1  0.50000005  0.50000003  0.50000005  1
  F  F2  1  0.00000003  0.50000003  0.00000003  1
  N  N3  1  0.00000000  0.00000000  0.50000001  1
  N  N4  1  0.00000000  0.00000000  0.00000000  1
  F  F5  1  0.50000008  1.00000007  0.50000008  1
  F  F6  1  0.50000005  0.50000003  1.00000007  1
  F  F7  1  0.00000003  0.50000003  0.50000004  1
  F  F8  1  0.67102202  0.00000000  0.67102203  1
  F  F9  1  0.32897808  1.00000007  0.32897807  1
  F  F10  1  0.67102207  0.67102205  0.00000005  1
  F  F11  1  0.32897803  0.32897802  1.00000005  1
  F  F12  1  0.00000002  0.32897802  0.32897803  1
  F  F13  1  0.00000004  0.67102205  0.67102206  1
