# generated using pymatgen
data_MgTl7
_symmetry_space_group_name_H-M   'P 1'
_cell_length_a   5.81642008
_cell_length_b   6.81650400
_cell_length_c   6.81650448
_cell_angle_alpha   60.00000000
_cell_angle_beta   90.00000000
_cell_angle_gamma   90.00000000
_symmetry_Int_Tables_number   1
_chemical_formula_structural   MgTl7
_chemical_formula_sum   'Mg1 Tl7'
_cell_volume   234.05063030
_cell_formula_units_Z   1
loop_
 _symmetry_equiv_pos_site_id
 _symmetry_equiv_pos_as_xyz
  1  'x, y, z'
loop_
 _atom_site_type_symbol
 _atom_site_label
 _atom_site_symmetry_multiplicity
 _atom_site_fract_x
 _atom_site_fract_y
 _atom_site_fract_z
 _atom_site_occupancy
  Mg  Mg0  1  0.25000000  0.33333334  0.33333332  1
  Tl  Tl1  1  0.74999999  0.66666668  0.66666663  1
  Tl  Tl2  1  0.74999999  0.66012801  0.16993598  1
  Tl  Tl3  1  0.74999999  0.16993600  0.16993599  1
  Tl  Tl4  1  0.74999999  0.16993600  0.66012798  1
  Tl  Tl5  1  0.25000000  0.33987201  0.83006397  1
  Tl  Tl6  1  0.25000000  0.83006401  0.83006395  1
  Tl  Tl7  1  0.25000000  0.83006401  0.33987197  1
