# generated using pymatgen
data_In3CuSe4
_symmetry_space_group_name_H-M   'P 1'
_cell_length_a   6.08468199
_cell_length_b   6.11594582
_cell_length_c   7.47533607
_cell_angle_alpha   114.14673615
_cell_angle_beta   114.01550293
_cell_angle_gamma   90.00000000
_symmetry_Int_Tables_number   1
_chemical_formula_structural   In3CuSe4
_chemical_formula_sum   'In3 Cu1 Se4'
_cell_volume   227.19683536
_cell_formula_units_Z   1
loop_
 _symmetry_equiv_pos_site_id
 _symmetry_equiv_pos_as_xyz
  1  'x, y, z'
loop_
 _atom_site_type_symbol
 _atom_site_label
 _atom_site_symmetry_multiplicity
 _atom_site_fract_x
 _atom_site_fract_y
 _atom_site_fract_z
 _atom_site_occupancy
  Cu  Cu0  1  0.86689896  0.61689900  0.73379795  1
  In  In1  1  0.63310095  0.88310099  0.26620192  1
  In  In2  1  0.36585999  0.11586000  0.73171999  1
  In  In3  1  0.13413998  0.38414000  0.26827997  1
  Se  Se4  1  0.24999997  0.46449700  -0.00000004  1
  Se  Se5  1  0.74999999  0.03550300  -0.00000002  1
  Se  Se6  1  0.02983996  0.74999999  0.49999995  1
  Se  Se7  1  0.47015998  0.25000000  0.49999998  1
