# generated using pymatgen
data_LaSi2
_symmetry_space_group_name_H-M   'P 1'
_cell_length_a   4.33245993
_cell_length_b   4.33245945
_cell_length_c   7.65723991
_cell_angle_alpha   90.00000000
_cell_angle_beta   90.00000000
_cell_angle_gamma   120.00000000
_symmetry_Int_Tables_number   1
_chemical_formula_structural   LaSi2
_chemical_formula_sum   'La2 Si4'
_cell_volume   124.47208005
_cell_formula_units_Z   2
loop_
 _symmetry_equiv_pos_site_id
 _symmetry_equiv_pos_as_xyz
  1  'x, y, z'
loop_
 _atom_site_type_symbol
 _atom_site_label
 _atom_site_symmetry_multiplicity
 _atom_site_fract_x
 _atom_site_fract_y
 _atom_site_fract_z
 _atom_site_occupancy
  La  La0  1  0.00000000  0.00000000  0.50050001  1
  La  La1  1  0.00000000  0.00000000  0.00050000  1
  Si  Si2  1  0.33333330  0.66666668  0.72376901  1
  Si  Si3  1  0.66666666  0.33333334  0.22376900  1
  Si  Si4  1  0.66666666  0.33333334  0.76673101  1
  Si  Si5  1  0.33333330  0.66666668  0.26673100  1
