# generated using pymatgen
data_Li5Mn(NiO4)2
_symmetry_space_group_name_H-M   'P 1'
_cell_length_a   2.96382189
_cell_length_b   6.11646891
_cell_length_c   11.28077221
_cell_angle_alpha   90.00000000
_cell_angle_beta   90.00000000
_cell_angle_gamma   90.00000000
_symmetry_Int_Tables_number   1
_chemical_formula_structural   Li5Mn(NiO4)2
_chemical_formula_sum   'Li5 Mn1 Ni2 O8'
_cell_volume   204.49924218
_cell_formula_units_Z   1
loop_
 _symmetry_equiv_pos_site_id
 _symmetry_equiv_pos_as_xyz
  1  'x, y, z'
loop_
 _atom_site_type_symbol
 _atom_site_label
 _atom_site_symmetry_multiplicity
 _atom_site_fract_x
 _atom_site_fract_y
 _atom_site_fract_z
 _atom_site_occupancy
  Li  Li0  1  0.28755101  0.23962000  0.10655400  1
  Li  Li1  1  0.78755103  0.26038000  0.89344598  1
  Li  Li2  1  0.71244903  0.73962001  0.39344599  1
  Li  Li3  1  0.21244901  0.76038001  0.60655399  1
  Li  Li4  1  0.66438903  0.23977600  0.61762699  1
  Mn  Mn5  1  0.16438901  0.26022400  0.38237299  1
  Ni  Ni6  1  0.33561101  0.73977601  0.88237298  1
  Ni  Ni7  1  0.83561103  0.76022401  0.11762700  1
  O  O8  1  0.28605401  0.07046800  0.95676398  1
  O  O9  1  0.78441203  0.09194000  0.19705600  1
  O  O10  1  0.28441201  0.40806001  0.80294399  1
  O  O11  1  0.78605403  0.42953201  0.04323600  1
  O  O12  1  0.71394603  0.57046801  0.54323599  1
  O  O13  1  0.21558801  0.59194001  0.30294399  1
  O  O14  1  0.71558803  0.90806001  0.69705599  1
  O  O15  1  0.21394601  0.92953201  0.45676399  1
