# generated using pymatgen
data_Tl2CuF5
_symmetry_space_group_name_H-M   'P 1'
_cell_length_a   5.56475210
_cell_length_b   5.56475210
_cell_length_c   5.56475210
_cell_angle_alpha   90.00000000
_cell_angle_beta   90.00000000
_cell_angle_gamma   90.00000000
_symmetry_Int_Tables_number   1
_chemical_formula_structural   Tl2CuF5
_chemical_formula_sum   'Tl2 Cu1 F5'
_cell_volume   172.32070651
_cell_formula_units_Z   1
loop_
 _symmetry_equiv_pos_site_id
 _symmetry_equiv_pos_as_xyz
  1  'x, y, z'
loop_
 _atom_site_type_symbol
 _atom_site_label
 _atom_site_symmetry_multiplicity
 _atom_site_fract_x
 _atom_site_fract_y
 _atom_site_fract_z
 _atom_site_occupancy
  Tl  Tl0  1  0.00000000  0.00000000  0.00000000  1
  Tl  Tl1  1  0.00000000  0.00000000  0.49999999  1
  Cu  Cu2  1  0.00000000  0.49999999  0.00000000  1
  F  F3  1  0.49999999  0.00000000  0.00000000  1
  F  F4  1  0.75949799  0.75949799  0.24050200  1
  F  F5  1  0.75949799  0.24050200  0.75949799  1
  F  F6  1  0.24050200  0.75949799  0.75949799  1
  F  F7  1  0.24050200  0.24050200  0.24050200  1
