# generated using pymatgen
data_NiSb
_symmetry_space_group_name_H-M   'P 1'
_cell_length_a   6.52372694
_cell_length_b   6.52372694
_cell_length_c   12.83391476
_cell_angle_alpha   90.00000000
_cell_angle_beta   90.00000000
_cell_angle_gamma   90.00000000
_symmetry_Int_Tables_number   1
_chemical_formula_structural   NiSb
_chemical_formula_sum   'Ni8 Sb8'
_cell_volume   546.19874741
_cell_formula_units_Z   8
loop_
 _symmetry_equiv_pos_site_id
 _symmetry_equiv_pos_as_xyz
  1  'x, y, z'
loop_
 _atom_site_type_symbol
 _atom_site_label
 _atom_site_symmetry_multiplicity
 _atom_site_fract_x
 _atom_site_fract_y
 _atom_site_fract_z
 _atom_site_occupancy
  Sb  Sb0  1  0.50000000  0.00000000  0.25231800  1
  Ni  Ni1  1  0.00000000  0.50000000  0.74768201  1
  Ni  Ni2  1  0.50000000  0.50000000  -0.00000000  1
  Ni  Ni3  1  0.00000000  0.00000000  0.50000001  1
  Ni  Ni4  1  0.50000000  0.50000000  0.50000001  1
  Ni  Ni5  1  0.00000000  0.50000000  0.25152600  1
  Ni  Ni6  1  0.50000000  0.00000000  0.74847401  1
  Ni  Ni7  1  0.00000000  0.00000000  0.00000000  1
  Sb  Sb8  1  0.73794801  0.26798800  0.38120101  1
  Ni  Ni9  1  0.24937600  0.75695301  0.87451402  1
  Sb  Sb10  1  0.26205200  0.73201201  0.38120101  1
  Sb  Sb11  1  0.75062401  0.24304700  0.87451402  1
  Sb  Sb12  1  0.24304700  0.24937600  0.12548600  1
  Sb  Sb13  1  0.73201201  0.73794801  0.61879901  1
  Sb  Sb14  1  0.75695301  0.75062401  0.12548600  1
  Sb  Sb15  1  0.26798800  0.26205200  0.61879901  1
