# generated using pymatgen
data_Mg3Tl
_symmetry_space_group_name_H-M   'P 1'
_cell_length_a   5.42436600
_cell_length_b   6.74753380
_cell_length_c   6.74753332
_cell_angle_alpha   120.00000000
_cell_angle_beta   90.00000000
_cell_angle_gamma   90.00000000
_symmetry_Int_Tables_number   1
_chemical_formula_structural   Mg3Tl
_chemical_formula_sum   'Mg6 Tl2'
_cell_volume   213.87977726
_cell_formula_units_Z   2
loop_
 _symmetry_equiv_pos_site_id
 _symmetry_equiv_pos_as_xyz
  1  'x, y, z'
loop_
 _atom_site_type_symbol
 _atom_site_label
 _atom_site_symmetry_multiplicity
 _atom_site_fract_x
 _atom_site_fract_y
 _atom_site_fract_z
 _atom_site_occupancy
  Mg  Mg0  1  0.25000000  0.66666666  0.33333328  1
  Mg  Mg1  1  0.75000000  0.33333333  0.66666664  1
  Mg  Mg2  1  0.75000000  0.83263399  0.16736694  1
  Mg  Mg3  1  0.75000000  0.33473300  0.16736697  1
  Mg  Mg4  1  0.75000000  0.83263399  0.66526793  1
  Mg  Mg5  1  0.25000000  0.16736600  0.83263298  1
  Tl  Tl6  1  0.25000000  0.66526700  0.83263294  1
  Tl  Tl7  1  0.25000000  0.16736600  0.33473198  1
