# generated using pymatgen
data_LiMn3O8
_symmetry_space_group_name_H-M   'P 1'
_cell_length_a   5.83144426
_cell_length_b   5.83144426
_cell_length_c   5.85424566
_cell_angle_alpha   60.12876129
_cell_angle_beta   60.12876129
_cell_angle_gamma   60.00000000
_symmetry_Int_Tables_number   1
_chemical_formula_structural   LiMn3O8
_chemical_formula_sum   'Li1 Mn3 O8'
_cell_volume   141.04272898
_cell_formula_units_Z   1
loop_
 _symmetry_equiv_pos_site_id
 _symmetry_equiv_pos_as_xyz
  1  'x, y, z'
loop_
 _atom_site_type_symbol
 _atom_site_label
 _atom_site_symmetry_multiplicity
 _atom_site_fract_x
 _atom_site_fract_y
 _atom_site_fract_z
 _atom_site_occupancy
  Li  Li0  1  0.00000002  0.49999998  0.00000000  1
  Mn  Mn1  1  0.50000000  0.49999998  0.00000001  1
  Mn  Mn2  1  0.49999999  0.00000000  0.00000001  1
  Mn  Mn3  1  0.50000000  0.49999998  0.50000001  1
  O  O4  1  0.26496800  0.26496799  0.20509601  1
  O  O5  1  0.26246401  0.70539998  0.76967201  1
  O  O6  1  0.26246400  0.26246399  0.76967201  1
  O  O7  1  0.70539999  0.26246399  0.76967202  1
  O  O8  1  0.29460001  0.73753597  0.23032801  1
  O  O9  1  0.73753600  0.73753597  0.23032801  1
  O  O10  1  0.73753599  0.29459999  0.23032801  1
  O  O11  1  0.73503200  0.73503197  0.79490402  1
