# generated using pymatgen
data_Ce(SiIr)2
_symmetry_space_group_name_H-M   'P 1'
_cell_length_a   4.27097702
_cell_length_b   4.27097702
_cell_length_c   9.54280758
_cell_angle_alpha   90.00000000
_cell_angle_beta   90.00000000
_cell_angle_gamma   90.00000000
_symmetry_Int_Tables_number   1
_chemical_formula_structural   Ce(SiIr)2
_chemical_formula_sum   'Ce2 Si4 Ir4'
_cell_volume   174.07268825
_cell_formula_units_Z   2
loop_
 _symmetry_equiv_pos_site_id
 _symmetry_equiv_pos_as_xyz
  1  'x, y, z'
loop_
 _atom_site_type_symbol
 _atom_site_label
 _atom_site_symmetry_multiplicity
 _atom_site_fract_x
 _atom_site_fract_y
 _atom_site_fract_z
 _atom_site_occupancy
  Ce  Ce0  1  -0.00000000  0.50000000  0.74755903  1
  Ce  Ce1  1  0.50000000  0.00000000  0.25244101  1
  Si  Si2  1  -0.00000000  0.50000000  0.11641101  1
  Si  Si3  1  0.00000000  0.00000000  0.50000002  1
  Si  Si4  1  0.50000000  0.00000000  0.88358904  1
  Si  Si5  1  0.50000000  0.50000000  0.50000002  1
  Ir  Ir6  1  -0.00000000  0.50000000  0.37106202  1
  Ir  Ir7  1  0.00000000  0.00000000  0.00000000  1
  Ir  Ir8  1  0.50000000  0.00000000  0.62893803  1
  Ir  Ir9  1  0.50000000  0.50000000  0.00000000  1
