# generated using pymatgen
data_CuAg4Sn2BiS12
_symmetry_space_group_name_H-M   'P 1'
_cell_length_a   4.75782204
_cell_length_b   9.83098412
_cell_length_c   14.37214088
_cell_angle_alpha   90.00000000
_cell_angle_beta   90.00000000
_cell_angle_gamma   90.75728607
_symmetry_Int_Tables_number   1
_chemical_formula_structural   CuAg4Sn2BiS12
_chemical_formula_sum   'Cu1 Ag4 Sn2 Bi1 S12'
_cell_volume   672.18484784
_cell_formula_units_Z   1
loop_
 _symmetry_equiv_pos_site_id
 _symmetry_equiv_pos_as_xyz
  1  'x, y, z'
loop_
 _atom_site_type_symbol
 _atom_site_label
 _atom_site_symmetry_multiplicity
 _atom_site_fract_x
 _atom_site_fract_y
 _atom_site_fract_z
 _atom_site_occupancy
  Ag  Ag0  1  0.24278596  0.53670998  0.84957901  1
  Ag  Ag1  1  0.75721393  0.96328996  0.34957900  1
  Ag  Ag2  1  0.75721396  0.46328998  0.15042100  1
  Ag  Ag3  1  0.24278600  0.03671000  0.65042101  1
  Cu  Cu4  1  0.64150697  0.35137898  0.45976000  1
  Bi  Bi5  1  0.64150693  0.85137896  0.04024000  1
  Sn  Sn6  1  0.35849299  0.14862099  0.95976001  1
  Sn  Sn7  1  0.35849295  0.64862097  0.54024000  1
  S  S8  1  0.52756399  0.06124000  0.09706900  1
  S  S9  1  0.47243596  0.43875998  0.59706900  1
  S  S10  1  0.77940997  0.27756499  0.31974100  1
  S  S11  1  0.74134498  0.15169699  0.53040700  1
  S  S12  1  0.25865494  0.84830296  0.46959300  1
  S  S13  1  0.77940994  0.77756497  0.18025900  1
  S  S14  1  0.47243593  0.93875996  0.90293101  1
  S  S15  1  0.74134495  0.65169697  0.96959301  1
  S  S16  1  0.22058998  0.22243499  0.81974101  1
  S  S17  1  0.52756396  0.56123998  0.40293100  1
  S  S18  1  0.22058995  0.72243497  0.68025901  1
  S  S19  1  0.25865497  0.34830298  0.03040700  1
