# generated using pymatgen
data_Be
_symmetry_space_group_name_H-M   'P 1'
_cell_length_a   3.47135305
_cell_length_b   3.71929693
_cell_length_c   3.71929693
_cell_angle_alpha   104.93095398
_cell_angle_beta   90.00000000
_cell_angle_gamma   90.00000000
_symmetry_Int_Tables_number   1
_chemical_formula_structural   Be
_chemical_formula_sum   Be4
_cell_volume   46.39852383
_cell_formula_units_Z   4
loop_
 _symmetry_equiv_pos_site_id
 _symmetry_equiv_pos_as_xyz
  1  'x, y, z'
loop_
 _atom_site_type_symbol
 _atom_site_label
 _atom_site_symmetry_multiplicity
 _atom_site_fract_x
 _atom_site_fract_y
 _atom_site_fract_z
 _atom_site_occupancy
  Be  Be0  1  -0.00000000  0.99544101  0.00455894  1
  Be  Be1  1  0.49999999  0.38698600  0.61301399  1
  Be  Be2  1  0.49999999  0.85637001  0.45379696  1
  Be  Be3  1  0.49999999  0.54620301  0.14362997  1
