# generated using pymatgen
data_Hf5ZrNi13
_symmetry_space_group_name_H-M   'P 1'
_cell_length_a   6.42017221
_cell_length_b   6.42017221
_cell_length_c   6.42017221
_cell_angle_alpha   82.88037872
_cell_angle_beta   82.88037872
_cell_angle_gamma   82.88037109
_symmetry_Int_Tables_number   1
_chemical_formula_structural   Hf5ZrNi13
_chemical_formula_sum   'Hf5 Zr1 Ni13'
_cell_volume   258.97634557
_cell_formula_units_Z   1
loop_
 _symmetry_equiv_pos_site_id
 _symmetry_equiv_pos_as_xyz
  1  'x, y, z'
loop_
 _atom_site_type_symbol
 _atom_site_label
 _atom_site_symmetry_multiplicity
 _atom_site_fract_x
 _atom_site_fract_y
 _atom_site_fract_z
 _atom_site_occupancy
  Hf  Hf0  1  0.34092100  0.34092102  0.34092098  1
  Zr  Zr1  1  0.65765299  0.65765303  0.65765297  1
  Hf  Hf2  1  0.00434000  0.00434000  0.49307800  1
  Hf  Hf3  1  0.49307802  0.00434000  0.00433999  1
  Hf  Hf4  1  0.00433997  0.49307802  0.00433999  1
  Hf  Hf5  1  0.90595199  0.90595204  0.90595195  1
  Ni  Ni6  1  0.28476897  0.71572303  0.00016998  1
  Ni  Ni7  1  0.00016998  0.28476901  0.71572299  1
  Ni  Ni8  1  0.71572303  0.00017000  0.28476898  1
  Ni  Ni9  1  0.00016996  0.71572303  0.28476898  1
  Ni  Ni10  1  0.28476901  0.00017000  0.71572299  1
  Ni  Ni11  1  0.71572301  0.28476901  0.00016997  1
  Ni  Ni12  1  0.65762199  0.65762203  0.15724597  1
  Ni  Ni13  1  0.15724597  0.65762203  0.65762198  1
  Ni  Ni14  1  0.65762202  0.15724601  0.65762198  1
  Ni  Ni15  1  0.34207200  0.34207202  0.83900498  1
  Ni  Ni16  1  0.83900502  0.34207202  0.34207197  1
  Ni  Ni17  1  0.34207197  0.83900504  0.34207197  1
  Ni  Ni18  1  0.09675100  0.09675100  0.09675100  1
