# generated using pymatgen
data_Ce2GaPd3
_symmetry_space_group_name_H-M   'P 1'
_cell_length_a   4.44555902
_cell_length_b   7.23380995
_cell_length_c   7.50866985
_cell_angle_alpha   90.00000000
_cell_angle_beta   90.00000000
_cell_angle_gamma   90.00000000
_symmetry_Int_Tables_number   1
_chemical_formula_structural   Ce2GaPd3
_chemical_formula_sum   'Ce4 Ga2 Pd6'
_cell_volume   241.46627623
_cell_formula_units_Z   2
loop_
 _symmetry_equiv_pos_site_id
 _symmetry_equiv_pos_as_xyz
  1  'x, y, z'
loop_
 _atom_site_type_symbol
 _atom_site_label
 _atom_site_symmetry_multiplicity
 _atom_site_fract_x
 _atom_site_fract_y
 _atom_site_fract_z
 _atom_site_occupancy
  Ce  Ce0  1  0.75000000  0.00689600  0.69619301  1
  Ce  Ce1  1  0.25000000  0.99310401  0.30380701  1
  Ce  Ce2  1  0.75000000  0.50689600  0.80380702  1
  Ce  Ce3  1  0.25000000  0.49310400  0.19619300  1
  Ga  Ga4  1  0.75000000  0.68019200  0.41674101  1
  Ga  Ga5  1  0.25000000  0.31980800  0.58325901  1
  Pd  Pd6  1  0.75000000  0.18019200  0.08325900  1
  Pd  Pd7  1  0.25000000  0.81980801  0.91674102  1
  Pd  Pd8  1  0.75000000  0.80204001  0.09241000  1
  Pd  Pd9  1  0.25000000  0.19796000  0.90759002  1
  Pd  Pd10  1  0.75000000  0.30204000  0.40759001  1
  Pd  Pd11  1  0.25000000  0.69796001  0.59241001  1
