# generated using pymatgen
data_LiMoWO3
_symmetry_space_group_name_H-M   'P 1'
_cell_length_a   3.11815310
_cell_length_b   4.64407587
_cell_length_c   4.74356508
_cell_angle_alpha   90.00000000
_cell_angle_beta   90.00000000
_cell_angle_gamma   90.00000000
_symmetry_Int_Tables_number   1
_chemical_formula_structural   LiMoWO3
_chemical_formula_sum   'Li1 Mo1 W1 O3'
_cell_volume   68.69127921
_cell_formula_units_Z   1
loop_
 _symmetry_equiv_pos_site_id
 _symmetry_equiv_pos_as_xyz
  1  'x, y, z'
loop_
 _atom_site_type_symbol
 _atom_site_label
 _atom_site_symmetry_multiplicity
 _atom_site_fract_x
 _atom_site_fract_y
 _atom_site_fract_z
 _atom_site_occupancy
  Li  Li0  1  0.00000000  0.00000000  0.00000000  1
  Mo  Mo1  1  0.49999998  0.50000001  0.49999999  1
  W  W2  1  0.00000000  0.28800701  0.31989399  1
  O  O3  1  0.49999998  0.21199301  0.81989399  1
  O  O4  1  0.00000000  0.71199302  0.68010599  1
  O  O5  1  0.49999998  0.78800702  0.18010600  1
