# generated using pymatgen
data_NaBe3(CN3)2
_symmetry_space_group_name_H-M   'P 1'
_cell_length_a   4.20129395
_cell_length_b   5.30136013
_cell_length_c   5.30136061
_cell_angle_alpha   60.00000381
_cell_angle_beta   90.00000000
_cell_angle_gamma   90.00000000
_symmetry_Int_Tables_number   1
_chemical_formula_structural   NaBe3(CN3)2
_chemical_formula_sum   'Na1 Be3 C2 N6'
_cell_volume   102.25589890
_cell_formula_units_Z   1
loop_
 _symmetry_equiv_pos_site_id
 _symmetry_equiv_pos_as_xyz
  1  'x, y, z'
loop_
 _atom_site_type_symbol
 _atom_site_label
 _atom_site_symmetry_multiplicity
 _atom_site_fract_x
 _atom_site_fract_y
 _atom_site_fract_z
 _atom_site_occupancy
  Na  Na0  1  0.10385100  0.66666665  0.66666666  1
  Be  Be1  1  0.50051401  0.17676999  0.17677000  1
  Be  Be2  1  0.50051401  0.17676999  0.64645999  1
  Be  Be3  1  0.50051401  0.64645998  0.17677001  1
  N  N4  1  0.95055601  0.00000000  -0.00000000  1
  C  C5  1  0.98373701  0.33333332  0.33333333  1
  N  N6  1  0.11305700  0.16260499  0.16260600  1
  N  N7  1  0.11305700  0.16260499  0.67478999  1
  N  N8  1  0.11305700  0.67478898  0.16260601  1
  N  N9  1  0.63846801  0.84368797  0.84368899  1
  C  C10  1  0.63846801  0.84368797  0.31262401  1
  N  N11  1  0.63846801  0.31262299  0.84368899  1
