# generated using pymatgen
data_Li3VO4
_symmetry_space_group_name_H-M   'P 1'
_cell_length_a   4.06750011
_cell_length_b   5.45938015
_cell_length_c   5.94371033
_cell_angle_alpha   92.11358643
_cell_angle_beta   95.11260223
_cell_angle_gamma   90.52818298
_symmetry_Int_Tables_number   1
_chemical_formula_structural   Li3VO4
_chemical_formula_sum   'Li3 V1 O4'
_cell_volume   131.36129322
_cell_formula_units_Z   1
loop_
 _symmetry_equiv_pos_site_id
 _symmetry_equiv_pos_as_xyz
  1  'x, y, z'
loop_
 _atom_site_type_symbol
 _atom_site_label
 _atom_site_symmetry_multiplicity
 _atom_site_fract_x
 _atom_site_fract_y
 _atom_site_fract_z
 _atom_site_occupancy
  Li  Li0  1  0.49999999  0.00000000  0.00000000  1
  Li  Li1  1  0.49999996  0.49999998  0.50000001  1
  Li  Li2  1  0.00000000  0.00000000  0.49999999  1
  V  V3  1  -0.00000003  0.49999998  0.00000002  1
  O  O4  1  0.70176994  0.71637998  0.79078002  1
  O  O5  1  0.66086994  0.78810997  0.29347003  1
  O  O6  1  0.29822998  0.28361999  0.20922001  1
  O  O7  1  0.33912998  0.21188999  0.70653000  1
