# generated using pymatgen
data_DyY2TmAl4
_symmetry_space_group_name_H-M   'P 1'
_cell_length_a   4.85632706
_cell_length_b   6.37366819
_cell_length_c   6.37366772
_cell_angle_alpha   120.00000000
_cell_angle_beta   90.00000000
_cell_angle_gamma   90.00000000
_symmetry_Int_Tables_number   1
_chemical_formula_structural   DyY2TmAl4
_chemical_formula_sum   'Dy1 Y2 Tm1 Al4'
_cell_volume   170.85096187
_cell_formula_units_Z   1
loop_
 _symmetry_equiv_pos_site_id
 _symmetry_equiv_pos_as_xyz
  1  'x, y, z'
loop_
 _atom_site_type_symbol
 _atom_site_label
 _atom_site_symmetry_multiplicity
 _atom_site_fract_x
 _atom_site_fract_y
 _atom_site_fract_z
 _atom_site_occupancy
  Tm  Tm0  1  0.25000000  0.66666663  0.33333331  1
  Dy  Dy1  1  0.74999999  0.33333332  0.66666665  1
  Y  Y2  1  0.74999999  0.84084196  0.15915897  1
  Y  Y3  1  0.74999999  0.31831698  0.15915899  1
  Al  Al4  1  0.74999999  0.84084196  0.68168396  1
  Al  Al5  1  0.25000000  0.15915799  0.84084099  1
  Al  Al6  1  0.25000000  0.68168297  0.84084097  1
  Al  Al7  1  0.25000000  0.15915799  0.31831599  1
