# generated using pymatgen
data_K6LiEu(InBi2)2
_symmetry_space_group_name_H-M   'P 1'
_cell_length_a   8.15299511
_cell_length_b   8.16468430
_cell_length_c   8.16468430
_cell_angle_alpha   70.46131134
_cell_angle_beta   70.53179932
_cell_angle_gamma   109.46820068
_symmetry_Int_Tables_number   1
_chemical_formula_structural   K6LiEu(InBi2)2
_chemical_formula_sum   'K6 Li1 Eu1 In2 Bi4'
_cell_volume   418.06541496
_cell_formula_units_Z   1
loop_
 _symmetry_equiv_pos_site_id
 _symmetry_equiv_pos_as_xyz
  1  'x, y, z'
loop_
 _atom_site_type_symbol
 _atom_site_label
 _atom_site_symmetry_multiplicity
 _atom_site_fract_x
 _atom_site_fract_y
 _atom_site_fract_z
 _atom_site_occupancy
  Li  Li0  1  0.99991505  0.64188105  0.50011688  1
  K  K1  1  0.49991512  0.99988308  0.85811888  1
  K  K2  1  0.49979812  0.99935908  0.35744887  1
  K  K3  1  0.85808608  0.85732407  0.14235587  1
  K  K4  1  0.64235904  0.49979604  0.99961292  1
  K  K5  1  0.99979799  0.14255101  0.50064093  1
  K  K6  1  0.35808604  0.35764403  0.64267595  1
  Eu  Eu7  1  0.14235906  0.50038704  0.00020394  1
  In  In8  1  0.24916601  0.12773401  0.12486397  1
  Bi  Bi9  1  0.74916602  0.37513603  0.37226592  1
  Bi  Bi10  1  0.37615707  0.62287805  0.25061092  1
  In  In11  1  0.12452011  0.87583107  0.74979191  1
  Bi  Bi12  1  0.62452008  0.75020806  0.62416889  1
  Bi  Bi13  1  0.87615700  0.24938902  0.87712193  1
