# generated using pymatgen
data_LaNd4SnGe2P2O9
_symmetry_space_group_name_H-M   'P 1'
_cell_length_a   3.76259804
_cell_length_b   6.89146852
_cell_length_c   14.64305496
_cell_angle_alpha   79.57974243
_cell_angle_beta   82.61839294
_cell_angle_gamma   74.15776062
_symmetry_Int_Tables_number   1
_chemical_formula_structural   LaNd4SnGe2P2O9
_chemical_formula_sum   'La1 Nd4 Sn1 Ge2 P2 O9'
_cell_volume   357.98813227
_cell_formula_units_Z   1
loop_
 _symmetry_equiv_pos_site_id
 _symmetry_equiv_pos_as_xyz
  1  'x, y, z'
loop_
 _atom_site_type_symbol
 _atom_site_label
 _atom_site_symmetry_multiplicity
 _atom_site_fract_x
 _atom_site_fract_y
 _atom_site_fract_z
 _atom_site_occupancy
  Nd  Nd0  1  0.45434301  0.25988900  0.83094901  1
  Nd  Nd1  1  0.54518103  0.74011100  0.16905102  1
  Nd  Nd2  1  0.64341500  0.14407000  0.56911200  1
  Nd  Nd3  1  0.35659704  0.85593000  0.43088802  1
  Sn  Sn4  1  0.87786202  0.59190300  0.65250401  1
  La  La5  1  0.12226902  0.40809700  0.34749601  1
  Ge  Ge6  1  0.72055802  0.64813500  0.91155002  1
  Ge  Ge7  1  0.28024301  0.35186500  0.08845001  1
  P  P8  1  0.17049204  0.92391500  0.73331703  1
  O  O9  1  0.82772400  0.07608500  0.26668300  1
  P  P10  1  0.04699400  0.00000000  -0.00000000  1
  O  O11  1  0.29803002  0.47364800  0.93373302  1
  O  O12  1  0.70541102  0.52635200  0.06626701  1
  O  O13  1  0.88382001  0.43603900  0.79813001  1
  O  O14  1  0.11798903  0.56396100  0.20187002  1
  O  O15  1  0.16463601  0.18438600  0.48595201  1
  O  O16  1  0.83497403  0.81561400  0.51404802  1
  O  O17  1  0.46967602  0.42967600  0.63083501  1
  O  O18  1  0.53018702  0.57032400  0.36916501  1
