# generated using pymatgen
data_KFeO3
_symmetry_space_group_name_H-M   'P 1'
_cell_length_a   5.61229086
_cell_length_b   5.90076303
_cell_length_c   12.54641342
_cell_angle_alpha   90.00000000
_cell_angle_beta   90.00000000
_cell_angle_gamma   90.00000000
_symmetry_Int_Tables_number   1
_chemical_formula_structural   KFeO3
_chemical_formula_sum   'K4 Fe4 O12'
_cell_volume   415.49704446
_cell_formula_units_Z   4
loop_
 _symmetry_equiv_pos_site_id
 _symmetry_equiv_pos_as_xyz
  1  'x, y, z'
loop_
 _atom_site_type_symbol
 _atom_site_label
 _atom_site_symmetry_multiplicity
 _atom_site_fract_x
 _atom_site_fract_y
 _atom_site_fract_z
 _atom_site_occupancy
  K  K0  1  0.08583500  0.75000000  0.40147199  1
  K  K1  1  0.08583500  0.25000000  0.09852800  1
  K  K2  1  0.91416502  0.25000000  0.59852798  1
  K  K3  1  0.91416502  0.75000000  0.90147197  1
  Fe  Fe4  1  0.54888401  0.75000000  0.17283699  1
  Fe  Fe5  1  0.54888401  0.25000000  0.32716299  1
  Fe  Fe6  1  0.45111601  0.25000000  0.82716297  1
  Fe  Fe7  1  0.45111601  0.75000000  0.67283698  1
  O  O8  1  0.84499702  0.75000000  0.15360899  1
  O  O9  1  0.84499702  0.25000000  0.34639099  1
  O  O10  1  0.15500300  0.25000000  0.84639097  1
  O  O11  1  0.15500300  0.75000000  0.65360898  1
  O  O12  1  0.40811801  0.75000000  0.05568300  1
  O  O13  1  0.40811801  0.25000000  0.44431699  1
  O  O14  1  0.59188101  0.25000000  0.94431697  1
  O  O15  1  0.59188101  0.75000000  0.55568298  1
  O  O16  1  0.45730301  0.00000000  0.24999999  1
  O  O17  1  0.54269701  0.50000000  0.74999997  1
  O  O18  1  0.54269701  0.00000000  0.74999997  1
  O  O19  1  0.45730301  0.50000000  0.24999999  1
