# generated using pymatgen
data_Ce2Sb2HF
_symmetry_space_group_name_H-M   'P 1'
_cell_length_a   3.83252597
_cell_length_b   3.83252621
_cell_length_c   14.50820732
_cell_angle_alpha   90.00000000
_cell_angle_beta   90.00000000
_cell_angle_gamma   120.00000000
_symmetry_Int_Tables_number   1
_chemical_formula_structural   Ce2Sb2HF
_chemical_formula_sum   'Ce2 Sb2 H1 F1'
_cell_volume   184.55024419
_cell_formula_units_Z   1
loop_
 _symmetry_equiv_pos_site_id
 _symmetry_equiv_pos_as_xyz
  1  'x, y, z'
loop_
 _atom_site_type_symbol
 _atom_site_label
 _atom_site_symmetry_multiplicity
 _atom_site_fract_x
 _atom_site_fract_y
 _atom_site_fract_z
 _atom_site_occupancy
  Ce  Ce0  1  0.00000000  0.00000000  0.49999999  1
  Ce  Ce1  1  0.00000000  0.00000000  0.00000000  1
  Sb  Sb2  1  0.66666668  0.33333333  0.12197000  1
  Sb  Sb3  1  0.66666668  0.33333333  0.62867999  1
  F  F4  1  0.33333335  0.66666666  0.37131999  1
  H  H5  1  0.33333335  0.66666666  0.87802998  1
