# generated using pymatgen
data_Ce2Mg
_symmetry_space_group_name_H-M   'P 1'
_cell_length_a   4.89173603
_cell_length_b   4.89173603
_cell_length_c   10.93482208
_cell_angle_alpha   102.92509460
_cell_angle_beta   102.92509460
_cell_angle_gamma   90.00000000
_symmetry_Int_Tables_number   1
_chemical_formula_structural   Ce2Mg
_chemical_formula_sum   'Ce4 Mg2'
_cell_volume   248.22404294
_cell_formula_units_Z   2
loop_
 _symmetry_equiv_pos_site_id
 _symmetry_equiv_pos_as_xyz
  1  'x, y, z'
loop_
 _atom_site_type_symbol
 _atom_site_label
 _atom_site_symmetry_multiplicity
 _atom_site_fract_x
 _atom_site_fract_y
 _atom_site_fract_z
 _atom_site_occupancy
  Ce  Ce0  1  0.66475401  0.66475400  0.32950802  1
  Ce  Ce1  1  0.00000000  0.00000000  0.00000000  1
  Ce  Ce2  1  0.33524601  0.33524600  0.67049200  1
  Ce  Ce3  1  0.83331602  0.83331600  0.66663202  1
  Mg  Mg4  1  0.16668400  0.16668400  0.33336800  1
  Mg  Mg5  1  0.50000001  0.50000000  1.00000000  1
