# generated using pymatgen
data_Tl2SnO5
_symmetry_space_group_name_H-M   'P 1'
_cell_length_a   7.16241980
_cell_length_b   7.16241980
_cell_length_c   7.16241980
_cell_angle_alpha   109.47122192
_cell_angle_beta   109.47122192
_cell_angle_gamma   109.47122192
_symmetry_Int_Tables_number   1
_chemical_formula_structural   Tl2SnO5
_chemical_formula_sum   'Tl4 Sn2 O10'
_cell_volume   282.85079516
_cell_formula_units_Z   2
loop_
 _symmetry_equiv_pos_site_id
 _symmetry_equiv_pos_as_xyz
  1  'x, y, z'
loop_
 _atom_site_type_symbol
 _atom_site_label
 _atom_site_symmetry_multiplicity
 _atom_site_fract_x
 _atom_site_fract_y
 _atom_site_fract_z
 _atom_site_occupancy
  Tl  Tl0  1  0.00000000  0.00000000  0.50000000  1
  Tl  Tl1  1  0.50000007  1.00000004  1.00000007  1
  Tl  Tl2  1  0.00000003  0.50000002  0.00000003  1
  Tl  Tl3  1  0.50000004  0.50000002  0.50000004  1
  O  O4  1  0.84801502  0.18922201  0.34120703  1
  O  O5  1  0.81077805  0.65879303  0.15198506  1
  Sn  Sn6  1  0.15198503  0.49319202  0.34120703  1
  Sn  Sn7  1  0.84801504  0.50680802  0.65879305  1
  O  O8  1  0.50680805  0.65879303  0.84801505  1
  O  O9  1  0.34120706  0.84801503  0.18922206  1
  O  O10  1  0.65879302  0.15198501  0.81077802  1
  O  O11  1  0.34120701  0.15198501  0.49319202  1
  O  O12  1  0.49319203  0.34120701  0.15198503  1
  O  O13  1  0.15198505  0.81077803  0.65879305  1
  O  O14  1  0.18922202  0.34120701  0.84801502  1
  O  O15  1  0.65879306  0.84801503  0.50680806  1
