# generated using pymatgen
data_La(MgGa2)3
_symmetry_space_group_name_H-M   'P 1'
_cell_length_a   4.66160917
_cell_length_b   4.66160917
_cell_length_c   13.35286427
_cell_angle_alpha   90.00000000
_cell_angle_beta   90.00000000
_cell_angle_gamma   90.00000000
_symmetry_Int_Tables_number   1
_chemical_formula_structural   La(MgGa2)3
_chemical_formula_sum   'La1 Mg3 Ga6'
_cell_volume   290.16575328
_cell_formula_units_Z   1
loop_
 _symmetry_equiv_pos_site_id
 _symmetry_equiv_pos_as_xyz
  1  'x, y, z'
loop_
 _atom_site_type_symbol
 _atom_site_label
 _atom_site_symmetry_multiplicity
 _atom_site_fract_x
 _atom_site_fract_y
 _atom_site_fract_z
 _atom_site_occupancy
  Mg  Mg0  1  0.49999998  0.00000000  0.75100599  1
  La  La1  1  0.00000000  0.49999998  0.24899400  1
  Mg  Mg2  1  0.00000000  0.00000000  0.49999999  1
  Mg  Mg3  1  0.00000000  0.00000000  0.00000000  1
  Ga  Ga4  1  0.49999998  0.49999998  0.49999999  1
  Ga  Ga5  1  0.49999998  0.00000000  0.14318200  1
  Ga  Ga6  1  0.00000000  0.49999998  0.64006299  1
  Ga  Ga7  1  0.00000000  0.49999998  0.85681798  1
  Ga  Ga8  1  0.49999998  0.00000000  0.35993699  1
  Ga  Ga9  1  0.49999998  0.49999998  0.00000000  1
