# generated using pymatgen
data_NdSn
_symmetry_space_group_name_H-M   'P 1'
_cell_length_a   6.70408821
_cell_length_b   8.93149757
_cell_length_c   8.93149757
_cell_angle_alpha   120.00000000
_cell_angle_beta   90.00000000
_cell_angle_gamma   90.00000000
_symmetry_Int_Tables_number   1
_chemical_formula_structural   NdSn
_chemical_formula_sum   'Nd8 Sn8'
_cell_volume   463.14706997
_cell_formula_units_Z   8
loop_
 _symmetry_equiv_pos_site_id
 _symmetry_equiv_pos_as_xyz
  1  'x, y, z'
loop_
 _atom_site_type_symbol
 _atom_site_label
 _atom_site_symmetry_multiplicity
 _atom_site_fract_x
 _atom_site_fract_y
 _atom_site_fract_z
 _atom_site_occupancy
  Nd  Nd0  1  -0.00000000  0.33333335  0.66666668  1
  Nd  Nd1  1  -0.00000000  0.66666670  0.33333334  1
  Nd  Nd2  1  0.49999998  0.66666670  0.33333334  1
  Nd  Nd3  1  0.49999998  0.33333335  0.66666668  1
  Nd  Nd4  1  0.24999999  0.23691301  1.00000003  1
  Nd  Nd5  1  0.24999999  0.76308703  0.76308702  1
  Nd  Nd6  1  0.24999999  0.00000000  0.23691301  1
  Nd  Nd7  1  0.74999998  0.76308703  -0.00000001  1
  Sn  Sn8  1  0.74999998  0.23691301  0.23691301  1
  Sn  Sn9  1  0.74999998  1.00000004  0.76308701  1
  Sn  Sn10  1  0.24999999  0.59906003  1.00000003  1
  Sn  Sn11  1  0.24999999  0.40094002  0.40094001  1
  Sn  Sn12  1  0.24999999  0.00000000  0.59906002  1
  Sn  Sn13  1  0.74999998  0.40094002  1.00000003  1
  Sn  Sn14  1  0.74999998  0.59906003  0.59906001  1
  Sn  Sn15  1  0.74999998  1.00000004  0.40094000  1
