# generated using pymatgen
data_CaSn2
_symmetry_space_group_name_H-M   'P 1'
_cell_length_a   4.93857479
_cell_length_b   7.57694006
_cell_length_c   9.37899399
_cell_angle_alpha   90.00000000
_cell_angle_beta   90.00000000
_cell_angle_gamma   90.00000000
_symmetry_Int_Tables_number   1
_chemical_formula_structural   CaSn2
_chemical_formula_sum   'Ca4 Sn8'
_cell_volume   350.95525066
_cell_formula_units_Z   4
loop_
 _symmetry_equiv_pos_site_id
 _symmetry_equiv_pos_as_xyz
  1  'x, y, z'
loop_
 _atom_site_type_symbol
 _atom_site_label
 _atom_site_symmetry_multiplicity
 _atom_site_fract_x
 _atom_site_fract_y
 _atom_site_fract_z
 _atom_site_occupancy
  Ca  Ca0  1  0.25000001  0.51739700  0.81885000  1
  Ca  Ca1  1  0.25000001  0.01739700  0.68115000  1
  Ca  Ca2  1  0.75000003  0.48260300  0.18115000  1
  Ca  Ca3  1  0.75000003  0.98260299  0.31885000  1
  Sn  Sn4  1  0.25000001  0.65871299  0.42073200  1
  Sn  Sn5  1  0.25000001  0.15871300  0.07926800  1
  Sn  Sn6  1  0.75000003  0.34128700  0.57926800  1
  Sn  Sn7  1  0.75000003  0.84128699  0.92073200  1
  Sn  Sn8  1  0.25000001  0.74723199  0.10084000  1
  Sn  Sn9  1  0.25000001  0.24723200  0.39916000  1
  Sn  Sn10  1  0.75000003  0.25276800  0.89916000  1
  Sn  Sn11  1  0.75000003  0.75276799  0.60084000  1
