# generated using pymatgen
data_CeSi4
_symmetry_space_group_name_H-M   'P 1'
_cell_length_a   4.16948986
_cell_length_b   4.16948986
_cell_length_c   5.96158838
_cell_angle_alpha   110.46873474
_cell_angle_beta   110.46873474
_cell_angle_gamma   90.00000000
_symmetry_Int_Tables_number   1
_chemical_formula_structural   CeSi4
_chemical_formula_sum   'Ce1 Si4'
_cell_volume   90.07899763
_cell_formula_units_Z   1
loop_
 _symmetry_equiv_pos_site_id
 _symmetry_equiv_pos_as_xyz
  1  'x, y, z'
loop_
 _atom_site_type_symbol
 _atom_site_label
 _atom_site_symmetry_multiplicity
 _atom_site_fract_x
 _atom_site_fract_y
 _atom_site_fract_z
 _atom_site_occupancy
  Ce  Ce0  1  0.00000000  0.00000000  0.00000000  1
  Si  Si1  1  0.75000001  0.25000000  0.49999997  1
  Si  Si2  1  0.24999998  0.75000001  0.49999996  1
  Si  Si3  1  0.63897999  0.63898001  0.27795996  1
  Si  Si4  1  0.36101900  0.36101901  0.72203797  1
