# generated using pymatgen
data_Li2MgO2
_symmetry_space_group_name_H-M   'P 1'
_cell_length_a   6.19661379
_cell_length_b   6.19661379
_cell_length_c   6.60442114
_cell_angle_alpha   62.02240753
_cell_angle_beta   62.02240753
_cell_angle_gamma   60.00000000
_symmetry_Int_Tables_number   1
_chemical_formula_structural   Li2MgO2
_chemical_formula_sum   'Li4 Mg2 O4'
_cell_volume   184.60736111
_cell_formula_units_Z   2
loop_
 _symmetry_equiv_pos_site_id
 _symmetry_equiv_pos_as_xyz
  1  'x, y, z'
loop_
 _atom_site_type_symbol
 _atom_site_label
 _atom_site_symmetry_multiplicity
 _atom_site_fract_x
 _atom_site_fract_y
 _atom_site_fract_z
 _atom_site_occupancy
  Li  Li0  1  0.75000004  0.44990902  0.74999997  1
  Li  Li1  1  0.05009101  0.75000003  0.74999998  1
  Li  Li2  1  0.44990902  0.05009100  0.74999999  1
  Li  Li3  1  0.94990905  0.25000001  0.24999997  1
  Mg  Mg4  1  0.25000002  0.55009102  0.24999998  1
  Mg  Mg5  1  0.55009104  0.94990904  0.24999996  1
  O  O6  1  0.85347505  0.85347503  0.43957495  1
  O  O7  1  0.64652604  0.64652603  0.06042196  1
  O  O8  1  0.14652501  0.14652501  0.56042399  1
  O  O9  1  0.35347502  0.35347501  0.93957598  1
