# generated using pymatgen
data_Li2HfTiO6
_symmetry_space_group_name_H-M   'P 1'
_cell_length_a   5.41668892
_cell_length_b   5.82385588
_cell_length_c   7.74525881
_cell_angle_alpha   90.00000000
_cell_angle_beta   90.73351288
_cell_angle_gamma   90.00000000
_symmetry_Int_Tables_number   1
_chemical_formula_structural   Li2HfTiO6
_chemical_formula_sum   'Li4 Hf2 Ti2 O12'
_cell_volume   244.31203281
_cell_formula_units_Z   2
loop_
 _symmetry_equiv_pos_site_id
 _symmetry_equiv_pos_as_xyz
  1  'x, y, z'
loop_
 _atom_site_type_symbol
 _atom_site_label
 _atom_site_symmetry_multiplicity
 _atom_site_fract_x
 _atom_site_fract_y
 _atom_site_fract_z
 _atom_site_occupancy
  Li  Li0  1  0.00000000  0.00000000  0.00000000  1
  Li  Li1  1  0.50000001  0.50000001  0.49999998  1
  Li  Li2  1  0.48056701  0.92510902  0.25170999  1
  Li  Li3  1  0.01943300  0.42510801  0.24829000  1
  Ti  Ti4  1  0.98056701  0.57489101  0.75170997  1
  Hf  Hf5  1  0.51943301  0.07489100  0.74828998  1
  Ti  Ti6  1  0.50000001  0.50000001  -0.00000001  1
  Hf  Hf7  1  0.00000000  1.00000002  0.49999999  1
  O  O8  1  0.17596500  0.70914101  0.44132999  1
  O  O9  1  0.32403500  0.20914100  0.05866999  1
  O  O10  1  0.82403501  0.29085901  0.55866998  1
  O  O11  1  0.67596501  0.79085902  0.94132997  1
  O  O12  1  0.10938600  0.96186602  0.74392899  1
  O  O13  1  0.39061401  0.46186601  0.75607098  1
  O  O14  1  0.19973900  0.68284901  0.05169500  1
  O  O15  1  0.30026100  0.18284900  0.44830499  1
  O  O16  1  0.80026101  0.31715101  0.94830497  1
  O  O17  1  0.69973901  0.81715102  0.55169498  1
  O  O18  1  0.60938601  0.53813401  0.24392898  1
  O  O19  1  0.89061401  0.03813400  0.25607098  1
