# generated using pymatgen
data_K9Li
_symmetry_space_group_name_H-M   'P 1'
_cell_length_a   7.26020336
_cell_length_b   7.26020336
_cell_length_c   9.42025757
_cell_angle_alpha   110.86109924
_cell_angle_beta   110.86109924
_cell_angle_gamma   94.35275269
_symmetry_Int_Tables_number   1
_chemical_formula_structural   K9Li
_chemical_formula_sum   'K9 Li1'
_cell_volume   421.73508492
_cell_formula_units_Z   1
loop_
 _symmetry_equiv_pos_site_id
 _symmetry_equiv_pos_as_xyz
  1  'x, y, z'
loop_
 _atom_site_type_symbol
 _atom_site_label
 _atom_site_symmetry_multiplicity
 _atom_site_fract_x
 _atom_site_fract_y
 _atom_site_fract_z
 _atom_site_occupancy
  Li  Li0  1  0.74999998  0.25000000  0.49999997  1
  K  K1  1  0.24999992  0.74999999  0.49999995  1
  K  K2  1  0.73161898  0.26838100  -0.00000004  1
  K  K3  1  0.26838092  0.73161899  -0.00000006  1
  K  K4  1  0.13669299  0.13669300  0.84922500  1
  K  K5  1  0.28746797  0.28746800  0.15077497  1
  K  K6  1  0.86330692  0.86330699  0.15077492  1
  K  K7  1  0.71253193  0.71253199  0.84922495  1
  K  K8  1  0.84832492  0.84832499  0.69664993  1
  K  K9  1  0.15167499  0.15167500  0.30334999  1
