# generated using pymatgen
data_CeAlSi4
_symmetry_space_group_name_H-M   'P 1'
_cell_length_a   5.41101027
_cell_length_b   5.41101027
_cell_length_c   5.41101027
_cell_angle_alpha   104.54056549
_cell_angle_beta   104.54056549
_cell_angle_gamma   119.85912323
_symmetry_Int_Tables_number   1
_chemical_formula_structural   CeAlSi4
_chemical_formula_sum   'Ce1 Al1 Si4'
_cell_volume   118.90563278
_cell_formula_units_Z   1
loop_
 _symmetry_equiv_pos_site_id
 _symmetry_equiv_pos_as_xyz
  1  'x, y, z'
loop_
 _atom_site_type_symbol
 _atom_site_label
 _atom_site_symmetry_multiplicity
 _atom_site_fract_x
 _atom_site_fract_y
 _atom_site_fract_z
 _atom_site_occupancy
  Ce  Ce0  1  0.24999998  0.24999998  -0.00000003  1
  Al  Al1  1  0.74999993  0.74999995  -0.00000008  1
  Si  Si2  1  0.33626198  0.16373799  0.49999996  1
  Si  Si3  1  0.66373794  0.83626194  0.49999990  1
  Si  Si4  1  0.16373797  0.66373795  0.82747592  1
  Si  Si5  1  0.83626195  0.33626198  0.17252393  1
