# generated using pymatgen
data_Ba4LaNd7Sn5Ru3
_symmetry_space_group_name_H-M   'P 1'
_cell_length_a   9.04849815
_cell_length_b   9.04849815
_cell_length_c   9.04849815
_cell_angle_alpha   109.47122192
_cell_angle_beta   109.47122192
_cell_angle_gamma   109.47122192
_symmetry_Int_Tables_number   1
_chemical_formula_structural   Ba4LaNd7Sn5Ru3
_chemical_formula_sum   'Ba4 La1 Nd7 Sn5 Ru3'
_cell_volume   570.30554587
_cell_formula_units_Z   1
loop_
 _symmetry_equiv_pos_site_id
 _symmetry_equiv_pos_as_xyz
  1  'x, y, z'
loop_
 _atom_site_type_symbol
 _atom_site_label
 _atom_site_symmetry_multiplicity
 _atom_site_fract_x
 _atom_site_fract_y
 _atom_site_fract_z
 _atom_site_occupancy
  Ba  Ba0  1  0.87500004  0.12500001  0.75000005  1
  Ba  Ba1  1  0.62500005  0.37500003  0.25000004  1
  Ba  Ba2  1  0.12500002  0.25000002  0.37500003  1
  Ba  Ba3  1  0.37500006  0.75000005  0.12500005  1
  Nd  Nd4  1  0.75000007  0.62500004  0.87500008  1
  Nd  Nd5  1  0.25000006  0.87500006  0.62500007  1
  Nd  Nd6  1  1.00000007  0.50000003  0.67413207  1
  La  La7  1  0.32586803  0.32586802  0.82586805  1
  Nd  Nd8  1  0.50000003  0.17413201  0.50000004  1
  Nd  Nd9  1  0.17413201  0.00000000  1.00000003  1
  Nd  Nd10  1  0.82586808  0.82586806  0.32586808  1
  Nd  Nd11  1  0.00000003  0.50000003  0.17413203  1
  Sn  Sn12  1  0.50000006  0.67413205  0.50000006  1
  Sn  Sn13  1  0.67413203  0.00000000  1.00000005  1
  Sn  Sn14  1  0.37500005  0.62500004  0.75000007  1
  Sn  Sn15  1  0.12500006  0.87500006  0.25000006  1
  Sn  Sn16  1  0.62500004  0.25000002  0.87500005  1
  Ru  Ru17  1  0.87500008  0.75000005  0.62500008  1
  Ru  Ru18  1  0.75000004  0.12500001  0.37500004  1
  Ru  Ru19  1  0.25000003  0.37500003  0.12500003  1
