# generated using pymatgen
data_Li3MnO6
_symmetry_space_group_name_H-M   'P 1'
_cell_length_a   5.84096193
_cell_length_b   5.86586857
_cell_length_c   10.11454201
_cell_angle_alpha   73.70473480
_cell_angle_beta   73.34157562
_cell_angle_gamma   60.40620041
_symmetry_Int_Tables_number   1
_chemical_formula_structural   Li3MnO6
_chemical_formula_sum   'Li6 Mn2 O12'
_cell_volume   284.64474082
_cell_formula_units_Z   2
loop_
 _symmetry_equiv_pos_site_id
 _symmetry_equiv_pos_as_xyz
  1  'x, y, z'
loop_
 _atom_site_type_symbol
 _atom_site_label
 _atom_site_symmetry_multiplicity
 _atom_site_fract_x
 _atom_site_fract_y
 _atom_site_fract_z
 _atom_site_occupancy
  Li  Li0  1  0.62732698  0.62625301  0.12455001  1
  Li  Li1  1  0.12225800  0.12305400  0.62482098  1
  Li  Li2  1  0.87270397  0.87371702  0.37542600  1
  Li  Li3  1  0.37782999  0.37685701  0.87516398  1
  Li  Li4  1  0.74984797  0.75012602  0.74998999  1
  Li  Li5  1  0.24982599  0.25025701  0.25012400  1
  Mn  Mn6  1  0.49611598  0.49791101  0.50013899  1
  Mn  Mn7  1  0.00389400  0.00208600  0.99986097  1
  O  O8  1  0.84874899  0.37968101  0.38184300  1
  O  O9  1  0.36318296  0.88397002  0.88025698  1
  O  O10  1  0.12545600  0.12224500  0.11939100  1
  O  O11  1  0.61271298  0.61603501  0.61874799  1
  O  O12  1  0.37454899  0.37774101  0.38059699  1
  O  O13  1  0.88729697  0.88391802  0.88122999  1
  O  O14  1  0.65129700  0.12027700  0.11814501  1
  O  O15  1  0.13688098  0.61597001  0.61972898  1
  O  O16  1  0.12295397  0.65032601  0.11730600  1
  O  O17  1  0.61126399  0.14497600  0.61798399  1
  O  O18  1  0.37706197  0.84961402  0.38268800  1
  O  O19  1  0.88879199  0.35498501  0.88200798  1
