# generated using pymatgen
data_DyErInCoSn2
_symmetry_space_group_name_H-M   'P 1'
_cell_length_a   5.20768595
_cell_length_b   5.33812618
_cell_length_c   5.33812618
_cell_angle_alpha   76.23551178
_cell_angle_beta   60.80508423
_cell_angle_gamma   60.80508423
_symmetry_Int_Tables_number   1
_chemical_formula_structural   DyErInCoSn2
_chemical_formula_sum   'Dy1 Er1 In1 Co1 Sn2'
_cell_volume   113.08798954
_cell_formula_units_Z   1
loop_
 _symmetry_equiv_pos_site_id
 _symmetry_equiv_pos_as_xyz
  1  'x, y, z'
loop_
 _atom_site_type_symbol
 _atom_site_label
 _atom_site_symmetry_multiplicity
 _atom_site_fract_x
 _atom_site_fract_y
 _atom_site_fract_z
 _atom_site_occupancy
  Dy  Dy0  1  0.08881104  0.82237798  0.49999997  1
  Er  Er1  1  0.41118901  0.17762200  0.50000000  1
  In  In2  1  0.91118902  0.49999999  0.17762201  1
  Sn  Sn3  1  0.58881102  0.49999999  0.82237799  1
  Co  Co4  1  0.50000004  0.99999997  -0.00000002  1
  Sn  Sn5  1  0.00000000  0.00000000  0.00000000  1
