# generated using pymatgen
data_Li3FeO4
_symmetry_space_group_name_H-M   'P 1'
_cell_length_a   4.91479397
_cell_length_b   5.01048183
_cell_length_c   5.69598484
_cell_angle_alpha   73.08050537
_cell_angle_beta   89.68936920
_cell_angle_gamma   80.12362671
_symmetry_Int_Tables_number   1
_chemical_formula_structural   Li3FeO4
_chemical_formula_sum   'Li6 Fe2 O8'
_cell_volume   132.05875333
_cell_formula_units_Z   2
loop_
 _symmetry_equiv_pos_site_id
 _symmetry_equiv_pos_as_xyz
  1  'x, y, z'
loop_
 _atom_site_type_symbol
 _atom_site_label
 _atom_site_symmetry_multiplicity
 _atom_site_fract_x
 _atom_site_fract_y
 _atom_site_fract_z
 _atom_site_occupancy
  Li  Li0  1  0.73627298  0.49682999  0.88002498  1
  Li  Li1  1  0.25639298  0.49720499  0.63058597  1
  Li  Li2  1  0.74360698  0.50279499  0.36941399  1
  Li  Li3  1  0.26372698  0.50316999  0.11997498  1
  Li  Li4  1  0.50000000  0.00000000  1.00000000  1
  Li  Li5  1  0.99524196  0.99892298  0.75362997  1
  Fe  Fe6  1  0.00475800  0.00107700  0.24637000  1
  Fe  Fe7  1  0.50000000  0.00000000  0.50000001  1
  O  O8  1  0.89713197  0.77673198  0.05339699  1
  O  O9  1  0.35787197  0.77381398  0.79606496  1
  O  O10  1  0.87029897  0.78387698  0.55186298  1
  O  O11  1  0.35374497  0.77856098  0.32097297  1
  O  O12  1  0.64625499  0.22143900  0.67902700  1
  O  O13  1  0.12970099  0.21612300  0.44813699  1
  O  O14  1  0.64212799  0.22618600  0.20393500  1
  O  O15  1  0.10286799  0.22326800  0.94660298  1
