# generated using pymatgen
data_NdHfAlRu3
_symmetry_space_group_name_H-M   'P 1'
_cell_length_a   5.36112690
_cell_length_b   5.36112690
_cell_length_c   5.38599539
_cell_angle_alpha   60.15262222
_cell_angle_beta   60.15262222
_cell_angle_gamma   59.99998856
_symmetry_Int_Tables_number   1
_chemical_formula_structural   NdHfAlRu3
_chemical_formula_sum   'Nd1 Hf1 Al1 Ru3'
_cell_volume   109.71377051
_cell_formula_units_Z   1
loop_
 _symmetry_equiv_pos_site_id
 _symmetry_equiv_pos_as_xyz
  1  'x, y, z'
loop_
 _atom_site_type_symbol
 _atom_site_label
 _atom_site_symmetry_multiplicity
 _atom_site_fract_x
 _atom_site_fract_y
 _atom_site_fract_z
 _atom_site_occupancy
  Hf  Hf0  1  0.12480600  0.12480600  0.62558197  1
  Nd  Nd1  1  0.87519400  0.87519400  0.37441798  1
  Al  Al2  1  -0.00000000  0.50000000  -0.00000000  1
  Ru  Ru3  1  0.50000000  0.00000000  -0.00000000  1
  Ru  Ru4  1  0.50000000  0.50000000  -0.00000000  1
  Ru  Ru5  1  0.50000000  0.50000000  0.49999998  1
