# generated using pymatgen
data_CsBa2BiC2
_symmetry_space_group_name_H-M   'P 1'
_cell_length_a   3.79300499
_cell_length_b   3.79300499
_cell_length_c   10.47834873
_cell_angle_alpha   90.00000000
_cell_angle_beta   90.00000000
_cell_angle_gamma   90.00000000
_symmetry_Int_Tables_number   1
_chemical_formula_structural   CsBa2BiC2
_chemical_formula_sum   'Cs1 Ba2 Bi1 C2'
_cell_volume   150.75081760
_cell_formula_units_Z   1
loop_
 _symmetry_equiv_pos_site_id
 _symmetry_equiv_pos_as_xyz
  1  'x, y, z'
loop_
 _atom_site_type_symbol
 _atom_site_label
 _atom_site_symmetry_multiplicity
 _atom_site_fract_x
 _atom_site_fract_y
 _atom_site_fract_z
 _atom_site_occupancy
  Ba  Ba0  1  -0.00000000  0.50000000  0.30278801  1
  Cs  Cs1  1  0.50000000  0.00000000  0.69721202  1
  Ba  Ba2  1  0.50000000  0.50000000  0.00000000  1
  Bi  Bi3  1  0.00000000  0.00000000  0.00000000  1
  C  C4  1  -0.00000000  0.50000000  0.87767702  1
  C  C5  1  0.50000000  0.00000000  0.12232300  1
