# generated using pymatgen
data_Nd2Ni17
_symmetry_space_group_name_H-M   'P 1'
_cell_length_a   6.35841799
_cell_length_b   6.35841799
_cell_length_c   6.35841894
_cell_angle_alpha   82.80871582
_cell_angle_beta   82.80871582
_cell_angle_gamma   82.80871582
_symmetry_Int_Tables_number   1
_chemical_formula_structural   Nd2Ni17
_chemical_formula_sum   'Nd2 Ni17'
_cell_volume   251.46826287
_cell_formula_units_Z   1
loop_
 _symmetry_equiv_pos_site_id
 _symmetry_equiv_pos_as_xyz
  1  'x, y, z'
loop_
 _atom_site_type_symbol
 _atom_site_label
 _atom_site_symmetry_multiplicity
 _atom_site_fract_x
 _atom_site_fract_y
 _atom_site_fract_z
 _atom_site_occupancy
  Nd  Nd0  1  0.35244403  0.35244401  0.35244398  1
  Nd  Nd1  1  0.64755606  0.64755601  0.64755596  1
  Ni  Ni2  1  0.10547001  0.10547000  0.10546999  1
  Ni  Ni3  1  0.89453008  0.89453002  0.89452994  1
  Ni  Ni4  1  0.00000000  0.00000000  0.50000000  1
  Ni  Ni5  1  0.50000001  0.00000000  -0.00000001  1
  Ni  Ni6  1  0.00000003  0.50000001  -0.00000002  1
  Ni  Ni7  1  0.28917605  0.71082402  -0.00000003  1
  Ni  Ni8  1  0.00000002  0.28917601  0.71082399  1
  Ni  Ni9  1  0.71082402  0.00000000  0.28917598  1
  Ni  Ni10  1  0.00000004  0.71082402  0.28917597  1
  Ni  Ni11  1  0.28917601  0.00000000  0.71082399  1
  Ni  Ni12  1  0.71082404  0.28917601  -0.00000003  1
  Ni  Ni13  1  0.64968406  0.64968401  0.14924696  1
  Ni  Ni14  1  0.14924704  0.64968401  0.64968397  1
  Ni  Ni15  1  0.64968403  0.14924700  0.64968397  1
  Ni  Ni16  1  0.35031603  0.35031601  0.85075298  1
  Ni  Ni17  1  0.85075305  0.35031601  0.35031596  1
  Ni  Ni18  1  0.35031606  0.85075302  0.35031596  1
