# generated using pymatgen
data_Li3MnO5
_symmetry_space_group_name_H-M   'P 1'
_cell_length_a   5.57277536
_cell_length_b   5.57277536
_cell_length_c   7.27697468
_cell_angle_alpha   71.21733856
_cell_angle_beta   71.21733856
_cell_angle_gamma   73.49857330
_symmetry_Int_Tables_number   1
_chemical_formula_structural   Li3MnO5
_chemical_formula_sum   'Li6 Mn2 O10'
_cell_volume   198.42002810
_cell_formula_units_Z   2
loop_
 _symmetry_equiv_pos_site_id
 _symmetry_equiv_pos_as_xyz
  1  'x, y, z'
loop_
 _atom_site_type_symbol
 _atom_site_label
 _atom_site_symmetry_multiplicity
 _atom_site_fract_x
 _atom_site_fract_y
 _atom_site_fract_z
 _atom_site_occupancy
  Li  Li0  1  0.33777200  0.33777200  0.16043300  1
  Li  Li1  1  0.66219299  0.66219300  0.32919100  1
  Li  Li2  1  0.33780700  0.33780700  0.67080899  1
  Li  Li3  1  0.66222799  0.66222800  0.83956699  1
  Li  Li4  1  0.00000000  0.00000000  0.00000000  1
  Li  Li5  1  0.00000000  0.00000000  0.49999999  1
  O  O6  1  0.97170699  0.36767500  0.33070600  1
  Mn  Mn7  1  0.63232500  0.02829300  0.66929399  1
  Mn  Mn8  1  0.76885999  0.76886000  0.03521801  1
  O  O9  1  0.10200800  0.10200800  0.70499698  1
  O  O10  1  0.43466199  0.43466200  0.37080900  1
  O  O11  1  0.89799199  0.89799200  0.29500301  1
  O  O12  1  0.23114000  0.23114000  0.96478198  1
  O  O13  1  0.56533799  0.56533800  0.62919099  1
  O  O14  1  0.69571199  0.30428800  0.00000001  1
  O  O15  1  0.36767499  0.97170700  0.33070600  1
  O  O16  1  0.02829299  0.63232500  0.66929399  1
  O  O17  1  0.30428799  0.69571200  0.99999998  1
