# generated using pymatgen
data_NdGe3
_symmetry_space_group_name_H-M   'P 1'
_cell_length_a   4.03478384
_cell_length_b   4.16875982
_cell_length_c   8.55806160
_cell_angle_alpha   104.09660339
_cell_angle_beta   90.00000000
_cell_angle_gamma   90.00000000
_symmetry_Int_Tables_number   1
_chemical_formula_structural   NdGe3
_chemical_formula_sum   'Nd2 Ge6'
_cell_volume   139.61222547
_cell_formula_units_Z   2
loop_
 _symmetry_equiv_pos_site_id
 _symmetry_equiv_pos_as_xyz
  1  'x, y, z'
loop_
 _atom_site_type_symbol
 _atom_site_label
 _atom_site_symmetry_multiplicity
 _atom_site_fract_x
 _atom_site_fract_y
 _atom_site_fract_z
 _atom_site_occupancy
  Nd  Nd0  1  0.75000003  0.39298102  0.78596200  1
  Nd  Nd1  1  0.25000001  0.60701903  0.21403801  1
  Ge  Ge2  1  0.75000003  0.04141600  0.08283200  1
  Ge  Ge3  1  0.25000001  0.95858405  0.91716800  1
  Ge  Ge4  1  0.75000003  0.74948804  0.49897600  1
  Ge  Ge5  1  0.25000001  0.25051201  0.50102400  1
  Ge  Ge6  1  0.75000003  0.18056101  0.36112200  1
  Ge  Ge7  1  0.25000001  0.81943904  0.63887800  1
