# generated using pymatgen
data_YVSnO6
_symmetry_space_group_name_H-M   'P 1'
_cell_length_a   3.91976404
_cell_length_b   5.55607414
_cell_length_c   6.79552269
_cell_angle_alpha   114.12973022
_cell_angle_beta   106.76265717
_cell_angle_gamma   90.00000000
_symmetry_Int_Tables_number   1
_chemical_formula_structural   YVSnO6
_chemical_formula_sum   'Y1 V1 Sn1 O6'
_cell_volume   128.14292438
_cell_formula_units_Z   1
loop_
 _symmetry_equiv_pos_site_id
 _symmetry_equiv_pos_as_xyz
  1  'x, y, z'
loop_
 _atom_site_type_symbol
 _atom_site_label
 _atom_site_symmetry_multiplicity
 _atom_site_fract_x
 _atom_site_fract_y
 _atom_site_fract_z
 _atom_site_occupancy
  V  V0  1  0.33227199  0.33227200  0.66454402  1
  Y  Y1  1  0.66772799  0.66772800  0.33545602  1
  Sn  Sn2  1  0.00000000  0.00000000  0.00000000  1
  O  O3  1  0.17139600  0.42863700  0.34279202  1
  O  O4  1  0.49999999  0.73511800  1.00000004  1
  O  O5  1  0.82860398  0.08584500  0.65720799  1
  O  O6  1  0.17139600  0.91415500  0.34279205  1
  O  O7  1  0.49999999  0.26488200  0.00000000  1
  O  O8  1  0.82860398  0.57136300  0.65720802  1
