# generated using pymatgen
data_LiBMo2C
_symmetry_space_group_name_H-M   'P 1'
_cell_length_a   3.55627608
_cell_length_b   3.55627608
_cell_length_c   5.39741421
_cell_angle_alpha   109.23494720
_cell_angle_beta   109.23494720
_cell_angle_gamma   90.00000000
_symmetry_Int_Tables_number   1
_chemical_formula_structural   LiBMo2C
_chemical_formula_sum   'Li1 B1 Mo2 C1'
_cell_volume   60.40036734
_cell_formula_units_Z   1
loop_
 _symmetry_equiv_pos_site_id
 _symmetry_equiv_pos_as_xyz
  1  'x, y, z'
loop_
 _atom_site_type_symbol
 _atom_site_label
 _atom_site_symmetry_multiplicity
 _atom_site_fract_x
 _atom_site_fract_y
 _atom_site_fract_z
 _atom_site_occupancy
  Li  Li0  1  0.00000000  0.00000000  0.00000000  1
  Mo  Mo1  1  0.75000000  0.25000000  0.50000006  1
  Mo  Mo2  1  0.25000003  0.75000000  0.50000006  1
  B  B3  1  0.34475201  0.34475200  0.68950406  1
  C  C4  1  0.65524802  0.65524800  0.31049607  1
