# generated using pymatgen
data_Na3B2NO8
_symmetry_space_group_name_H-M   'P 1'
_cell_length_a   4.33942795
_cell_length_b   4.33942699
_cell_length_c   10.76299572
_cell_angle_alpha   90.00000000
_cell_angle_beta   90.00000000
_cell_angle_gamma   120.00000763
_symmetry_Int_Tables_number   1
_chemical_formula_structural   Na3B2NO8
_chemical_formula_sum   'Na3 B2 N1 O8'
_cell_volume   175.52081786
_cell_formula_units_Z   1
loop_
 _symmetry_equiv_pos_site_id
 _symmetry_equiv_pos_as_xyz
  1  'x, y, z'
loop_
 _atom_site_type_symbol
 _atom_site_label
 _atom_site_symmetry_multiplicity
 _atom_site_fract_x
 _atom_site_fract_y
 _atom_site_fract_z
 _atom_site_occupancy
  Na  Na0  1  0.66666669  0.33333336  0.75000002  1
  Na  Na1  1  0.33333336  0.66666671  0.25000001  1
  Na  Na2  1  0.66663103  0.66663105  -0.00000000  1
  B  B3  1  0.33333335  0.33333336  -0.00000000  1
  B  B4  1  0.00000001  0.33336902  1.00000003  1
  N  N5  1  0.33333335  0.33333336  0.50000001  1
  O  O6  1  0.00000002  0.66666671  1.00000003  1
  O  O7  1  0.66663103  0.66663105  0.50000001  1
  O  O8  1  0.33333334  0.00000000  0.00000000  1
  O  O9  1  0.00000002  0.66666671  0.50000001  1
  O  O10  1  0.66663101  0.00000000  -0.00000000  1
  O  O11  1  0.00000001  0.33336902  0.50000001  1
  O  O12  1  0.66663101  0.00000000  0.50000001  1
  O  O13  1  0.33333334  0.00000000  0.50000001  1
