# generated using pymatgen
data_Ca4Sn5
_symmetry_space_group_name_H-M   'P 1'
_cell_length_a   7.93409014
_cell_length_b   8.56985664
_cell_length_c   7.94436121
_cell_angle_alpha   90.00000000
_cell_angle_beta   90.00000000
_cell_angle_gamma   117.57483673
_symmetry_Int_Tables_number   1
_chemical_formula_structural   Ca4Sn5
_chemical_formula_sum   'Ca8 Sn10'
_cell_volume   478.80957794
_cell_formula_units_Z   2
loop_
 _symmetry_equiv_pos_site_id
 _symmetry_equiv_pos_as_xyz
  1  'x, y, z'
loop_
 _atom_site_type_symbol
 _atom_site_label
 _atom_site_symmetry_multiplicity
 _atom_site_fract_x
 _atom_site_fract_y
 _atom_site_fract_z
 _atom_site_occupancy
  Ca  Ca0  1  0.96316898  0.25535701  0.66371398  1
  Ca  Ca1  1  0.03683100  0.74464304  0.33628599  1
  Ca  Ca2  1  0.53683099  0.74464304  0.16371400  1
  Ca  Ca3  1  0.20781200  0.74464304  0.83628598  1
  Ca  Ca4  1  0.46316899  0.25535701  0.83628598  1
  Ca  Ca5  1  0.79218799  0.25535701  0.16371400  1
  Ca  Ca6  1  0.29218799  0.25535701  0.33628599  1
  Ca  Ca7  1  0.70781199  0.74464304  0.66371398  1
  Sn  Sn8  1  0.00000000  0.00000000  0.00000000  1
  Sn  Sn9  1  0.49999999  1.00000005  0.49999999  1
  Sn  Sn10  1  0.63827799  1.00000005  0.86295498  1
  Sn  Sn11  1  0.36172199  1.00000005  0.13704500  1
  Sn  Sn12  1  0.86172198  1.00000005  0.36295499  1
  Sn  Sn13  1  0.13827800  1.00000005  0.63704498  1
  Sn  Sn14  1  0.20484700  0.40969402  -0.00000000  1
  Sn  Sn15  1  0.79515299  0.59030603  -0.00000000  1
  Sn  Sn16  1  0.29515299  0.59030603  0.49999999  1
  Sn  Sn17  1  0.70484699  0.40969402  0.49999999  1
