# generated using pymatgen
data_Ce2Al2Si3Ir4Ru
_symmetry_space_group_name_H-M   'P 1'
_cell_length_a   4.80771589
_cell_length_b   4.80771589
_cell_length_c   7.90994501
_cell_angle_alpha   90.00000000
_cell_angle_beta   90.00000000
_cell_angle_gamma   120.00000000
_symmetry_Int_Tables_number   1
_chemical_formula_structural   Ce2Al2Si3Ir4Ru
_chemical_formula_sum   'Ce2 Al2 Si3 Ir4 Ru1'
_cell_volume   158.33673568
_cell_formula_units_Z   1
loop_
 _symmetry_equiv_pos_site_id
 _symmetry_equiv_pos_as_xyz
  1  'x, y, z'
loop_
 _atom_site_type_symbol
 _atom_site_label
 _atom_site_symmetry_multiplicity
 _atom_site_fract_x
 _atom_site_fract_y
 _atom_site_fract_z
 _atom_site_occupancy
  Ce  Ce0  1  0.66666667  0.33333333  0.93660600  1
  Ce  Ce1  1  0.33333333  0.66666665  0.43660600  1
  Al  Al2  1  0.33333333  0.66666665  0.06339400  1
  Al  Al3  1  0.66666667  0.33333333  0.56339400  1
  Si  Si4  1  0.00000000  0.00000000  0.00000000  1
  Si  Si5  1  0.00000000  0.00000000  0.50000000  1
  Si  Si6  1  0.17185499  0.82814398  0.75000000  1
  Ir  Ir7  1  0.82814500  0.65628999  0.25000000  1
  Ir  Ir8  1  0.34371100  0.17185600  0.25000000  1
  Ru  Ru9  1  0.65628900  0.82814398  0.75000000  1
  Ir  Ir10  1  0.17185500  0.34370999  0.75000000  1
  Ir  Ir11  1  0.82814502  0.17185600  0.25000000  1
