# generated using pymatgen
data_Al3Fe10
_symmetry_space_group_name_H-M   'P 1'
_cell_length_a   4.69543505
_cell_length_b   6.46278667
_cell_length_c   6.46278667
_cell_angle_alpha   82.78162384
_cell_angle_beta   68.69902802
_cell_angle_gamma   68.69902039
_symmetry_Int_Tables_number   1
_chemical_formula_structural   Al3Fe10
_chemical_formula_sum   'Al3 Fe10'
_cell_volume   170.23240841
_cell_formula_units_Z   1
loop_
 _symmetry_equiv_pos_site_id
 _symmetry_equiv_pos_as_xyz
  1  'x, y, z'
loop_
 _atom_site_type_symbol
 _atom_site_label
 _atom_site_symmetry_multiplicity
 _atom_site_fract_x
 _atom_site_fract_y
 _atom_site_fract_z
 _atom_site_occupancy
  Al  Al0  1  0.99999994  0.99382103  0.00617899  1
  Fe  Fe1  1  0.49999995  0.76940703  0.23059299  1
  Fe  Fe2  1  0.49999999  0.22700401  0.77299596  1
  Al  Al3  1  0.72373796  0.77779303  0.77473097  1
  Al  Al4  1  0.27626199  0.22526901  0.22220699  1
  Fe  Fe5  1  0.00025094  0.99867203  0.50083301  1
  Fe  Fe6  1  0.50024494  0.99867203  0.50083299  1
  Fe  Fe7  1  0.49975597  0.49916702  0.00132799  1
  Fe  Fe8  1  0.99974998  0.49916702  0.00132798  1
  Fe  Fe9  1  0.99999997  0.64403202  0.35596797  1
  Fe  Fe10  1  0.64141998  0.35838901  0.35877097  1
  Fe  Fe11  1  0.35857996  0.64122902  0.64161098  1
  Fe  Fe12  1  0.99999998  0.36737801  0.63262195  1
