# generated using pymatgen
data_Hf8NiGe5
_symmetry_space_group_name_H-M   'P 1'
_cell_length_a   5.25324202
_cell_length_b   7.63695431
_cell_length_c   7.63695431
_cell_angle_alpha   83.20647430
_cell_angle_beta   69.88316345
_cell_angle_gamma   69.88316345
_symmetry_Int_Tables_number   1
_chemical_formula_structural   Hf8NiGe5
_chemical_formula_sum   'Hf8 Ni1 Ge5'
_cell_volume   270.14237395
_cell_formula_units_Z   1
loop_
 _symmetry_equiv_pos_site_id
 _symmetry_equiv_pos_as_xyz
  1  'x, y, z'
loop_
 _atom_site_type_symbol
 _atom_site_label
 _atom_site_symmetry_multiplicity
 _atom_site_fract_x
 _atom_site_fract_y
 _atom_site_fract_z
 _atom_site_occupancy
  Hf  Hf0  1  0.90609003  0.68781901  0.50000000  1
  Hf  Hf1  1  0.40609103  0.50000001  0.68781801  1
  Hf  Hf2  1  0.59390902  0.50000001  0.31218200  1
  Hf  Hf3  1  0.09391002  0.31218100  0.50000000  1
  Hf  Hf4  1  0.10072204  0.68171101  0.11684598  1
  Hf  Hf5  1  0.21756705  0.88315401  0.68171199  1
  Hf  Hf6  1  0.78243300  0.11684600  0.31828802  1
  Hf  Hf7  1  0.89927801  0.31828900  0.88315403  1
  Ni  Ni8  1  0.28243202  0.31828900  0.11684600  1
  Ge  Ge9  1  0.71756803  0.68171101  0.88315401  1
  Ge  Ge10  1  0.60072100  0.11684600  0.68171202  1
  Ge  Ge11  1  0.39927905  0.88315401  0.31828798  1
  Ge  Ge12  1  0.75000005  1.00000002  1.00000000  1
  Ge  Ge13  1  0.25000006  1.00000002  0.99999999  1
