# generated using pymatgen
data_CsK(MnBr3)2
_symmetry_space_group_name_H-M   'P 1'
_cell_length_a   7.35034657
_cell_length_b   7.35034657
_cell_length_c   7.35034657
_cell_angle_alpha   60.00000000
_cell_angle_beta   60.00000000
_cell_angle_gamma   60.00000000
_symmetry_Int_Tables_number   1
_chemical_formula_structural   CsK(MnBr3)2
_chemical_formula_sum   'Cs1 K1 Mn2 Br6'
_cell_volume   280.80733715
_cell_formula_units_Z   1
loop_
 _symmetry_equiv_pos_site_id
 _symmetry_equiv_pos_as_xyz
  1  'x, y, z'
loop_
 _atom_site_type_symbol
 _atom_site_label
 _atom_site_symmetry_multiplicity
 _atom_site_fract_x
 _atom_site_fract_y
 _atom_site_fract_z
 _atom_site_occupancy
  Cs  Cs0  1  0.25000000  0.25000000  0.25000000  1
  K  K1  1  0.75000001  0.75000001  0.75000001  1
  Mn  Mn2  1  0.00000000  0.00000000  0.00000000  1
  Mn  Mn3  1  0.50000001  0.50000001  0.50000001  1
  Br  Br4  1  0.25621301  0.74378701  0.25621301  1
  Br  Br5  1  0.25621301  0.25621301  0.74378701  1
  Br  Br6  1  0.74378701  0.25621301  0.74378701  1
  Br  Br7  1  0.25621301  0.74378701  0.74378701  1
  Br  Br8  1  0.74378701  0.25621301  0.25621301  1
  Br  Br9  1  0.74378701  0.74378701  0.25621301  1
