# generated using pymatgen
data_ZrTiNi2B(IrRu2)3
_symmetry_space_group_name_H-M   'P 1'
_cell_length_a   3.59341788
_cell_length_b   7.08432817
_cell_length_c   7.08432817
_cell_angle_alpha   90.00000000
_cell_angle_beta   90.00000000
_cell_angle_gamma   90.00000000
_symmetry_Int_Tables_number   1
_chemical_formula_structural   ZrTiNi2B(IrRu2)3
_chemical_formula_sum   'Zr1 Ti1 Ni2 B1 Ru6 Ir3'
_cell_volume   180.34539911
_cell_formula_units_Z   1
loop_
 _symmetry_equiv_pos_site_id
 _symmetry_equiv_pos_as_xyz
  1  'x, y, z'
loop_
 _atom_site_type_symbol
 _atom_site_label
 _atom_site_symmetry_multiplicity
 _atom_site_fract_x
 _atom_site_fract_y
 _atom_site_fract_z
 _atom_site_occupancy
  Ti  Ti0  1  0.50000002  0.49999999  0.49999999  1
  Zr  Zr1  1  0.00000000  0.00000000  0.00000000  1
  Ni  Ni2  1  0.50000002  0.66300198  0.91501498  1
  Ni  Ni3  1  0.50000002  0.33699799  0.08498500  1
  Ru  Ru4  1  0.00000000  0.16300200  0.58498499  1
  Ir  Ir5  1  -0.00000000  0.83699798  0.41501499  1
  Ru  Ru6  1  0.50000002  0.91501498  0.66300198  1
  Ru  Ru7  1  0.50000002  0.08498500  0.33699799  1
  Ir  Ir8  1  0.00000000  0.58498499  0.16300200  1
  Ir  Ir9  1  1.00000003  0.41501499  0.83699798  1
  Ru  Ru10  1  0.50000002  0.77947798  0.22052199  1
  Ru  Ru11  1  0.50000002  0.22052199  0.77947798  1
  B  B12  1  -0.00000000  0.27947799  0.27947799  1
  Ru  Ru13  1  -0.00000000  0.72052198  0.72052198  1
