# generated using pymatgen
data_Ce2SiP5
_symmetry_space_group_name_H-M   'P 1'
_cell_length_a   4.18069792
_cell_length_b   4.18069839
_cell_length_c   11.04566765
_cell_angle_alpha   90.00000000
_cell_angle_beta   90.00000000
_cell_angle_gamma   120.00000000
_symmetry_Int_Tables_number   1
_chemical_formula_structural   Ce2SiP5
_chemical_formula_sum   'Ce2 Si1 P5'
_cell_volume   167.19382332
_cell_formula_units_Z   1
loop_
 _symmetry_equiv_pos_site_id
 _symmetry_equiv_pos_as_xyz
  1  'x, y, z'
loop_
 _atom_site_type_symbol
 _atom_site_label
 _atom_site_symmetry_multiplicity
 _atom_site_fract_x
 _atom_site_fract_y
 _atom_site_fract_z
 _atom_site_occupancy
  Ce  Ce0  1  0.00000000  0.00000000  0.81907603  1
  Ce  Ce1  1  0.00000000  0.00000000  0.18092401  1
  Si  Si2  1  0.66666669  0.33333333  0.41338901  1
  P  P3  1  0.33333337  0.66666666  0.58661102  1
  P  P4  1  0.66666669  0.33333333  0.00515100  1
  P  P5  1  0.33333337  0.66666666  0.99484903  1
  P  P6  1  0.66666669  0.33333333  0.64569302  1
  P  P7  1  0.33333337  0.66666666  0.35430701  1
