# generated using pymatgen
data_Ba(BN3)2
_symmetry_space_group_name_H-M   'P 1'
_cell_length_a   5.16211987
_cell_length_b   6.30492592
_cell_length_c   6.30492592
_cell_angle_alpha   120.00000000
_cell_angle_beta   90.00000000
_cell_angle_gamma   90.00000000
_symmetry_Int_Tables_number   1
_chemical_formula_structural   Ba(BN3)2
_chemical_formula_sum   'Ba1 B2 N6'
_cell_volume   177.71279305
_cell_formula_units_Z   1
loop_
 _symmetry_equiv_pos_site_id
 _symmetry_equiv_pos_as_xyz
  1  'x, y, z'
loop_
 _atom_site_type_symbol
 _atom_site_label
 _atom_site_symmetry_multiplicity
 _atom_site_fract_x
 _atom_site_fract_y
 _atom_site_fract_z
 _atom_site_occupancy
  Ba  Ba0  1  0.69478602  0.33333334  0.66666667  1
  B  B1  1  0.30521401  0.66666667  0.33333333  1
  B  B2  1  0.00000000  0.00000000  0.00000000  1
  N  N3  1  0.78945002  0.29865500  0.14932700  1
  N  N4  1  0.21055001  0.70134501  0.85067300  1
  N  N5  1  0.78945002  0.85067201  0.70134399  1
  N  N6  1  0.21055001  0.14932800  0.29865600  1
  N  N7  1  0.78945002  0.85067201  0.14932699  1
  N  N8  1  0.21055001  0.14932800  0.85067300  1
