# generated using pymatgen
data_Ce4AlGe9
_symmetry_space_group_name_H-M   'P 1'
_cell_length_a   4.43159580
_cell_length_b   8.31032658
_cell_length_c   8.31032658
_cell_angle_alpha   69.30034637
_cell_angle_beta   74.53605652
_cell_angle_gamma   74.53605652
_symmetry_Int_Tables_number   1
_chemical_formula_structural   Ce4AlGe9
_chemical_formula_sum   'Ce4 Al1 Ge9'
_cell_volume   270.84070479
_cell_formula_units_Z   1
loop_
 _symmetry_equiv_pos_site_id
 _symmetry_equiv_pos_as_xyz
  1  'x, y, z'
loop_
 _atom_site_type_symbol
 _atom_site_label
 _atom_site_symmetry_multiplicity
 _atom_site_fract_x
 _atom_site_fract_y
 _atom_site_fract_z
 _atom_site_occupancy
  Ce  Ce0  1  0.50000000  0.49999998  0.50000002  1
  Ce  Ce1  1  0.79668403  0.20331599  0.20331600  1
  Ce  Ce2  1  0.20331597  0.79668397  0.79668404  1
  Ce  Ce3  1  0.64349503  0.07504600  0.63796398  1
  Al  Al4  1  0.35650497  0.92495396  0.36203606  1
  Ge  Ge5  1  0.64349500  0.63796397  0.07504604  1
  Ge  Ge6  1  0.35650500  0.36203599  0.92495400  1
  Ge  Ge7  1  0.84173900  0.79095397  0.52556804  1
  Ge  Ge8  1  0.15826100  0.20904599  0.47443200  1
  Ge  Ge9  1  0.84173901  0.52556798  0.79095401  1
  Ge  Ge10  1  0.15826098  0.47443198  0.20904603  1
  Ge  Ge11  1  0.50000003  0.00000000  -0.00000001  1
  Ge  Ge12  1  -0.00000004  0.80963197  0.19036806  1
  Ge  Ge13  1  -0.00000001  0.19036799  0.80963200  1
