# generated using pymatgen
data_Li6MgNi7
_symmetry_space_group_name_H-M   'P 1'
_cell_length_a   3.48700094
_cell_length_b   6.06572008
_cell_length_c   10.08676434
_cell_angle_alpha   89.59690857
_cell_angle_beta   90.00000000
_cell_angle_gamma   90.00000000
_symmetry_Int_Tables_number   1
_chemical_formula_structural   Li6MgNi7
_chemical_formula_sum   'Li6 Mg1 Ni7'
_cell_volume   213.34160396
_cell_formula_units_Z   1
loop_
 _symmetry_equiv_pos_site_id
 _symmetry_equiv_pos_as_xyz
  1  'x, y, z'
loop_
 _atom_site_type_symbol
 _atom_site_label
 _atom_site_symmetry_multiplicity
 _atom_site_fract_x
 _atom_site_fract_y
 _atom_site_fract_z
 _atom_site_occupancy
  Li  Li0  1  0.50000001  0.42391199  0.18453999  1
  Li  Li1  1  0.50000001  0.57608799  0.81546000  1
  Li  Li2  1  0.50000001  0.92605299  0.32131198  1
  Li  Li3  1  0.50000001  0.07394700  0.67868802  1
  Li  Li4  1  0.00000000  0.49999999  0.50000000  1
  Li  Li5  1  0.00000000  0.00000000  0.00000000  1
  Ni  Ni6  1  -0.00000000  0.12209300  0.20192800  1
  Mg  Mg7  1  -0.00000000  0.87790699  0.79807199  1
  Ni  Ni8  1  -0.00000000  0.64949199  0.30648499  1
  Ni  Ni9  1  0.00000000  0.35050800  0.69351501  1
  Ni  Ni10  1  0.50000001  0.26362800  0.45008300  1
  Ni  Ni11  1  0.50000001  0.73637199  0.54991699  1
  Ni  Ni12  1  0.50000001  0.76893699  0.04827798  1
  Ni  Ni13  1  0.50000001  0.23106300  0.95172202  1
