# generated using pymatgen
data_MnNbAl6
_symmetry_space_group_name_H-M   'P 1'
_cell_length_a   4.39113712
_cell_length_b   5.60257006
_cell_length_c   5.60257006
_cell_angle_alpha   60.00000000
_cell_angle_beta   90.00000000
_cell_angle_gamma   90.00000000
_symmetry_Int_Tables_number   1
_chemical_formula_structural   MnNbAl6
_chemical_formula_sum   'Mn1 Nb1 Al6'
_cell_volume   119.36643475
_cell_formula_units_Z   1
loop_
 _symmetry_equiv_pos_site_id
 _symmetry_equiv_pos_as_xyz
  1  'x, y, z'
loop_
 _atom_site_type_symbol
 _atom_site_label
 _atom_site_symmetry_multiplicity
 _atom_site_fract_x
 _atom_site_fract_y
 _atom_site_fract_z
 _atom_site_occupancy
  Nb  Nb0  1  0.24999999  0.33333333  0.33333333  1
  Mn  Mn1  1  0.74999998  0.66666666  0.66666666  1
  Al  Al2  1  0.74999998  0.66672000  0.16664000  1
  Al  Al3  1  0.74999998  0.16664000  0.16669333  1
  Al  Al4  1  0.74999998  0.16664000  0.66672000  1
  Al  Al5  1  0.24999999  0.33333333  0.83330666  1
  Al  Al6  1  0.24999999  0.83335999  0.83335999  1
  Al  Al7  1  0.24999999  0.83335999  0.33327999  1
