# generated using pymatgen
data_Ca4FeC7
_symmetry_space_group_name_H-M   'P 1'
_cell_length_a   3.76325798
_cell_length_b   3.76325798
_cell_length_c   10.31271553
_cell_angle_alpha   100.51291656
_cell_angle_beta   100.51291656
_cell_angle_gamma   90.00000000
_symmetry_Int_Tables_number   1
_chemical_formula_structural   Ca4FeC7
_chemical_formula_sum   'Ca4 Fe1 C7'
_cell_volume   141.10398585
_cell_formula_units_Z   1
loop_
 _symmetry_equiv_pos_site_id
 _symmetry_equiv_pos_as_xyz
  1  'x, y, z'
loop_
 _atom_site_type_symbol
 _atom_site_label
 _atom_site_symmetry_multiplicity
 _atom_site_fract_x
 _atom_site_fract_y
 _atom_site_fract_z
 _atom_site_occupancy
  Ca  Ca0  1  0.50000000  0.50000000  0.00000000  1
  Ca  Ca1  1  0.31763900  0.31763900  0.63527802  1
  Ca  Ca2  1  0.68236101  0.68236100  0.36472202  1
  Ca  Ca3  1  0.90498601  0.90498601  0.80997203  1
  Fe  Fe4  1  0.09501400  0.09501400  0.19002801  1
  C  C5  1  0.00000000  0.00000000  0.00000000  1
  C  C6  1  0.39856301  0.89856301  0.79712603  1
  C  C7  1  0.89856301  0.39856300  0.79712603  1
  C  C8  1  0.79989101  0.79989101  0.59978202  1
  C  C9  1  0.20010900  0.20010900  0.40021801  1
  C  C10  1  0.10143700  0.60143700  0.20287401  1
  C  C11  1  0.60143700  0.10143700  0.20287401  1
