# generated using pymatgen
data_Ti2GaNi5
_symmetry_space_group_name_H-M   'P 1'
_cell_length_a   3.96548700
_cell_length_b   7.94980717
_cell_length_c   8.05193996
_cell_angle_alpha   90.00000000
_cell_angle_beta   90.00000000
_cell_angle_gamma   90.00000000
_symmetry_Int_Tables_number   1
_chemical_formula_structural   Ti2GaNi5
_chemical_formula_sum   'Ti4 Ga2 Ni10'
_cell_volume   253.83625595
_cell_formula_units_Z   2
loop_
 _symmetry_equiv_pos_site_id
 _symmetry_equiv_pos_as_xyz
  1  'x, y, z'
loop_
 _atom_site_type_symbol
 _atom_site_label
 _atom_site_symmetry_multiplicity
 _atom_site_fract_x
 _atom_site_fract_y
 _atom_site_fract_z
 _atom_site_occupancy
  Ti  Ti0  1  0.00000000  0.00000000  0.00000000  1
  Ti  Ti1  1  -0.00000000  0.49999999  0.50000000  1
  Ti  Ti2  1  0.50000000  0.24897699  0.50000000  1
  Ti  Ti3  1  0.50000000  0.75102298  0.50000000  1
  Ni  Ni4  1  -0.00000000  0.24966199  0.75178000  1
  Ga  Ga5  1  -0.00000000  0.75033798  0.24822000  1
  Ni  Ni6  1  -0.00000000  0.24966199  0.24822000  1
  Ga  Ga7  1  -0.00000000  0.75033798  0.75178000  1
  Ni  Ni8  1  -0.00000000  0.49999999  -0.00000000  1
  Ni  Ni9  1  0.50000000  0.00000000  0.74647700  1
  Ni  Ni10  1  0.50000000  0.00000000  0.25352300  1
  Ni  Ni11  1  0.50000000  0.24531899  -0.00000000  1
  Ni  Ni12  1  0.50000000  0.75468098  0.00000000  1
  Ni  Ni13  1  0.00000000  0.00000000  0.50000000  1
  Ni  Ni14  1  0.50000000  0.49999999  0.72979200  1
  Ni  Ni15  1  0.50000000  0.49999999  0.27020800  1
