# generated using pymatgen
data_CeGa2
_symmetry_space_group_name_H-M   'P 1'
_cell_length_a   4.66716385
_cell_length_b   5.77233171
_cell_length_c   5.82155371
_cell_angle_alpha   78.47618866
_cell_angle_beta   66.36853790
_cell_angle_gamma   66.15459442
_symmetry_Int_Tables_number   1
_chemical_formula_structural   CeGa2
_chemical_formula_sum   'Ce2 Ga4'
_cell_volume   131.28522513
_cell_formula_units_Z   2
loop_
 _symmetry_equiv_pos_site_id
 _symmetry_equiv_pos_as_xyz
  1  'x, y, z'
loop_
 _atom_site_type_symbol
 _atom_site_label
 _atom_site_symmetry_multiplicity
 _atom_site_fract_x
 _atom_site_fract_y
 _atom_site_fract_z
 _atom_site_occupancy
  Ce  Ce0  1  0.54956603  0.20175100  0.69911695  1
  Ce  Ce1  1  0.45055103  0.79960699  0.29929097  1
  Ga  Ga2  1  0.82963305  0.60608199  0.73465194  1
  Ga  Ga3  1  0.84211005  0.21908000  0.09669996  1
  Ga  Ga4  1  0.16613401  0.77672199  0.89100996  1
  Ga  Ga5  1  0.16200701  0.39675400  0.27923199  1
