# generated using pymatgen
data_Li2LaEu2Mg(NiO)4
_symmetry_space_group_name_H-M   'P 1'
_cell_length_a   4.05305815
_cell_length_b   7.05965185
_cell_length_c   9.33644199
_cell_angle_alpha   112.21416473
_cell_angle_beta   102.53616333
_cell_angle_gamma   90.00000000
_symmetry_Int_Tables_number   1
_chemical_formula_structural   Li2LaEu2Mg(NiO)4
_chemical_formula_sum   'Li2 La1 Eu2 Mg1 Ni4 O4'
_cell_volume   240.42335724
_cell_formula_units_Z   1
loop_
 _symmetry_equiv_pos_site_id
 _symmetry_equiv_pos_as_xyz
  1  'x, y, z'
loop_
 _atom_site_type_symbol
 _atom_site_label
 _atom_site_symmetry_multiplicity
 _atom_site_fract_x
 _atom_site_fract_y
 _atom_site_fract_z
 _atom_site_occupancy
  Li  Li0  1  0.21814998  0.21815000  0.43630000  1
  La  La1  1  0.78184994  0.78185000  0.56369997  1
  Li  Li2  1  0.00000000  0.00000000  0.00000000  1
  Eu  Eu3  1  0.88413695  0.38413700  0.76827399  1
  Mg  Mg4  1  0.11586297  0.61586300  0.23172598  1
  Eu  Eu5  1  0.49999996  0.50000000  -0.00000003  1
  Ni  Ni6  1  0.61972296  0.36976100  0.23944598  1
  Ni  Ni7  1  0.61972194  0.86968400  0.23944496  1
  Ni  Ni8  1  0.38027696  0.63023900  0.76055399  1
  Ni  Ni9  1  0.38027798  0.13031600  0.76055501  1
  O  O10  1  0.61639697  0.11639700  0.23279399  1
  O  O11  1  0.38360295  0.88360300  0.76720598  1
  O  O12  1  0.62052095  0.62052100  0.24104197  1
  O  O13  1  0.37947897  0.37947900  0.75895800  1
