# generated using pymatgen
data_CaMn(IO)4
_symmetry_space_group_name_H-M   'P 1'
_cell_length_a   5.09937382
_cell_length_b   5.95015383
_cell_length_c   6.63512325
_cell_angle_alpha   116.63999176
_cell_angle_beta   112.59850311
_cell_angle_gamma   90.00000000
_symmetry_Int_Tables_number   1
_chemical_formula_structural   CaMn(IO)4
_chemical_formula_sum   'Ca1 Mn1 I4 O4'
_cell_volume   162.47279785
_cell_formula_units_Z   1
loop_
 _symmetry_equiv_pos_site_id
 _symmetry_equiv_pos_as_xyz
  1  'x, y, z'
loop_
 _atom_site_type_symbol
 _atom_site_label
 _atom_site_symmetry_multiplicity
 _atom_site_fract_x
 _atom_site_fract_y
 _atom_site_fract_z
 _atom_site_occupancy
  Mn  Mn0  1  0.75000002  0.00000000  -0.00000001  1
  Ca  Ca1  1  0.25000001  0.00000000  1.00000003  1
  I  I2  1  0.11131000  0.73128903  0.22262002  1
  I  I3  1  0.88869002  0.26871101  0.77738002  1
  I  I4  1  0.38869001  0.50866902  0.77738003  1
  I  I5  1  0.61131002  0.49133102  0.22262001  1
  O  O6  1  0.35606501  0.05787600  0.71213002  1
  O  O7  1  0.64393502  0.94212404  0.28787002  1
  O  O8  1  0.85606502  0.65425403  0.71213002  1
  O  O9  1  0.14393500  0.34574601  0.28787001  1
