# generated using pymatgen
data_NbAlInAg5
_symmetry_space_group_name_H-M   'P 1'
_cell_length_a   4.75622177
_cell_length_b   5.91218185
_cell_length_c   5.91218233
_cell_angle_alpha   60.00000000
_cell_angle_beta   90.00000000
_cell_angle_gamma   90.00000000
_symmetry_Int_Tables_number   1
_chemical_formula_structural   NbAlInAg5
_chemical_formula_sum   'Nb1 Al1 In1 Ag5'
_cell_volume   143.97541253
_cell_formula_units_Z   1
loop_
 _symmetry_equiv_pos_site_id
 _symmetry_equiv_pos_as_xyz
  1  'x, y, z'
loop_
 _atom_site_type_symbol
 _atom_site_label
 _atom_site_symmetry_multiplicity
 _atom_site_fract_x
 _atom_site_fract_y
 _atom_site_fract_z
 _atom_site_occupancy
  Nb  Nb0  1  0.75000004  0.83574903  0.32850198  1
  Al  Al1  1  0.75000004  0.32850301  0.83574797  1
  Ag  Ag2  1  0.75000004  0.83574903  0.83574796  1
  In  In3  1  0.25000001  0.16425101  0.67149798  1
  Ag  Ag4  1  0.25000001  0.67149702  0.16425198  1
  Ag  Ag5  1  0.25000001  0.16425101  0.16425199  1
  Ag  Ag6  1  0.75000004  0.33333334  0.33333332  1
  Ag  Ag7  1  0.25000001  0.66666669  0.66666664  1
