# generated using pymatgen
data_CePd2
_symmetry_space_group_name_H-M   'P 1'
_cell_length_a   4.32016182
_cell_length_b   6.86019421
_cell_length_c   7.34609795
_cell_angle_alpha   90.00000000
_cell_angle_beta   90.00000000
_cell_angle_gamma   90.00000000
_symmetry_Int_Tables_number   1
_chemical_formula_structural   CePd2
_chemical_formula_sum   'Ce4 Pd8'
_cell_volume   217.71740002
_cell_formula_units_Z   4
loop_
 _symmetry_equiv_pos_site_id
 _symmetry_equiv_pos_as_xyz
  1  'x, y, z'
loop_
 _atom_site_type_symbol
 _atom_site_label
 _atom_site_symmetry_multiplicity
 _atom_site_fract_x
 _atom_site_fract_y
 _atom_site_fract_z
 _atom_site_occupancy
  Ce  Ce0  1  0.25000001  0.01941600  0.80035901  1
  Ce  Ce1  1  0.25000001  0.51941598  0.69964101  1
  Ce  Ce2  1  0.75000003  0.98058397  0.19964100  1
  Ce  Ce3  1  0.75000003  0.48058399  0.30035900  1
  Pd  Pd4  1  0.25000001  0.18249999  0.42031100  1
  Pd  Pd5  1  0.25000001  0.68249998  0.07968900  1
  Pd  Pd6  1  0.75000003  0.81749998  0.57968900  1
  Pd  Pd7  1  0.75000003  0.31749999  0.92031101  1
  Pd  Pd8  1  0.25000001  0.79457098  0.40814800  1
  Pd  Pd9  1  0.25000001  0.29457099  0.09185200  1
  Pd  Pd10  1  0.75000003  0.20542899  0.59185200  1
  Pd  Pd11  1  0.75000003  0.70542898  0.90814801  1
