# generated using pymatgen
data_Li2VFeC4
_symmetry_space_group_name_H-M   'P 1'
_cell_length_a   2.93763494
_cell_length_b   4.11291409
_cell_length_c   5.49128008
_cell_angle_alpha   90.00000000
_cell_angle_beta   90.00000000
_cell_angle_gamma   90.00000000
_symmetry_Int_Tables_number   1
_chemical_formula_structural   Li2VFeC4
_chemical_formula_sum   'Li2 V1 Fe1 C4'
_cell_volume   66.34696460
_cell_formula_units_Z   1
loop_
 _symmetry_equiv_pos_site_id
 _symmetry_equiv_pos_as_xyz
  1  'x, y, z'
loop_
 _atom_site_type_symbol
 _atom_site_label
 _atom_site_symmetry_multiplicity
 _atom_site_fract_x
 _atom_site_fract_y
 _atom_site_fract_z
 _atom_site_occupancy
  Li  Li0  1  0.00000000  0.12606100  0.67968499  1
  Li  Li1  1  0.00000000  0.87393898  0.17968500  1
  V  V2  1  0.50000001  0.36423699  0.32113800  1
  Fe  Fe3  1  0.50000001  0.63576299  0.82113799  1
  C  C4  1  0.00000000  0.62838199  0.53436899  1
  C  C5  1  0.00000000  0.37161799  0.03436900  1
  C  C6  1  0.50000001  0.85620998  0.46480899  1
  C  C7  1  0.50000001  0.14379000  0.96480899  1
