# generated using pymatgen
data_YGe2
_symmetry_space_group_name_H-M   'P 1'
_cell_length_a   3.70935297
_cell_length_b   6.82987404
_cell_length_c   9.02956200
_cell_angle_alpha   90.00000000
_cell_angle_beta   90.00000000
_cell_angle_gamma   90.00000000
_symmetry_Int_Tables_number   1
_chemical_formula_structural   YGe2
_chemical_formula_sum   'Y4 Ge8'
_cell_volume   228.75865780
_cell_formula_units_Z   4
loop_
 _symmetry_equiv_pos_site_id
 _symmetry_equiv_pos_as_xyz
  1  'x, y, z'
loop_
 _atom_site_type_symbol
 _atom_site_label
 _atom_site_symmetry_multiplicity
 _atom_site_fract_x
 _atom_site_fract_y
 _atom_site_fract_z
 _atom_site_occupancy
  Y  Y0  1  0.25000000  0.77197800  0.16188800  1
  Y  Y1  1  0.75000001  0.22802200  0.83811200  1
  Y  Y2  1  0.25000000  0.27197800  0.33811200  1
  Y  Y3  1  0.75000001  0.72802200  0.66188800  1
  Ge  Ge4  1  0.25000000  0.91954399  0.85265200  1
  Ge  Ge5  1  0.75000001  0.08045600  0.14734800  1
  Ge  Ge6  1  0.25000000  0.41954400  0.64734800  1
  Ge  Ge7  1  0.75000001  0.58045600  0.35265200  1
  Ge  Ge8  1  0.75000001  0.62048700  0.95742200  1
  Ge  Ge9  1  0.25000000  0.37951300  0.04257800  1
  Ge  Ge10  1  0.75000001  0.12048700  0.54257800  1
  Ge  Ge11  1  0.25000000  0.87951300  0.45742200  1
