# generated using pymatgen
data_Ba4LaEu(NiO3)2
_symmetry_space_group_name_H-M   'P 1'
_cell_length_a   5.60998106
_cell_length_b   8.38447666
_cell_length_c   8.38455582
_cell_angle_alpha   119.99763489
_cell_angle_beta   90.00000000
_cell_angle_gamma   90.00000000
_symmetry_Int_Tables_number   1
_chemical_formula_structural   Ba4LaEu(NiO3)2
_chemical_formula_sum   'Ba4 La1 Eu1 Ni2 O6'
_cell_volume   341.55323016
_cell_formula_units_Z   1
loop_
 _symmetry_equiv_pos_site_id
 _symmetry_equiv_pos_as_xyz
  1  'x, y, z'
loop_
 _atom_site_type_symbol
 _atom_site_label
 _atom_site_symmetry_multiplicity
 _atom_site_fract_x
 _atom_site_fract_y
 _atom_site_fract_z
 _atom_site_occupancy
  Ba  Ba0  1  0.74999999  0.05766500  0.69438802  1
  Ba  Ba1  1  0.74999999  0.30561299  0.36327501  1
  Ba  Ba2  1  0.74999999  0.63672398  0.94233803  1
  Ba  Ba3  1  0.25000000  0.94233497  0.30561202  1
  La  La4  1  0.25000000  0.69438698  0.63672502  1
  Eu  Eu5  1  0.25000000  0.36327599  0.05766200  1
  Ni  Ni6  1  0.25000000  0.33333332  0.66666669  1
  Ni  Ni7  1  0.74999999  0.66666665  0.33333335  1
  O  O8  1  0.25000000  0.12459100  0.69034202  1
  O  O9  1  0.25000000  0.30965499  0.43425202  1
  O  O10  1  0.25000000  0.56574698  0.87540303  1
  O  O11  1  0.74999999  0.87540897  0.30965802  1
  O  O12  1  0.74999999  0.69034498  0.56574802  1
  O  O13  1  0.74999999  0.43425299  0.12459701  1
