# generated using pymatgen
data_SmNi3
_symmetry_space_group_name_H-M   'P 1'
_cell_length_a   4.03325510
_cell_length_b   4.12811184
_cell_length_c   8.77685356
_cell_angle_alpha   76.39833069
_cell_angle_beta   90.00000000
_cell_angle_gamma   90.00000000
_symmetry_Int_Tables_number   1
_chemical_formula_structural   SmNi3
_chemical_formula_sum   'Sm2 Ni6'
_cell_volume   142.03382305
_cell_formula_units_Z   2
loop_
 _symmetry_equiv_pos_site_id
 _symmetry_equiv_pos_as_xyz
  1  'x, y, z'
loop_
 _atom_site_type_symbol
 _atom_site_label
 _atom_site_symmetry_multiplicity
 _atom_site_fract_x
 _atom_site_fract_y
 _atom_site_fract_z
 _atom_site_occupancy
  Sm  Sm0  1  0.74999998  0.10741201  0.78517597  1
  Sm  Sm1  1  0.24999999  0.89258804  0.21482397  1
  Ni  Ni2  1  0.24999999  0.25032901  0.49934198  1
  Ni  Ni3  1  0.74999998  0.74967104  0.50065797  1
  Ni  Ni4  1  0.74999998  0.31000902  0.37998198  1
  Ni  Ni5  1  0.24999999  0.68999103  0.62001796  1
  Ni  Ni6  1  0.24999999  0.53791003  0.92417995  1
  Ni  Ni7  1  0.74999998  0.46209002  0.07581999  1
