# generated using pymatgen
data_LiGa
_symmetry_space_group_name_H-M   'P 1'
_cell_length_a   2.77534604
_cell_length_b   4.46305895
_cell_length_c   4.86171389
_cell_angle_alpha   90.00000000
_cell_angle_beta   90.00000000
_cell_angle_gamma   90.00000000
_symmetry_Int_Tables_number   1
_chemical_formula_structural   LiGa
_chemical_formula_sum   'Li2 Ga2'
_cell_volume   60.21977940
_cell_formula_units_Z   2
loop_
 _symmetry_equiv_pos_site_id
 _symmetry_equiv_pos_as_xyz
  1  'x, y, z'
loop_
 _atom_site_type_symbol
 _atom_site_label
 _atom_site_symmetry_multiplicity
 _atom_site_fract_x
 _atom_site_fract_y
 _atom_site_fract_z
 _atom_site_occupancy
  Li  Li0  1  0.00000000  0.25000000  0.82913902  1
  Li  Li1  1  0.00000000  0.75000001  0.17086100  1
  Ga  Ga2  1  0.49999999  0.25000000  0.32574101  1
  Ga  Ga3  1  0.49999999  0.75000001  0.67425902  1
