# generated using pymatgen
data_Li2O2
_symmetry_space_group_name_H-M   'P 1'
_cell_length_a   3.46116161
_cell_length_b   3.46116161
_cell_length_c   6.56601954
_cell_angle_alpha   74.71821594
_cell_angle_beta   74.71821594
_cell_angle_gamma   60.00000763
_symmetry_Int_Tables_number   1
_chemical_formula_structural   Li2O2
_chemical_formula_sum   'Li2 O2'
_cell_volume   64.88891000
_cell_formula_units_Z   1
loop_
 _symmetry_equiv_pos_site_id
 _symmetry_equiv_pos_as_xyz
  1  'x, y, z'
loop_
 _atom_site_type_symbol
 _atom_site_label
 _atom_site_symmetry_multiplicity
 _atom_site_fract_x
 _atom_site_fract_y
 _atom_site_fract_z
 _atom_site_occupancy
  Li  Li0  1  0.00000000  0.00000000  0.00000000  1
  Li  Li1  1  0.49999999  0.50000000  0.49999999  1
  O  O2  1  0.22806099  0.22806100  0.31581699  1
  O  O3  1  0.77193998  0.77194000  0.68417998  1
