# generated using pymatgen
data_Hf3ZrTiNi9
_symmetry_space_group_name_H-M   'P 1'
_cell_length_a   4.14446497
_cell_length_b   7.43161678
_cell_length_c   7.43161678
_cell_angle_alpha   90.00000000
_cell_angle_beta   90.00000000
_cell_angle_gamma   90.00000000
_symmetry_Int_Tables_number   1
_chemical_formula_structural   Hf3ZrTiNi9
_chemical_formula_sum   'Hf3 Zr1 Ti1 Ni9'
_cell_volume   228.89435745
_cell_formula_units_Z   1
loop_
 _symmetry_equiv_pos_site_id
 _symmetry_equiv_pos_as_xyz
  1  'x, y, z'
loop_
 _atom_site_type_symbol
 _atom_site_label
 _atom_site_symmetry_multiplicity
 _atom_site_fract_x
 _atom_site_fract_y
 _atom_site_fract_z
 _atom_site_occupancy
  Ti  Ti0  1  -0.00000000  0.50000001  0.50000001  1
  Zr  Zr1  1  0.50000000  0.00000000  0.00000000  1
  Hf  Hf2  1  0.50000000  0.59312702  0.15853600  1
  Hf  Hf3  1  0.50000000  0.40687301  0.84146402  1
  Ni  Ni4  1  0.00000000  0.09312700  0.34146401  1
  Ni  Ni5  1  0.00000000  0.90687303  0.65853602  1
  Ni  Ni6  1  0.50000000  0.15853600  0.59312702  1
  Hf  Hf7  1  0.50000000  0.84146402  0.40687301  1
  Ni  Ni8  1  0.00000000  0.34146401  0.09312700  1
  Ni  Ni9  1  -0.00000000  0.65853602  0.90687303  1
  Ni  Ni10  1  0.50000000  0.71083702  0.71083702  1
  Ni  Ni11  1  0.50000000  0.28916301  0.28916301  1
  Ni  Ni12  1  0.00000000  0.21083701  0.78916302  1
  Ni  Ni13  1  0.00000000  0.78916302  0.21083701  1
