# generated using pymatgen
data_Li7MnCo2O7
_symmetry_space_group_name_H-M   'P 1'
_cell_length_a   5.12418413
_cell_length_b   6.58573961
_cell_length_c   6.94206285
_cell_angle_alpha   108.40419006
_cell_angle_beta   105.91491699
_cell_angle_gamma   96.94823456
_symmetry_Int_Tables_number   1
_chemical_formula_structural   Li7MnCo2O7
_chemical_formula_sum   'Li7 Mn1 Co2 O7'
_cell_volume   208.16505895
_cell_formula_units_Z   1
loop_
 _symmetry_equiv_pos_site_id
 _symmetry_equiv_pos_as_xyz
  1  'x, y, z'
loop_
 _atom_site_type_symbol
 _atom_site_label
 _atom_site_symmetry_multiplicity
 _atom_site_fract_x
 _atom_site_fract_y
 _atom_site_fract_z
 _atom_site_occupancy
  Li  Li0  1  0.66799999  0.18177400  0.39820602  1
  Li  Li1  1  0.33199998  0.81822602  0.60179404  1
  Li  Li2  1  0.89450898  0.24778901  0.97392101  1
  Li  Li3  1  0.33541399  0.37716701  0.76382901  1
  Li  Li4  1  0.66458598  0.62283302  0.23617104  1
  Li  Li5  1  0.10549099  0.75221102  0.02607904  1
  Li  Li6  1  0.00000000  0.00000000  0.00000000  1
  Mn  Mn7  1  0.73909698  0.52200901  0.96173602  1
  Co  Co8  1  0.26090299  0.47799101  0.03826403  1
  Co  Co9  1  0.49496999  0.10352000  0.80827700  1
  O  O10  1  0.95142098  0.20466601  0.65601102  1
  O  O11  1  0.39215299  0.29259501  0.50088401  1
  O  O12  1  0.80086098  0.34637501  0.25762003  1
  O  O13  1  0.19913899  0.65362502  0.74238002  1
  O  O14  1  0.60784698  0.70740502  0.49911604  1
  O  O15  1  0.04857899  0.79533402  0.34398904  1
  O  O16  1  0.50502998  0.89648002  0.19172306  1
