# generated using pymatgen
data_Ca7Mg(AlN2)4
_symmetry_space_group_name_H-M   'P 1'
_cell_length_a   5.85396814
_cell_length_b   5.85396814
_cell_length_c   10.53451157
_cell_angle_alpha   90.00000000
_cell_angle_beta   90.00000000
_cell_angle_gamma   90.00000000
_symmetry_Int_Tables_number   1
_chemical_formula_structural   Ca7Mg(AlN2)4
_chemical_formula_sum   'Ca7 Mg1 Al4 N8'
_cell_volume   361.00657665
_cell_formula_units_Z   1
loop_
 _symmetry_equiv_pos_site_id
 _symmetry_equiv_pos_as_xyz
  1  'x, y, z'
loop_
 _atom_site_type_symbol
 _atom_site_label
 _atom_site_symmetry_multiplicity
 _atom_site_fract_x
 _atom_site_fract_y
 _atom_site_fract_z
 _atom_site_occupancy
  Ca  Ca0  1  0.30336799  0.69663198  0.15678401  1
  Ca  Ca1  1  0.69663198  0.30336799  0.84321603  1
  Ca  Ca2  1  0.80336798  0.80336798  0.34321601  1
  Ca  Ca3  1  0.19663200  0.19663200  0.65678403  1
  Ca  Ca4  1  0.69663198  0.30336799  0.15678401  1
  Ca  Ca5  1  0.30336799  0.69663198  0.84321603  1
  Ca  Ca6  1  0.19663200  0.19663200  0.34321601  1
  Mg  Mg7  1  0.80336798  0.80336798  0.65678403  1
  Al  Al8  1  0.67664098  0.32335899  0.50000002  1
  Al  Al9  1  0.32335899  0.67664098  0.50000002  1
  Al  Al10  1  0.82335898  0.82335898  0.00000000  1
  Al  Al11  1  0.17664100  0.17664100  -0.00000000  1
  N  N12  1  0.00000000  0.00000000  0.85950004  1
  N  N13  1  0.49999999  0.49999999  0.64050003  1
  N  N14  1  0.49999999  0.49999999  0.35950001  1
  N  N15  1  0.49999999  0.00000000  0.00000000  1
  N  N16  1  0.49999999  0.00000000  0.50000002  1
  N  N17  1  0.00000000  0.49999999  0.00000000  1
  N  N18  1  0.00000000  0.49999999  0.50000002  1
  N  N19  1  0.00000000  0.00000000  0.14050001  1
