# generated using pymatgen
data_Ce3Al3Ge8
_symmetry_space_group_name_H-M   'P 1'
_cell_length_a   4.26951981
_cell_length_b   8.08969021
_cell_length_c   8.08969021
_cell_angle_alpha   71.56974792
_cell_angle_beta   74.69920349
_cell_angle_gamma   74.69920349
_symmetry_Int_Tables_number   1
_chemical_formula_structural   Ce3Al3Ge8
_chemical_formula_sum   'Ce3 Al3 Ge8'
_cell_volume   250.66225304
_cell_formula_units_Z   1
loop_
 _symmetry_equiv_pos_site_id
 _symmetry_equiv_pos_as_xyz
  1  'x, y, z'
loop_
 _atom_site_type_symbol
 _atom_site_label
 _atom_site_symmetry_multiplicity
 _atom_site_fract_x
 _atom_site_fract_y
 _atom_site_fract_z
 _atom_site_occupancy
  Ce  Ce0  1  0.50000004  0.50000000  0.50000002  1
  Ce  Ce1  1  0.20022605  0.79977399  0.79977402  1
  Ce  Ce2  1  0.79977404  0.20022600  0.20022602  1
  Al  Al3  1  0.36317906  0.91943399  0.35420802  1
  Ge  Ge4  1  0.63682103  0.08056600  0.64579202  1
  Al  Al5  1  0.36317903  0.35420800  0.91943401  1
  Al  Al6  1  0.63682105  0.64579199  0.08056602  1
  Ge  Ge7  1  0.15505802  0.21269000  0.47719501  1
  Ge  Ge8  1  0.84494207  0.78730999  0.52280503  1
  Ge  Ge9  1  0.15505703  0.47719600  0.21269001  1
  Ge  Ge10  1  0.84494306  0.52280400  0.78731003  1
  Ge  Ge11  1  0.50000002  0.00000000  0.00000001  1
  Ge  Ge12  1  0.00000001  0.18099800  0.81900200  1
  Ge  Ge13  1  0.00000004  0.81900199  0.18099801  1
