# generated using pymatgen
data_MgAl11
_symmetry_space_group_name_H-M   'P 1'
_cell_length_a   3.97810292
_cell_length_b   5.02112913
_cell_length_c   8.70554638
_cell_angle_alpha   90.00000000
_cell_angle_beta   90.00000000
_cell_angle_gamma   90.00000000
_symmetry_Int_Tables_number   1
_chemical_formula_structural   MgAl11
_chemical_formula_sum   'Mg1 Al11'
_cell_volume   173.88953223
_cell_formula_units_Z   1
loop_
 _symmetry_equiv_pos_site_id
 _symmetry_equiv_pos_as_xyz
  1  'x, y, z'
loop_
 _atom_site_type_symbol
 _atom_site_label
 _atom_site_symmetry_multiplicity
 _atom_site_fract_x
 _atom_site_fract_y
 _atom_site_fract_z
 _atom_site_occupancy
  Mg  Mg0  1  0.00000000  0.00000000  0.00000000  1
  Al  Al1  1  0.00000000  0.49999999  0.49999998  1
  Al  Al2  1  0.00000000  0.00000000  0.33295099  1
  Al  Al3  1  0.00000000  0.49999999  0.83306096  1
  Al  Al4  1  0.00000000  0.49999999  0.16693899  1
  Al  Al5  1  0.00000000  0.00000000  0.66704897  1
  Al  Al6  1  0.50000001  0.00000000  0.49999998  1
  Al  Al7  1  0.50000001  0.49999999  -0.00000000  1
  Al  Al8  1  0.50000001  0.25147599  0.25153899  1
  Al  Al9  1  0.50000001  0.74852398  0.74846097  1
  Al  Al10  1  0.50000001  0.74852398  0.25153899  1
  Al  Al11  1  0.50000001  0.25147599  0.74846097  1
