# generated using pymatgen
data_HfNi4
_symmetry_space_group_name_H-M   'P 1'
_cell_length_a   4.33620501
_cell_length_b   4.49819708
_cell_length_c   13.03164291
_cell_angle_alpha   90.00000000
_cell_angle_beta   90.00000000
_cell_angle_gamma   90.00000000
_symmetry_Int_Tables_number   1
_chemical_formula_structural   HfNi4
_chemical_formula_sum   'Hf4 Ni16'
_cell_volume   254.18355930
_cell_formula_units_Z   4
loop_
 _symmetry_equiv_pos_site_id
 _symmetry_equiv_pos_as_xyz
  1  'x, y, z'
loop_
 _atom_site_type_symbol
 _atom_site_label
 _atom_site_symmetry_multiplicity
 _atom_site_fract_x
 _atom_site_fract_y
 _atom_site_fract_z
 _atom_site_occupancy
  Hf  Hf0  1  0.25000000  0.15917900  0.59671000  1
  Hf  Hf1  1  0.25000000  0.65917899  0.90329001  1
  Hf  Hf2  1  0.75000000  0.84082099  0.40329000  1
  Hf  Hf3  1  0.75000000  0.34082099  0.09671000  1
  Ni  Ni4  1  0.25000000  0.16344600  0.00303900  1
  Ni  Ni5  1  0.25000000  0.66344599  0.49696100  1
  Ni  Ni6  1  0.75000000  0.83655399  0.99696101  1
  Ni  Ni7  1  0.75000000  0.33655399  0.50303900  1
  Ni  Ni8  1  0.25000000  0.16362100  0.79866801  1
  Ni  Ni9  1  0.25000000  0.66362099  0.70133200  1
  Ni  Ni10  1  0.75000000  0.83637899  0.20133200  1
  Ni  Ni11  1  0.75000000  0.33637899  0.29866800  1
  Ni  Ni12  1  0.25000000  0.17893500  0.39529900  1
  Ni  Ni13  1  0.25000000  0.67893499  0.10470100  1
  Ni  Ni14  1  0.75000000  0.82106499  0.60470100  1
  Ni  Ni15  1  0.75000000  0.32106499  0.89529901  1
  Ni  Ni16  1  0.25000000  0.16795900  0.20224000  1
  Ni  Ni17  1  0.25000000  0.66795899  0.29776000  1
  Ni  Ni18  1  0.75000000  0.83204099  0.79776001  1
  Ni  Ni19  1  0.75000000  0.33204099  0.70224000  1
