# generated using pymatgen
data_Al
_symmetry_space_group_name_H-M   'P 1'
_cell_length_a   4.98609495
_cell_length_b   6.54156208
_cell_length_c   6.54156208
_cell_angle_alpha   80.99146271
_cell_angle_beta   67.59761810
_cell_angle_gamma   67.59761810
_symmetry_Int_Tables_number   1
_chemical_formula_structural   Al
_chemical_formula_sum   Al13
_cell_volume   182.35911104
_cell_formula_units_Z   13
loop_
 _symmetry_equiv_pos_site_id
 _symmetry_equiv_pos_as_xyz
  1  'x, y, z'
loop_
 _atom_site_type_symbol
 _atom_site_label
 _atom_site_symmetry_multiplicity
 _atom_site_fract_x
 _atom_site_fract_y
 _atom_site_fract_z
 _atom_site_occupancy
  Al  Al0  1  0.00000000  0.00000000  0.00000000  1
  Al  Al1  1  0.34496299  0.65503700  0.65503705  1
  Al  Al2  1  0.65503700  0.34496300  0.34496303  1
  Al  Al3  1  -0.00000001  0.66784600  0.33215404  1
  Al  Al4  1  -0.00000001  0.33215400  0.66784602  1
  Al  Al5  1  0.30785600  0.19214400  0.19214401  1
  Al  Al6  1  0.69214399  0.80785600  0.80785606  1
  Al  Al7  1  0.50000000  0.00000000  0.50000001  1
  Al  Al8  1  0.00000000  0.00000000  0.50000000  1
  Al  Al9  1  0.49999999  0.50000000  0.00000003  1
  Al  Al10  1  -0.00000001  0.50000000  0.00000003  1
  Al  Al11  1  0.50000000  0.24240200  0.75759802  1
  Al  Al12  1  0.49999999  0.75759800  0.24240205  1
