# generated using pymatgen
data_LiFeO3
_symmetry_space_group_name_H-M   'P 1'
_cell_length_a   5.46175194
_cell_length_b   5.51974010
_cell_length_c   7.67900085
_cell_angle_alpha   90.00000000
_cell_angle_beta   90.00000000
_cell_angle_gamma   90.00000000
_symmetry_Int_Tables_number   1
_chemical_formula_structural   LiFeO3
_chemical_formula_sum   'Li4 Fe4 O12'
_cell_volume   231.50230363
_cell_formula_units_Z   4
loop_
 _symmetry_equiv_pos_site_id
 _symmetry_equiv_pos_as_xyz
  1  'x, y, z'
loop_
 _atom_site_type_symbol
 _atom_site_label
 _atom_site_symmetry_multiplicity
 _atom_site_fract_x
 _atom_site_fract_y
 _atom_site_fract_z
 _atom_site_occupancy
  Li  Li0  1  0.25854000  0.53819599  0.50000001  1
  Li  Li1  1  0.74146001  0.03819600  0.50000001  1
  Li  Li2  1  0.24209200  0.45630499  0.00000000  1
  Li  Li3  1  0.75790801  0.95630498  0.00000000  1
  Fe  Fe4  1  0.74906501  0.49889099  0.74383401  1
  Fe  Fe5  1  0.25093500  0.99889198  0.25616600  1
  Fe  Fe6  1  0.74906501  0.49889099  0.25616600  1
  Fe  Fe7  1  0.25093500  0.99889198  0.74383401  1
  O  O8  1  0.96854801  0.21722000  0.79669202  1
  O  O9  1  0.03145200  0.71721999  0.20330800  1
  O  O10  1  0.54333601  0.79339898  0.28592201  1
  O  O11  1  0.45666401  0.29339899  0.71407801  1
  O  O12  1  0.54333601  0.79339898  0.71407801  1
  O  O13  1  0.45666401  0.29339899  0.28592201  1
  O  O14  1  0.96854801  0.21722000  0.20330800  1
  O  O15  1  0.03145200  0.71721999  0.79669202  1
  O  O16  1  0.32496000  0.01297700  0.00000000  1
  O  O17  1  0.67504001  0.51297699  0.00000000  1
  O  O18  1  0.16584200  0.97349998  0.50000001  1
  O  O19  1  0.83415801  0.47349999  0.50000001  1
