# generated using pymatgen
data_Nd5SmNi6
_symmetry_space_group_name_H-M   'P 1'
_cell_length_a   4.49258709
_cell_length_b   5.52677822
_cell_length_c   10.54500008
_cell_angle_alpha   96.97583008
_cell_angle_beta   90.00000000
_cell_angle_gamma   90.00000000
_symmetry_Int_Tables_number   1
_chemical_formula_structural   Nd5SmNi6
_chemical_formula_sum   'Nd5 Sm1 Ni6'
_cell_volume   259.88923744
_cell_formula_units_Z   1
loop_
 _symmetry_equiv_pos_site_id
 _symmetry_equiv_pos_as_xyz
  1  'x, y, z'
loop_
 _atom_site_type_symbol
 _atom_site_label
 _atom_site_symmetry_multiplicity
 _atom_site_fract_x
 _atom_site_fract_y
 _atom_site_fract_z
 _atom_site_occupancy
  Sm  Sm0  1  0.74999999  0.59585198  0.78374797  1
  Nd  Nd1  1  0.25000000  0.40414798  0.21625199  1
  Nd  Nd2  1  0.74999999  0.88874896  0.12374599  1
  Nd  Nd3  1  0.25000000  0.11125100  0.87625396  1
  Nd  Nd4  1  0.74999999  0.74119497  0.45626698  1
  Nd  Nd5  1  0.25000000  0.25880499  0.54373298  1
  Ni  Ni6  1  0.74999999  0.22522599  0.35962998  1
  Ni  Ni7  1  0.25000000  0.77477397  0.64036997  1
  Ni  Ni8  1  0.74999999  0.35375899  0.02807800  1
  Ni  Ni9  1  0.25000000  0.64624097  0.97192196  1
  Ni  Ni10  1  0.74999999  0.07629400  0.69400597  1
  Ni  Ni11  1  0.25000000  0.92370596  0.30599398  1
