# generated using pymatgen
data_YbCeIn2SnPd
_symmetry_space_group_name_H-M   'P 1'
_cell_length_a   4.94894600
_cell_length_b   4.94894600
_cell_length_c   7.76628208
_cell_angle_alpha   90.00000000
_cell_angle_beta   90.00000000
_cell_angle_gamma   120.00000000
_symmetry_Int_Tables_number   1
_chemical_formula_structural   YbCeIn2SnPd
_chemical_formula_sum   'Yb1 Ce1 In2 Sn1 Pd1'
_cell_volume   164.72868150
_cell_formula_units_Z   1
loop_
 _symmetry_equiv_pos_site_id
 _symmetry_equiv_pos_as_xyz
  1  'x, y, z'
loop_
 _atom_site_type_symbol
 _atom_site_label
 _atom_site_symmetry_multiplicity
 _atom_site_fract_x
 _atom_site_fract_y
 _atom_site_fract_z
 _atom_site_occupancy
  Ce  Ce0  1  0.00000000  0.00000000  0.73859799  1
  Yb  Yb1  1  0.00000000  0.00000000  0.26140200  1
  In  In2  1  0.66666667  0.33333334  0.52569799  1
  In  In3  1  0.33333334  0.66666667  0.47430200  1
  Sn  Sn4  1  0.33333334  0.66666667  0.05219000  1
  Pd  Pd5  1  0.66666667  0.33333334  0.94780999  1
