# generated using pymatgen
data_Al9B(Ru4Pt)2
_symmetry_space_group_name_H-M   'P 1'
_cell_length_a   5.82337284
_cell_length_b   5.82337284
_cell_length_c   9.37394905
_cell_angle_alpha   90.00000000
_cell_angle_beta   90.00000000
_cell_angle_gamma   90.00000000
_symmetry_Int_Tables_number   1
_chemical_formula_structural   Al9B(Ru4Pt)2
_chemical_formula_sum   'Al9 B1 Ru8 Pt2'
_cell_volume   317.88627847
_cell_formula_units_Z   1
loop_
 _symmetry_equiv_pos_site_id
 _symmetry_equiv_pos_as_xyz
  1  'x, y, z'
loop_
 _atom_site_type_symbol
 _atom_site_label
 _atom_site_symmetry_multiplicity
 _atom_site_fract_x
 _atom_site_fract_y
 _atom_site_fract_z
 _atom_site_occupancy
  Al  Al0  1  0.21755101  0.35034201  0.08491200  1
  Al  Al1  1  0.35034201  0.78244902  0.91508800  1
  Al  Al2  1  0.64965802  0.21755101  0.91508800  1
  Al  Al3  1  0.78244902  0.64965802  0.08491200  1
  Al  Al4  1  0.35034201  0.21755101  0.41508800  1
  Al  Al5  1  0.64965802  0.78244902  0.41508800  1
  Al  Al6  1  0.78244902  0.35034201  0.58491200  1
  Al  Al7  1  0.21755101  0.64965802  0.58491200  1
  Al  Al8  1  0.17111600  0.17111600  0.75000000  1
  Ru  Ru9  1  0.17111600  0.82888402  0.25000000  1
  Ru  Ru10  1  0.82888402  0.17111600  0.25000000  1
  Ru  Ru11  1  0.82888402  0.82888402  0.75000000  1
  Ru  Ru12  1  0.00000000  0.50000001  0.37575700  1
  Ru  Ru13  1  0.50000001  0.00000000  0.62424300  1
  Ru  Ru14  1  0.50000001  0.00000000  0.12424300  1
  Ru  Ru15  1  0.00000000  0.50000001  0.87575700  1
  B  B16  1  0.50000001  0.50000001  0.25000000  1
  Pt  Pt17  1  0.50000001  0.50000001  0.75000000  1
  Ru  Ru18  1  0.00000000  0.00000000  0.00000000  1
  Pt  Pt19  1  0.00000000  0.00000000  0.50000000  1
