# generated using pymatgen
data_Li5Mn(PO4)2
_symmetry_space_group_name_H-M   'P 1'
_cell_length_a   5.01094007
_cell_length_b   5.45632315
_cell_length_c   6.11800480
_cell_angle_alpha   90.00000000
_cell_angle_beta   92.30052185
_cell_angle_gamma   90.00000000
_symmetry_Int_Tables_number   1
_chemical_formula_structural   Li5Mn(PO4)2
_chemical_formula_sum   'Li5 Mn1 P2 O8'
_cell_volume   167.13943739
_cell_formula_units_Z   1
loop_
 _symmetry_equiv_pos_site_id
 _symmetry_equiv_pos_as_xyz
  1  'x, y, z'
loop_
 _atom_site_type_symbol
 _atom_site_label
 _atom_site_symmetry_multiplicity
 _atom_site_fract_x
 _atom_site_fract_y
 _atom_site_fract_z
 _atom_site_occupancy
  Li  Li0  1  0.50744999  0.17497600  0.00087001  1
  Li  Li1  1  0.50056299  0.65256398  0.74703803  1
  Li  Li2  1  0.00745000  0.82502398  0.50087001  1
  Li  Li3  1  0.00056300  0.34743599  0.24703801  1
  Mn  Mn4  1  0.99979999  0.83067698  0.98550504  1
  Li  Li5  1  0.49979999  0.16932300  0.48550502  1
  P  P6  1  0.00808800  0.31913999  0.74736502  1
  P  P7  1  0.50808799  0.68085998  0.24736502  1
  O  O8  1  0.90439299  0.17962400  0.96897004  1
  O  O9  1  0.89921999  0.60481198  0.74961004  1
  O  O10  1  0.33354900  0.31856299  0.74528702  1
  O  O11  1  0.89636599  0.17740700  0.52212403  1
  O  O12  1  0.40439299  0.82037598  0.46897002  1
  O  O13  1  0.39921999  0.39518799  0.24961001  1
  O  O14  1  0.83354899  0.68143698  0.24528703  1
  O  O15  1  0.39636599  0.82259298  0.02212401  1
