# generated using pymatgen
data_LiNd2Hf2Zr2NiO12
_symmetry_space_group_name_H-M   'P 1'
_cell_length_a   5.50625992
_cell_length_b   5.84690809
_cell_length_c   7.89366961
_cell_angle_alpha   90.00000000
_cell_angle_beta   89.72566986
_cell_angle_gamma   90.00000000
_symmetry_Int_Tables_number   1
_chemical_formula_structural   LiNd2Hf2Zr2NiO12
_chemical_formula_sum   'Li1 Nd2 Hf2 Zr2 Ni1 O12'
_cell_volume   254.13058839
_cell_formula_units_Z   1
loop_
 _symmetry_equiv_pos_site_id
 _symmetry_equiv_pos_as_xyz
  1  'x, y, z'
loop_
 _atom_site_type_symbol
 _atom_site_label
 _atom_site_symmetry_multiplicity
 _atom_site_fract_x
 _atom_site_fract_y
 _atom_site_fract_z
 _atom_site_occupancy
  Li  Li0  1  0.98127301  0.43107499  0.25099896  1
  Nd  Nd1  1  0.01872700  0.56892499  0.74900099  1
  Hf  Hf2  1  0.51872701  0.93107499  0.24900097  1
  Nd  Nd3  1  0.48127301  0.06892500  0.75099897  1
  Zr  Zr4  1  0.00000000  0.00000000  0.49999999  1
  Hf  Hf5  1  0.50000001  0.49999999  -0.00000002  1
  Zr  Zr6  1  0.00000000  0.00000000  0.00000000  1
  Ni  Ni7  1  0.50000001  0.49999999  0.49999997  1
  O  O8  1  0.10765000  0.03505900  0.24759899  1
  O  O9  1  0.89235001  0.96494098  0.75240095  1
  O  O10  1  0.39235001  0.53505899  0.25240098  1
  O  O11  1  0.60765001  0.46494099  0.74759896  1
  O  O12  1  0.81123601  0.70462099  0.05579097  1
  O  O13  1  0.18876400  0.29537900  0.94420898  1
  O  O14  1  0.68876401  0.20462100  0.44420896  1
  O  O15  1  0.31123600  0.79537899  0.55579098  1
  O  O16  1  0.69848201  0.19506900  0.05319097  1
  O  O17  1  0.30151800  0.80493099  0.94680897  1
  O  O18  1  0.80151801  0.69506899  0.44680896  1
  O  O19  1  0.19848200  0.30493100  0.55319098  1
