# generated using pymatgen
data_Ba2Bi5
_symmetry_space_group_name_H-M   'P 1'
_cell_length_a   8.27602959
_cell_length_b   8.27602959
_cell_length_c   8.27602959
_cell_angle_alpha   109.47122192
_cell_angle_beta   109.47122192
_cell_angle_gamma   109.47122192
_symmetry_Int_Tables_number   1
_chemical_formula_structural   Ba2Bi5
_chemical_formula_sum   'Ba4 Bi10'
_cell_volume   436.35925571
_cell_formula_units_Z   2
loop_
 _symmetry_equiv_pos_site_id
 _symmetry_equiv_pos_as_xyz
  1  'x, y, z'
loop_
 _atom_site_type_symbol
 _atom_site_label
 _atom_site_symmetry_multiplicity
 _atom_site_fract_x
 _atom_site_fract_y
 _atom_site_fract_z
 _atom_site_occupancy
  Ba  Ba0  1  0.00000003  0.50000003  0.14153903  1
  Ba  Ba1  1  0.64153908  1.00000006  1.00000009  1
  Ba  Ba2  1  0.50000005  0.64153904  0.50000006  1
  Ba  Ba3  1  0.85846108  0.85846105  0.35846107  1
  Bi  Bi4  1  0.14110407  1.00000006  1.00000008  1
  Bi  Bi5  1  0.00000003  0.50000003  0.64110404  1
  Bi  Bi6  1  0.50000002  0.14110401  0.50000003  1
  Bi  Bi7  1  0.35889603  0.35889602  0.85889604  1
  Bi  Bi8  1  0.37392306  0.75000004  0.12392305  1
  Bi  Bi9  1  0.12607702  0.25000001  0.37607702  1
  Bi  Bi10  1  0.75000006  0.62392304  0.87392307  1
  Bi  Bi11  1  0.25000006  0.87607705  0.62607707  1
  Bi  Bi12  1  0.62392304  0.37392302  0.25000004  1
  Bi  Bi13  1  0.87607703  0.12607701  0.75000004  1
