# generated using pymatgen
data_Se
_symmetry_space_group_name_H-M   'P 1'
_cell_length_a   3.56002808
_cell_length_b   3.56002831
_cell_length_c   40.10416412
_cell_angle_alpha   90.00000000
_cell_angle_beta   90.00000000
_cell_angle_gamma   120.00000000
_symmetry_Int_Tables_number   1
_chemical_formula_structural   Se
_chemical_formula_sum   Se12
_cell_volume   440.17662461
_cell_formula_units_Z   12
loop_
 _symmetry_equiv_pos_site_id
 _symmetry_equiv_pos_as_xyz
  1  'x, y, z'
loop_
 _atom_site_type_symbol
 _atom_site_label
 _atom_site_symmetry_multiplicity
 _atom_site_fract_x
 _atom_site_fract_y
 _atom_site_fract_z
 _atom_site_occupancy
  Se  Se0  1  0.00000000  0.00000000  0.67287800  1
  Se  Se1  1  0.00000000  0.00000000  0.29719200  1
  Se  Se2  1  0.66666667  0.33333334  0.95120000  1
  Se  Se3  1  0.66666667  0.33333334  0.57547500  1
  Se  Se4  1  0.66666667  0.33333334  0.86093400  1
  Se  Se5  1  0.66666667  0.33333334  0.48520300  1
  Se  Se6  1  0.00000000  0.00000000  0.76350700  1
  Se  Se7  1  0.00000000  0.00000000  0.38777300  1
  Se  Se8  1  0.00000000  0.00000000  0.90609000  1
  Se  Se9  1  0.00000000  0.00000000  0.53034000  1
  Se  Se10  1  0.66666667  0.33333334  0.71820500  1
  Se  Se11  1  0.66666667  0.33333334  0.34245500  1
