# generated using pymatgen
data_Ba2TeO3
_symmetry_space_group_name_H-M   'P 1'
_cell_length_a   3.86833906
_cell_length_b   3.86833906
_cell_length_c   8.79343891
_cell_angle_alpha   90.00000000
_cell_angle_beta   90.00000000
_cell_angle_gamma   90.00000000
_symmetry_Int_Tables_number   1
_chemical_formula_structural   Ba2TeO3
_chemical_formula_sum   'Ba2 Te1 O3'
_cell_volume   131.58543401
_cell_formula_units_Z   1
loop_
 _symmetry_equiv_pos_site_id
 _symmetry_equiv_pos_as_xyz
  1  'x, y, z'
loop_
 _atom_site_type_symbol
 _atom_site_label
 _atom_site_symmetry_multiplicity
 _atom_site_fract_x
 _atom_site_fract_y
 _atom_site_fract_z
 _atom_site_occupancy
  Ba  Ba0  1  0.00000000  0.49999999  0.12944700  1
  Ba  Ba1  1  0.49999999  0.00000000  0.87055301  1
  Te  Te2  1  0.00000000  0.49999999  0.67918001  1
  O  O3  1  0.49999999  0.00000000  0.32082000  1
  O  O4  1  0.00000000  0.00000000  0.00000000  1
  O  O5  1  0.49999999  0.49999999  0.00000000  1
