# generated using pymatgen
data_Li2Ca2Ni8Sn
_symmetry_space_group_name_H-M   'P 1'
_cell_length_a   4.17029762
_cell_length_b   4.17029762
_cell_length_c   17.04877663
_cell_angle_alpha   82.97486115
_cell_angle_beta   82.97486115
_cell_angle_gamma   60.00001144
_symmetry_Int_Tables_number   1
_chemical_formula_structural   Li2Ca2Ni8Sn
_chemical_formula_sum   'Li2 Ca2 Ni8 Sn1'
_cell_volume   254.20454459
_cell_formula_units_Z   1
loop_
 _symmetry_equiv_pos_site_id
 _symmetry_equiv_pos_as_xyz
  1  'x, y, z'
loop_
 _atom_site_type_symbol
 _atom_site_label
 _atom_site_symmetry_multiplicity
 _atom_site_fract_x
 _atom_site_fract_y
 _atom_site_fract_z
 _atom_site_occupancy
  Li  Li0  1  0.56584298  0.56584296  0.30247102  1
  Li  Li1  1  0.43415699  0.43415697  0.69752903  1
  Ca  Ca2  1  0.94955897  0.94955893  0.15132302  1
  Ca  Ca3  1  0.05044100  0.05044100  0.84867703  1
  Ni  Ni4  1  0.31747299  0.31747298  0.04758101  1
  Ni  Ni5  1  0.81479598  0.81479594  0.55561203  1
  Ni  Ni6  1  0.18520399  0.18520399  0.44438802  1
  Ni  Ni7  1  0.68252698  0.68252695  0.95241904  1
  Ni  Ni8  1  0.26567499  0.26567498  0.20297501  1
  Ni  Ni9  1  0.13504500  0.13504499  0.59486502  1
  Ni  Ni10  1  0.86495498  0.86495494  0.40513503  1
  Sn  Sn11  1  0.73432498  0.73432495  0.79702504  1
  Ni  Ni12  1  0.00000000  0.00000000  0.00000000  1
