# generated using pymatgen
data_Ca5Tl(SnO6)2
_symmetry_space_group_name_H-M   'P 1'
_cell_length_a   5.80943584
_cell_length_b   5.80943680
_cell_length_c   14.71512508
_cell_angle_alpha   90.00000000
_cell_angle_beta   90.00000000
_cell_angle_gamma   119.99999237
_symmetry_Int_Tables_number   1
_chemical_formula_structural   Ca5Tl(SnO6)2
_chemical_formula_sum   'Ca5 Tl1 Sn2 O12'
_cell_volume   430.09323795
_cell_formula_units_Z   1
loop_
 _symmetry_equiv_pos_site_id
 _symmetry_equiv_pos_as_xyz
  1  'x, y, z'
loop_
 _atom_site_type_symbol
 _atom_site_label
 _atom_site_symmetry_multiplicity
 _atom_site_fract_x
 _atom_site_fract_y
 _atom_site_fract_z
 _atom_site_occupancy
  Ca  Ca0  1  0.66666666  0.33333332  0.75000000  1
  Ca  Ca1  1  0.33333330  0.66666664  0.25000000  1
  Ca  Ca2  1  0.33333330  0.66666664  0.75000000  1
  Ca  Ca3  1  0.66666666  0.33333332  0.25000000  1
  Tl  Tl4  1  0.00000000  0.00000000  0.75000000  1
  Ca  Ca5  1  0.00000000  0.00000000  0.25000000  1
  Sn  Sn6  1  0.00000000  0.00000000  0.50000000  1
  Sn  Sn7  1  0.00000000  0.00000000  0.00000000  1
  O  O8  1  0.66462397  0.66462397  0.85611700  1
  O  O9  1  1.00000000  0.33537598  0.85611700  1
  O  O10  1  0.33537594  0.99999995  0.85611700  1
  O  O11  1  0.66462402  0.00000000  0.35611700  1
  O  O12  1  0.33537594  0.99999995  0.64388300  1
  O  O13  1  0.33537599  0.33537598  0.35611700  1
  O  O14  1  0.99999998  0.66462397  0.35611700  1
  O  O15  1  0.99999998  0.66462397  0.14388300  1
  O  O16  1  0.66462402  0.00000000  0.14388300  1
  O  O17  1  1.00000000  0.33537598  0.64388300  1
  O  O18  1  0.66462397  0.66462397  0.64388300  1
  O  O19  1  0.33537599  0.33537598  0.14388300  1
