# generated using pymatgen
data_Dy3ErGe4
_symmetry_space_group_name_H-M   'P 1'
_cell_length_a   3.95412707
_cell_length_b   5.89159107
_cell_length_c   8.20955944
_cell_angle_alpha   90.00000000
_cell_angle_beta   90.00000000
_cell_angle_gamma   90.00000000
_symmetry_Int_Tables_number   1
_chemical_formula_structural   Dy3ErGe4
_chemical_formula_sum   'Dy3 Er1 Ge4'
_cell_volume   191.25071574
_cell_formula_units_Z   1
loop_
 _symmetry_equiv_pos_site_id
 _symmetry_equiv_pos_as_xyz
  1  'x, y, z'
loop_
 _atom_site_type_symbol
 _atom_site_label
 _atom_site_symmetry_multiplicity
 _atom_site_fract_x
 _atom_site_fract_y
 _atom_site_fract_z
 _atom_site_occupancy
  Dy  Dy0  1  -0.00000000  0.13367100  0.68103496  1
  Dy  Dy1  1  -0.00000000  0.86632899  0.18103499  1
  Dy  Dy2  1  0.49999999  0.36259900  0.31972398  1
  Er  Er3  1  0.49999999  0.63740099  0.81972396  1
  Ge  Ge4  1  0.49999999  0.88007499  0.46273098  1
  Ge  Ge5  1  0.49999999  0.11992500  0.96273095  1
  Ge  Ge6  1  -0.00000000  0.62209199  0.53650997  1
  Ge  Ge7  1  -0.00000000  0.37790800  0.03651000  1
