# generated using pymatgen
data_TiNi2
_symmetry_space_group_name_H-M   'P 1'
_cell_length_a   4.71323061
_cell_length_b   4.71323061
_cell_length_c   7.50546980
_cell_angle_alpha   90.00000000
_cell_angle_beta   90.00000000
_cell_angle_gamma   119.65267944
_symmetry_Int_Tables_number   1
_chemical_formula_structural   TiNi2
_chemical_formula_sum   'Ti4 Ni8'
_cell_volume   144.89561276
_cell_formula_units_Z   4
loop_
 _symmetry_equiv_pos_site_id
 _symmetry_equiv_pos_as_xyz
  1  'x, y, z'
loop_
 _atom_site_type_symbol
 _atom_site_label
 _atom_site_symmetry_multiplicity
 _atom_site_fract_x
 _atom_site_fract_y
 _atom_site_fract_z
 _atom_site_occupancy
  Ti  Ti0  1  0.66726298  0.33273699  0.18427000  1
  Ti  Ti1  1  0.33356796  0.66643198  0.31026201  1
  Ti  Ti2  1  0.33356796  0.66643198  0.68973802  1
  Ti  Ti3  1  0.66726298  0.33273699  0.81573002  1
  Ni  Ni4  1  0.01036894  0.98963097  0.75701702  1
  Ni  Ni5  1  0.01036894  0.98963097  0.24298301  1
  Ni  Ni6  1  0.81632999  0.18367000  0.50000001  1
  Ni  Ni7  1  0.82519096  0.67247198  0.50000001  1
  Ni  Ni8  1  0.32752799  0.17480900  0.50000001  1
  Ni  Ni9  1  0.17414295  0.82585698  -0.00000000  1
  Ni  Ni10  1  0.17104398  0.33665999  -0.00000000  1
  Ni  Ni11  1  0.66333995  0.82895598  -0.00000000  1
