# generated using pymatgen
data_LiCa3Mn2AlNiO8
_symmetry_space_group_name_H-M   'P 1'
_cell_length_a   5.78535652
_cell_length_b   5.78535652
_cell_length_c   7.63082695
_cell_angle_alpha   89.71380615
_cell_angle_beta   89.71380615
_cell_angle_gamma   85.71945190
_symmetry_Int_Tables_number   1
_chemical_formula_structural   LiCa3Mn2AlNiO8
_chemical_formula_sum   'Li1 Ca3 Mn2 Al1 Ni1 O8'
_cell_volume   254.68808781
_cell_formula_units_Z   1
loop_
 _symmetry_equiv_pos_site_id
 _symmetry_equiv_pos_as_xyz
  1  'x, y, z'
loop_
 _atom_site_type_symbol
 _atom_site_label
 _atom_site_symmetry_multiplicity
 _atom_site_fract_x
 _atom_site_fract_y
 _atom_site_fract_z
 _atom_site_occupancy
  Li  Li0  1  0.70289799  0.70289800  0.82234207  1
  Ca  Ca1  1  0.21852099  0.78147900  0.50000005  1
  Ca  Ca2  1  0.29710200  0.29710200  0.17765803  1
  Ca  Ca3  1  0.78147900  0.21852100  0.50000005  1
  Mn  Mn4  1  0.17754899  0.82245100  1.00000006  1
  Mn  Mn5  1  0.82245100  0.17754900  0.00000004  1
  Al  Al6  1  0.71438299  0.71438300  0.24461906  1
  Ni  Ni7  1  0.28561700  0.28561700  0.75538104  1
  O  O8  1  0.56593100  0.20600700  0.82846605  1
  O  O9  1  0.09396800  0.09396800  0.84208903  1
  O  O10  1  0.20600699  0.56593100  0.82846605  1
  O  O11  1  0.90603199  0.90603200  0.15791107  1
  O  O12  1  0.27766100  0.27766100  0.52688603  1
  O  O13  1  0.79399300  0.43406900  0.17153405  1
  O  O14  1  0.43406899  0.79399300  0.17153405  1
  O  O15  1  0.72233899  0.72233900  0.47311406  1
