# generated using pymatgen
data_TlCuNCl3
_symmetry_space_group_name_H-M   'P 1'
_cell_length_a   4.07777500
_cell_length_b   4.07775211
_cell_length_c   9.37533188
_cell_angle_alpha   90.00022125
_cell_angle_beta   89.99987030
_cell_angle_gamma   89.99951935
_symmetry_Int_Tables_number   1
_chemical_formula_structural   TlCuNCl3
_chemical_formula_sum   'Tl1 Cu1 N1 Cl3'
_cell_volume   155.89447756
_cell_formula_units_Z   1
loop_
 _symmetry_equiv_pos_site_id
 _symmetry_equiv_pos_as_xyz
  1  'x, y, z'
loop_
 _atom_site_type_symbol
 _atom_site_label
 _atom_site_symmetry_multiplicity
 _atom_site_fract_x
 _atom_site_fract_y
 _atom_site_fract_z
 _atom_site_occupancy
  Cu  Cu0  1  0.50000100  0.00000000  0.12169601  1
  Tl  Tl1  1  0.99999897  0.49999899  0.87834102  1
  Cl  Cl2  1  0.50000000  0.00000000  0.67373202  1
  Cl  Cl3  1  -0.00000003  0.49999999  0.32625800  1
  Cl  Cl4  1  0.00000000  0.00000000  0.99998701  1
  N  N5  1  0.49999997  0.49999999  0.99998701  1
