# generated using pymatgen
data_HfTaTiZn5
_symmetry_space_group_name_H-M   'P 1'
_cell_length_a   4.81589079
_cell_length_b   5.85863781
_cell_length_c   5.85863876
_cell_angle_alpha   60.00000381
_cell_angle_beta   90.00000000
_cell_angle_gamma   90.00000000
_symmetry_Int_Tables_number   1
_chemical_formula_structural   HfTaTiZn5
_chemical_formula_sum   'Hf1 Ta1 Ti1 Zn5'
_cell_volume   143.15306434
_cell_formula_units_Z   1
loop_
 _symmetry_equiv_pos_site_id
 _symmetry_equiv_pos_as_xyz
  1  'x, y, z'
loop_
 _atom_site_type_symbol
 _atom_site_label
 _atom_site_symmetry_multiplicity
 _atom_site_fract_x
 _atom_site_fract_y
 _atom_site_fract_z
 _atom_site_occupancy
  Ta  Ta0  1  0.75000003  0.66666668  0.66666665  1
  Hf  Hf1  1  0.25000001  0.33333334  0.33333333  1
  Zn  Zn2  1  0.75000003  0.66350702  0.16824700  1
  Ti  Ti3  1  0.75000003  0.16824600  0.16824700  1
  Zn  Zn4  1  0.75000003  0.16824600  0.66350798  1
  Zn  Zn5  1  0.25000001  0.83175402  0.33649200  1
  Zn  Zn6  1  0.25000001  0.83175402  0.83175298  1
  Zn  Zn7  1  0.25000001  0.33649301  0.83175298  1
