# generated using pymatgen
data_Ce5Sn3
_symmetry_space_group_name_H-M   'P 1'
_cell_length_a   5.99320602
_cell_length_b   9.19579697
_cell_length_c   9.19579697
_cell_angle_alpha   83.90431976
_cell_angle_beta   70.98191071
_cell_angle_gamma   70.98191071
_symmetry_Int_Tables_number   1
_chemical_formula_structural   Ce5Sn3
_chemical_formula_sum   'Ce10 Sn6'
_cell_volume   452.98478290
_cell_formula_units_Z   2
loop_
 _symmetry_equiv_pos_site_id
 _symmetry_equiv_pos_as_xyz
  1  'x, y, z'
loop_
 _atom_site_type_symbol
 _atom_site_label
 _atom_site_symmetry_multiplicity
 _atom_site_fract_x
 _atom_site_fract_y
 _atom_site_fract_z
 _atom_site_occupancy
  Ce  Ce0  1  0.28053500  0.13621300  0.30271697  1
  Ce  Ce1  1  0.71946495  0.86378698  0.69728290  1
  Ce  Ce2  1  0.41674899  0.30271599  0.86378693  1
  Ce  Ce3  1  0.78053599  0.30271599  0.13621295  1
  Ce  Ce4  1  0.08325199  0.13621300  0.69728296  1
  Ce  Ce5  1  0.74999998  0.49999999  0.49999993  1
  Ce  Ce6  1  0.24999997  0.49999999  0.49999995  1
  Ce  Ce7  1  0.21946396  0.69728398  0.86378692  1
  Ce  Ce8  1  0.58325096  0.69728398  0.13621294  1
  Ce  Ce9  1  0.91674796  0.86378698  0.30271691  1
  Sn  Sn10  1  0.16135997  0.49999999  0.17727996  1
  Sn  Sn11  1  0.66136000  0.17728000  0.49999995  1
  Sn  Sn12  1  0.75000001  0.00000000  -0.00000003  1
  Sn  Sn13  1  0.33863995  0.82271998  0.49999993  1
  Sn  Sn14  1  0.83863998  0.49999999  0.82271991  1
  Sn  Sn15  1  0.25000000  0.00000000  -0.00000001  1
