# generated using pymatgen
data_CaNdScTiP4
_symmetry_space_group_name_H-M   'P 1'
_cell_length_a   3.24434996
_cell_length_b   5.69914627
_cell_length_c   9.06765079
_cell_angle_alpha   90.00000000
_cell_angle_beta   90.00000000
_cell_angle_gamma   106.53701782
_symmetry_Int_Tables_number   1
_chemical_formula_structural   CaNdScTiP4
_chemical_formula_sum   'Ca1 Nd1 Sc1 Ti1 P4'
_cell_volume   160.72596244
_cell_formula_units_Z   1
loop_
 _symmetry_equiv_pos_site_id
 _symmetry_equiv_pos_as_xyz
  1  'x, y, z'
loop_
 _atom_site_type_symbol
 _atom_site_label
 _atom_site_symmetry_multiplicity
 _atom_site_fract_x
 _atom_site_fract_y
 _atom_site_fract_z
 _atom_site_occupancy
  Nd  Nd0  1  0.13693301  0.27386600  0.55889301  1
  Ca  Ca1  1  0.86306704  0.72613400  0.44110701  1
  Sc  Sc2  1  0.13693301  0.27386600  0.94110702  1
  Ti  Ti3  1  0.86306704  0.72613400  0.05889300  1
  P  P4  1  0.42674104  0.85348200  0.75000002  1
  P  P5  1  0.57325901  0.14651800  0.25000001  1
  P  P6  1  0.73443203  0.46886400  0.75000002  1
  P  P7  1  0.26556803  0.53113600  0.25000001  1
