# generated using pymatgen
data_Li2FeO4
_symmetry_space_group_name_H-M   'P 1'
_cell_length_a   5.65968990
_cell_length_b   5.74753284
_cell_length_c   5.74096012
_cell_angle_alpha   119.96217346
_cell_angle_beta   90.00000000
_cell_angle_gamma   119.49569702
_symmetry_Int_Tables_number   1
_chemical_formula_structural   Li2FeO4
_chemical_formula_sum   'Li4 Fe2 O8'
_cell_volume   133.12410588
_cell_formula_units_Z   2
loop_
 _symmetry_equiv_pos_site_id
 _symmetry_equiv_pos_as_xyz
  1  'x, y, z'
loop_
 _atom_site_type_symbol
 _atom_site_label
 _atom_site_symmetry_multiplicity
 _atom_site_fract_x
 _atom_site_fract_y
 _atom_site_fract_z
 _atom_site_occupancy
  Li  Li0  1  0.50000001  0.00000000  0.49999999  1
  Li  Li1  1  0.49999998  0.99999999  0.99999991  1
  Li  Li2  1  -0.00000001  0.49999999  0.49999996  1
  Li  Li3  1  0.50000000  0.49999999  0.49999996  1
  Fe  Fe4  1  0.00000000  0.00000000  0.49999999  1
  Fe  Fe5  1  0.00000000  0.00000000  0.00000000  1
  O  O6  1  0.25510100  0.04522200  0.27261099  1
  O  O7  1  0.79012101  0.04522200  0.27261099  1
  O  O8  1  0.74976800  0.49953599  0.28510796  1
  O  O9  1  0.74976800  0.49953599  0.71442795  1
  O  O10  1  0.25023199  0.50046399  0.28557196  1
  O  O11  1  0.25023199  0.50046399  0.71489195  1
  O  O12  1  0.20987898  0.95477799  0.72738892  1
  O  O13  1  0.74489899  0.95477799  0.72738892  1
