# generated using pymatgen
data_Ce4Ru7Rh
_symmetry_space_group_name_H-M   'P 1'
_cell_length_a   5.25630999
_cell_length_b   5.25630999
_cell_length_c   8.90036488
_cell_angle_alpha   90.00000000
_cell_angle_beta   90.00000000
_cell_angle_gamma   120.00000000
_symmetry_Int_Tables_number   1
_chemical_formula_structural   Ce4Ru7Rh
_chemical_formula_sum   'Ce4 Ru7 Rh1'
_cell_volume   212.96114921
_cell_formula_units_Z   1
loop_
 _symmetry_equiv_pos_site_id
 _symmetry_equiv_pos_as_xyz
  1  'x, y, z'
loop_
 _atom_site_type_symbol
 _atom_site_label
 _atom_site_symmetry_multiplicity
 _atom_site_fract_x
 _atom_site_fract_y
 _atom_site_fract_z
 _atom_site_occupancy
  Ce  Ce0  1  0.66666667  0.33333334  0.56694201  1
  Ce  Ce1  1  0.33333334  0.66666667  0.43305801  1
  Ce  Ce2  1  0.33333334  0.66666667  0.06694200  1
  Ce  Ce3  1  0.66666667  0.33333334  0.93305801  1
  Ru  Ru4  1  0.82908200  0.17091800  0.25000000  1
  Ru  Ru5  1  0.82908200  0.65816400  0.25000000  1
  Ru  Ru6  1  0.65816400  0.82908200  0.75000001  1
  Ru  Ru7  1  0.17091800  0.82908200  0.75000001  1
  Ru  Ru8  1  0.34183600  0.17091800  0.25000000  1
  Rh  Rh9  1  0.00000000  0.00000000  0.00000000  1
  Ru  Ru10  1  0.17091800  0.34183600  0.75000001  1
  Ru  Ru11  1  0.00000000  0.00000000  0.50000001  1
