# generated using pymatgen
data_Te2HWI
_symmetry_space_group_name_H-M   'P 1'
_cell_length_a   5.00960159
_cell_length_b   5.01165199
_cell_length_c   5.01240683
_cell_angle_alpha   90.00405884
_cell_angle_beta   90.04371643
_cell_angle_gamma   89.99317932
_symmetry_Int_Tables_number   1
_chemical_formula_structural   Te2HWI
_chemical_formula_sum   'Te2 H1 W1 I1'
_cell_volume   125.84335168
_cell_formula_units_Z   1
loop_
 _symmetry_equiv_pos_site_id
 _symmetry_equiv_pos_as_xyz
  1  'x, y, z'
loop_
 _atom_site_type_symbol
 _atom_site_label
 _atom_site_symmetry_multiplicity
 _atom_site_fract_x
 _atom_site_fract_y
 _atom_site_fract_z
 _atom_site_occupancy
  Te  Te0  1  0.00862798  0.99737500  0.00595001  1
  W  W1  1  0.51249798  0.49801100  0.50491305  1
  Te  Te2  1  0.51436599  0.00016400  0.50265705  1
  H  H3  1  0.01271299  0.50459600  0.49486002  1
  I  I4  1  0.51179498  0.49985300  0.00162403  1
