# generated using pymatgen
data_Nd6Ni11Ru3
_symmetry_space_group_name_H-M   'P 1'
_cell_length_a   5.83159113
_cell_length_b   8.15751743
_cell_length_c   8.15751743
_cell_angle_alpha   73.86183929
_cell_angle_beta   69.05714417
_cell_angle_gamma   69.05714417
_symmetry_Int_Tables_number   1
_chemical_formula_structural   Nd6Ni11Ru3
_chemical_formula_sum   'Nd6 Ni11 Ru3'
_cell_volume   333.42849159
_cell_formula_units_Z   1
loop_
 _symmetry_equiv_pos_site_id
 _symmetry_equiv_pos_as_xyz
  1  'x, y, z'
loop_
 _atom_site_type_symbol
 _atom_site_label
 _atom_site_symmetry_multiplicity
 _atom_site_fract_x
 _atom_site_fract_y
 _atom_site_fract_z
 _atom_site_occupancy
  Nd  Nd0  1  0.36668900  0.39467099  0.87194999  1
  Nd  Nd1  1  0.63331100  0.60532898  0.12805001  1
  Nd  Nd2  1  0.86668901  0.87194997  0.39467101  1
  Nd  Nd3  1  0.13331100  0.12805000  0.60532899  1
  Nd  Nd4  1  0.24999999  0.00000000  0.00000001  1
  Nd  Nd5  1  0.74999997  0.00000000  0.00000002  1
  Ni  Ni6  1  0.13621202  0.47793999  0.24963600  1
  Ni  Ni7  1  0.86378799  0.52205998  0.75036401  1
  Ni  Ni8  1  0.63621199  0.24963599  0.47794001  1
  Ni  Ni9  1  0.36378802  0.75036398  0.52206000  1
  Ni  Ni10  1  0.25000001  0.49999998  0.49999999  1
  Ni  Ni11  1  0.75000000  0.49999998  0.50000001  1
  Ni  Ni12  1  0.01293401  0.23706599  0.23706599  1
  Ni  Ni13  1  0.48706602  0.76293398  0.76293399  1
  Ni  Ni14  1  0.98706600  0.76293398  0.76293401  1
  Ni  Ni15  1  0.51293399  0.23706599  0.23706601  1
  Ru  Ru16  1  0.10031903  0.74569298  0.05367000  1
  Ru  Ru17  1  0.89968098  0.25430699  0.94633000  1
  Ru  Ru18  1  0.60031898  0.05367000  0.74569300  1
  Ni  Ni19  1  0.39968103  0.94632997  0.25430700  1
