# generated using pymatgen
data_NbFe3
_symmetry_space_group_name_H-M   'P 1'
_cell_length_a   4.49386311
_cell_length_b   5.58187199
_cell_length_c   5.58187103
_cell_angle_alpha   120.00000763
_cell_angle_beta   90.00000000
_cell_angle_gamma   90.00000000
_symmetry_Int_Tables_number   1
_chemical_formula_structural   NbFe3
_chemical_formula_sum   'Nb2 Fe6'
_cell_volume   121.25791802
_cell_formula_units_Z   2
loop_
 _symmetry_equiv_pos_site_id
 _symmetry_equiv_pos_as_xyz
  1  'x, y, z'
loop_
 _atom_site_type_symbol
 _atom_site_label
 _atom_site_symmetry_multiplicity
 _atom_site_fract_x
 _atom_site_fract_y
 _atom_site_fract_z
 _atom_site_occupancy
  Nb  Nb0  1  0.24999999  0.66666669  0.33333338  1
  Nb  Nb1  1  0.74999998  0.33333334  0.66666670  1
  Fe  Fe2  1  0.74999998  0.83172902  0.16827005  1
  Fe  Fe3  1  0.74999998  0.33654101  0.16827002  1
  Fe  Fe4  1  0.74999998  0.83172902  0.66345806  1
  Fe  Fe5  1  0.24999999  0.16827100  0.83173003  1
  Fe  Fe6  1  0.24999999  0.66345902  0.83173006  1
  Fe  Fe7  1  0.24999999  0.16827100  0.33654202  1
