# generated using pymatgen
data_Li6Ni5O
_symmetry_space_group_name_H-M   'P 1'
_cell_length_a   6.12236547
_cell_length_b   6.13910818
_cell_length_c   6.16177320
_cell_angle_alpha   60.12160492
_cell_angle_beta   80.54827118
_cell_angle_gamma   70.75272369
_symmetry_Int_Tables_number   1
_chemical_formula_structural   Li6Ni5O
_chemical_formula_sum   'Li6 Ni5 O1'
_cell_volume   189.58846210
_cell_formula_units_Z   1
loop_
 _symmetry_equiv_pos_site_id
 _symmetry_equiv_pos_as_xyz
  1  'x, y, z'
loop_
 _atom_site_type_symbol
 _atom_site_label
 _atom_site_symmetry_multiplicity
 _atom_site_fract_x
 _atom_site_fract_y
 _atom_site_fract_z
 _atom_site_occupancy
  Li  Li0  1  0.75000001  0.08206900  0.83586201  1
  Li  Li1  1  0.25000002  0.91793097  0.16413800  1
  Li  Li2  1  0.75000002  0.75096097  0.49807801  1
  Li  Li3  1  0.75000002  0.41676298  0.16647400  1
  Li  Li4  1  0.25000001  0.24903899  0.50192200  1
  Li  Li5  1  0.25000001  0.58323698  0.83352601  1
  Ni  Ni6  1  0.99957102  0.32093999  0.83929101  1
  Ni  Ni7  1  0.49957101  0.16023099  0.16070900  1
  Ni  Ni8  1  0.50000002  0.49999998  0.50000001  1
  O  O9  1  0.50042902  0.83976897  0.83929101  1
  Ni  Ni10  1  0.00000000  0.00000000  0.50000000  1
  Ni  Ni11  1  0.00042901  0.67905997  0.16070900  1
