# generated using pymatgen
data_Al
_symmetry_space_group_name_H-M   'P 1'
_cell_length_a   4.72505903
_cell_length_b   6.49634600
_cell_length_c   6.49634600
_cell_angle_alpha   82.07466125
_cell_angle_beta   68.67421722
_cell_angle_gamma   68.67420959
_symmetry_Int_Tables_number   1
_chemical_formula_structural   Al
_chemical_formula_sum   Al13
_cell_volume   173.03258796
_cell_formula_units_Z   13
loop_
 _symmetry_equiv_pos_site_id
 _symmetry_equiv_pos_as_xyz
  1  'x, y, z'
loop_
 _atom_site_type_symbol
 _atom_site_label
 _atom_site_symmetry_multiplicity
 _atom_site_fract_x
 _atom_site_fract_y
 _atom_site_fract_z
 _atom_site_occupancy
  Al  Al0  1  0.00000000  0.00000000  0.00000000  1
  Al  Al1  1  0.50000002  0.78310002  0.21689997  1
  Al  Al2  1  0.50000000  0.21690000  0.78309997  1
  Al  Al3  1  0.72487802  0.77512202  0.77512196  1
  Al  Al4  1  0.27512200  0.22487800  0.22487799  1
  Al  Al5  1  0.00000000  0.00000000  0.49999998  1
  Al  Al6  1  0.50000000  0.00000000  0.49999999  1
  Al  Al7  1  0.50000001  0.50000001  0.99999996  1
  Al  Al8  1  1.00000001  0.50000001  -0.00000001  1
  Al  Al9  1  0.00000001  0.35738101  0.64261897  1
  Al  Al10  1  0.00000002  0.64261901  0.35738097  1
  Al  Al11  1  0.64247901  0.35752101  0.35752098  1
  Al  Al12  1  0.35752102  0.64247901  0.64247896  1
