# generated using pymatgen
data_Ba3CaBi2SbO13
_symmetry_space_group_name_H-M   'P 1'
_cell_length_a   3.15141606
_cell_length_b   9.38864899
_cell_length_c   9.38864899
_cell_angle_alpha   90.00000000
_cell_angle_beta   90.00000000
_cell_angle_gamma   90.00000000
_symmetry_Int_Tables_number   1
_chemical_formula_structural   Ba3CaBi2SbO13
_chemical_formula_sum   'Ba3 Ca1 Bi2 Sb1 O13'
_cell_volume   277.78702021
_cell_formula_units_Z   1
loop_
 _symmetry_equiv_pos_site_id
 _symmetry_equiv_pos_as_xyz
  1  'x, y, z'
loop_
 _atom_site_type_symbol
 _atom_site_label
 _atom_site_symmetry_multiplicity
 _atom_site_fract_x
 _atom_site_fract_y
 _atom_site_fract_z
 _atom_site_occupancy
  Ca  Ca0  1  0.99999998  0.67516100  0.17516100  1
  Ba  Ba1  1  0.00000000  0.32483900  0.82483900  1
  Ba  Ba2  1  0.00000000  0.17516100  0.32483900  1
  Ba  Ba3  1  0.00000000  0.82483900  0.67516100  1
  Bi  Bi4  1  0.00000000  0.00000000  0.00000000  1
  Bi  Bi5  1  -0.00000000  0.50000000  0.50000000  1
  Sb  Sb6  1  0.00000000  0.12199000  0.62199000  1
  O  O7  1  0.00000000  0.87801000  0.37801000  1
  O  O8  1  0.00000000  0.62199000  0.87801000  1
  O  O9  1  0.99999998  0.37801000  0.12199000  1
  O  O10  1  0.49999999  0.21703600  0.07149100  1
  O  O11  1  0.49999999  0.78296400  0.92850900  1
  O  O12  1  0.49999999  0.07149100  0.78296400  1
  O  O13  1  0.49999999  0.71703600  0.42850900  1
  O  O14  1  0.49999999  0.92850900  0.21703600  1
  O  O15  1  0.49999999  0.28296400  0.57149100  1
  O  O16  1  0.49999999  0.57149100  0.71703600  1
  O  O17  1  0.49999999  0.42850900  0.28296400  1
  O  O18  1  0.49999999  0.50000000  0.00000000  1
  O  O19  1  0.49999999  0.00000000  0.50000000  1
