# generated using pymatgen
data_Li2MnO4
_symmetry_space_group_name_H-M   'P 1'
_cell_length_a   6.06916094
_cell_length_b   6.06916094
_cell_length_c   6.97506332
_cell_angle_alpha   103.76571655
_cell_angle_beta   103.76571655
_cell_angle_gamma   116.94020081
_symmetry_Int_Tables_number   1
_chemical_formula_structural   Li2MnO4
_chemical_formula_sum   'Li4 Mn2 O8'
_cell_volume   203.95789668
_cell_formula_units_Z   2
loop_
 _symmetry_equiv_pos_site_id
 _symmetry_equiv_pos_as_xyz
  1  'x, y, z'
loop_
 _atom_site_type_symbol
 _atom_site_label
 _atom_site_symmetry_multiplicity
 _atom_site_fract_x
 _atom_site_fract_y
 _atom_site_fract_z
 _atom_site_occupancy
  Li  Li0  1  0.25000000  0.75000002  0.49999999  1
  Li  Li1  1  0.00000000  0.00000000  0.00000000  1
  Li  Li2  1  0.90638603  0.09361400  0.49999999  1
  Li  Li3  1  0.59361402  0.40638601  0.49999999  1
  Mn  Mn4  1  0.65638602  0.34361401  -0.00000000  1
  Mn  Mn5  1  0.34361401  0.65638602  -0.00000000  1
  O  O6  1  0.26510801  0.53738802  0.65499398  1
  O  O7  1  0.38988601  0.11760700  0.65499399  1
  O  O8  1  0.78738802  0.01510800  0.15499500  1
  O  O9  1  0.36760701  0.13988600  0.15499500  1
  O  O10  1  0.88239302  0.61011402  0.34500499  1
  O  O11  1  0.46261201  0.73489202  0.34500499  1
  O  O12  1  0.86011402  0.63239302  0.84500598  1
  O  O13  1  0.98489203  0.21261201  0.84500598  1
