# generated using pymatgen
data_Hf2TiGa5Ni8
_symmetry_space_group_name_H-M   'P 1'
_cell_length_a   3.97443700
_cell_length_b   7.98070288
_cell_length_c   7.98070288
_cell_angle_alpha   90.00000000
_cell_angle_beta   90.00000000
_cell_angle_gamma   90.00000000
_symmetry_Int_Tables_number   1
_chemical_formula_structural   Hf2TiGa5Ni8
_chemical_formula_sum   'Hf2 Ti1 Ga5 Ni8'
_cell_volume   253.13832470
_cell_formula_units_Z   1
loop_
 _symmetry_equiv_pos_site_id
 _symmetry_equiv_pos_as_xyz
  1  'x, y, z'
loop_
 _atom_site_type_symbol
 _atom_site_label
 _atom_site_symmetry_multiplicity
 _atom_site_fract_x
 _atom_site_fract_y
 _atom_site_fract_z
 _atom_site_occupancy
  Ti  Ti0  1  0.50000000  0.00000000  0.24454500  1
  Hf  Hf1  1  0.50000000  0.00000000  0.75545501  1
  Ni  Ni2  1  0.50000000  0.24454500  0.00000000  1
  Hf  Hf3  1  0.50000000  0.75545501  -0.00000000  1
  Ga  Ga4  1  0.00000000  0.50000001  0.00000000  1
  Ga  Ga5  1  0.00000000  0.00000000  0.50000001  1
  Ga  Ga6  1  0.00000000  0.00000000  0.00000000  1
  Ga  Ga7  1  0.00000000  0.50000001  0.50000001  1
  Ni  Ni8  1  0.00000000  0.23966000  0.23966000  1
  Ga  Ga9  1  0.00000000  0.76034001  0.76034001  1
  Ni  Ni10  1  0.00000000  0.23966000  0.76034001  1
  Ni  Ni11  1  0.00000000  0.76034001  0.23966000  1
  Ni  Ni12  1  0.50000000  0.50000001  0.24113500  1
  Ni  Ni13  1  0.50000000  0.50000001  0.75886501  1
  Ni  Ni14  1  0.50000000  0.24113500  0.50000001  1
  Ni  Ni15  1  0.50000000  0.75886501  0.50000001  1
