# generated using pymatgen
data_Ce3GaPd8
_symmetry_space_group_name_H-M   'P 1'
_cell_length_a   4.10256481
_cell_length_b   5.59041309
_cell_length_c   7.90854120
_cell_angle_alpha   90.00000000
_cell_angle_beta   90.00000000
_cell_angle_gamma   90.00000000
_symmetry_Int_Tables_number   1
_chemical_formula_structural   Ce3GaPd8
_chemical_formula_sum   'Ce3 Ga1 Pd8'
_cell_volume   181.38264587
_cell_formula_units_Z   1
loop_
 _symmetry_equiv_pos_site_id
 _symmetry_equiv_pos_as_xyz
  1  'x, y, z'
loop_
 _atom_site_type_symbol
 _atom_site_label
 _atom_site_symmetry_multiplicity
 _atom_site_fract_x
 _atom_site_fract_y
 _atom_site_fract_z
 _atom_site_occupancy
  Ce  Ce0  1  0.75000003  0.20501100  0.39200399  1
  Ce  Ce1  1  0.25000001  0.79498899  0.60799598  1
  Ce  Ce2  1  0.75000003  0.70501099  0.10799600  1
  Ga  Ga3  1  0.25000001  0.29498900  0.89200398  1
  Pd  Pd4  1  0.75000003  0.16423500  0.06641100  1
  Pd  Pd5  1  0.25000001  0.83576499  0.93358898  1
  Pd  Pd6  1  0.75000003  0.66423499  0.43358899  1
  Pd  Pd7  1  0.25000001  0.33576499  0.56641099  1
  Pd  Pd8  1  0.75000003  0.04130600  0.70806498  1
  Pd  Pd9  1  0.25000001  0.95869398  0.29193499  1
  Pd  Pd10  1  0.75000003  0.54130599  0.79193498  1
  Pd  Pd11  1  0.25000001  0.45869399  0.20806499  1
