# generated using pymatgen
data_H2
_symmetry_space_group_name_H-M   'P 1'
_cell_length_a   5.06940031
_cell_length_b   5.06940031
_cell_length_c   5.06940079
_cell_angle_alpha   79.48020172
_cell_angle_beta   79.48020172
_cell_angle_gamma   79.48020172
_symmetry_Int_Tables_number   1
_chemical_formula_structural   H2
_chemical_formula_sum   H12
_cell_volume   124.42505647
_cell_formula_units_Z   6
loop_
 _symmetry_equiv_pos_site_id
 _symmetry_equiv_pos_as_xyz
  1  'x, y, z'
loop_
 _atom_site_type_symbol
 _atom_site_label
 _atom_site_symmetry_multiplicity
 _atom_site_fract_x
 _atom_site_fract_y
 _atom_site_fract_z
 _atom_site_occupancy
  H  H0  1  0.00000000  0.00000000  0.00000000  1
  H  H1  1  0.30669399  0.30669401  0.30669399  1
  H  H2  1  0.69330598  0.69330602  0.69330598  1
  H  H3  1  0.23059097  0.76940902  0.49999999  1
  H  H4  1  0.76940899  0.50000002  0.23059097  1
  H  H5  1  0.50000000  0.23059101  0.76940901  1
  H  H6  1  0.23059098  0.50000002  0.76940901  1
  H  H7  1  0.49999998  0.76940902  0.23059097  1
  H  H8  1  0.76940901  0.23059101  0.49999999  1
  H  H9  1  0.00000000  0.00000000  0.50000002  1
  H  H10  1  -0.00000002  0.50000002  -0.00000001  1
  H  H11  1  0.50000001  0.00000000  1.00000002  1
