# generated using pymatgen
data_AcPrTh2
_symmetry_space_group_name_H-M   'P 1'
_cell_length_a   5.21173811
_cell_length_b   5.21173811
_cell_length_c   6.41663265
_cell_angle_alpha   113.96080780
_cell_angle_beta   113.96080780
_cell_angle_gamma   90.00000000
_symmetry_Int_Tables_number   1
_chemical_formula_structural   AcPrTh2
_chemical_formula_sum   'Ac1 Pr1 Th2'
_cell_volume   142.67808484
_cell_formula_units_Z   1
loop_
 _symmetry_equiv_pos_site_id
 _symmetry_equiv_pos_as_xyz
  1  'x, y, z'
loop_
 _atom_site_type_symbol
 _atom_site_label
 _atom_site_symmetry_multiplicity
 _atom_site_fract_x
 _atom_site_fract_y
 _atom_site_fract_z
 _atom_site_occupancy
  Ac  Ac0  1  0.75000001  0.25000000  0.50000002  1
  Pr  Pr1  1  0.25000003  0.75000000  0.50000003  1
  Th  Th2  1  0.50000002  0.50000000  1.00000001  1
  Th  Th3  1  0.00000000  0.00000000  0.00000000  1
