# generated using pymatgen
data_PmBi
_symmetry_space_group_name_H-M   'P 1'
_cell_length_a   3.89207196
_cell_length_b   3.91162395
_cell_length_c   6.43043804
_cell_angle_alpha   90.00000000
_cell_angle_beta   90.00000000
_cell_angle_gamma   119.83479309
_symmetry_Int_Tables_number   1
_chemical_formula_structural   PmBi
_chemical_formula_sum   'Pm1 Bi1'
_cell_volume   84.92386062
_cell_formula_units_Z   1
loop_
 _symmetry_equiv_pos_site_id
 _symmetry_equiv_pos_as_xyz
  1  'x, y, z'
loop_
 _atom_site_type_symbol
 _atom_site_label
 _atom_site_symmetry_multiplicity
 _atom_site_fract_x
 _atom_site_fract_y
 _atom_site_fract_z
 _atom_site_occupancy
  Pm  Pm0  1  0.15902001  0.31804000  0.75000000  1
  Bi  Bi1  1  0.84098003  0.68196000  0.25000000  1
