# generated using pymatgen
data_Ca3Tl7Sn2
_symmetry_space_group_name_H-M   'P 1'
_cell_length_a   8.23681355
_cell_length_b   8.23681355
_cell_length_c   10.08176136
_cell_angle_alpha   114.11068726
_cell_angle_beta   114.11068726
_cell_angle_gamma   90.00000000
_symmetry_Int_Tables_number   1
_chemical_formula_structural   Ca3Tl7Sn2
_chemical_formula_sum   'Ca3 Tl7 Sn2'
_cell_volume   558.30935175
_cell_formula_units_Z   1
loop_
 _symmetry_equiv_pos_site_id
 _symmetry_equiv_pos_as_xyz
  1  'x, y, z'
loop_
 _atom_site_type_symbol
 _atom_site_label
 _atom_site_symmetry_multiplicity
 _atom_site_fract_x
 _atom_site_fract_y
 _atom_site_fract_z
 _atom_site_occupancy
  Tl  Tl0  1  0.75000002  0.25000001  0.49999995  1
  Ca  Ca1  1  0.50000000  0.50000002  -0.00000004  1
  Ca  Ca2  1  0.24999998  0.75000002  0.49999994  1
  Ca  Ca3  1  0.00000000  0.00000000  0.00000000  1
  Tl  Tl4  1  0.63734800  0.63734802  0.75790793  1
  Tl  Tl5  1  0.12055998  0.63734802  0.75790795  1
  Tl  Tl6  1  0.36265198  0.87944003  0.24209194  1
  Tl  Tl7  1  0.87944000  0.87944003  0.24209193  1
  Sn  Sn8  1  0.12056000  0.12056000  0.75790797  1
  Tl  Tl9  1  0.63734802  0.12056000  0.75790795  1
  Tl  Tl10  1  0.87944002  0.36265201  0.24209195  1
  Sn  Sn11  1  0.36265200  0.36265201  0.24209197  1
