# generated using pymatgen
data_DyY7Sn6(GePt)3
_symmetry_space_group_name_H-M   'P 1'
_cell_length_a   3.98428202
_cell_length_b   8.17356205
_cell_length_c   13.79698181
_cell_angle_alpha   90.00000000
_cell_angle_beta   90.00000000
_cell_angle_gamma   90.00000000
_symmetry_Int_Tables_number   1
_chemical_formula_structural   DyY7Sn6(GePt)3
_chemical_formula_sum   'Dy1 Y7 Sn6 Ge3 Pt3'
_cell_volume   449.30942313
_cell_formula_units_Z   1
loop_
 _symmetry_equiv_pos_site_id
 _symmetry_equiv_pos_as_xyz
  1  'x, y, z'
loop_
 _atom_site_type_symbol
 _atom_site_label
 _atom_site_symmetry_multiplicity
 _atom_site_fract_x
 _atom_site_fract_y
 _atom_site_fract_z
 _atom_site_occupancy
  Dy  Dy0  1  0.25000000  0.90345799  0.32891300  1
  Y  Y1  1  0.75000000  0.59654200  0.82891301  1
  Y  Y2  1  0.25000000  0.40345800  0.17108700  1
  Y  Y3  1  0.75000000  0.09654200  0.67108701  1
  Y  Y4  1  0.25000000  0.66110800  0.55154101  1
  Y  Y5  1  0.75000000  0.83889199  0.05154100  1
  Y  Y6  1  0.25000000  0.16110800  0.94845901  1
  Y  Y7  1  0.75000000  0.33889200  0.44845901  1
  Sn  Sn8  1  0.75000000  0.98631599  0.89183801  1
  Sn  Sn9  1  0.25000000  0.01368400  0.10816200  1
  Sn  Sn10  1  0.75000000  0.48631600  0.60816201  1
  Ge  Ge11  1  0.25000000  0.81025800  0.71177901  1
  Sn  Sn12  1  0.75000000  0.68974200  0.21177900  1
  Pt  Pt13  1  0.25000000  0.31025800  0.78822101  1
  Sn  Sn14  1  0.75000000  0.18974200  0.28822100  1
  Pt  Pt15  1  0.25000000  0.65749000  0.99666301  1
  Sn  Sn16  1  0.75000000  0.84250999  0.49666301  1
  Ge  Ge17  1  0.25000000  0.15749000  0.50333701  1
  Pt  Pt18  1  0.75000000  0.34251000  0.00333700  1
  Ge  Ge19  1  0.25000000  0.51368400  0.39183801  1
