# generated using pymatgen
data_Sc4TlCrS10
_symmetry_space_group_name_H-M   'P 1'
_cell_length_a   7.44435787
_cell_length_b   7.44435787
_cell_length_c   7.44435787
_cell_angle_alpha   109.47122192
_cell_angle_beta   109.47122192
_cell_angle_gamma   109.47122192
_symmetry_Int_Tables_number   1
_chemical_formula_structural   Sc4TlCrS10
_chemical_formula_sum   'Sc4 Tl1 Cr1 S10'
_cell_volume   317.58487929
_cell_formula_units_Z   1
loop_
 _symmetry_equiv_pos_site_id
 _symmetry_equiv_pos_as_xyz
  1  'x, y, z'
loop_
 _atom_site_type_symbol
 _atom_site_label
 _atom_site_symmetry_multiplicity
 _atom_site_fract_x
 _atom_site_fract_y
 _atom_site_fract_z
 _atom_site_occupancy
  Tl  Tl0  1  0.65214606  0.85415503  0.50630106  1
  Sc  Sc1  1  0.20200902  0.34785401  0.85415502  1
  Sc  Sc2  1  0.14584505  0.79799103  0.65214605  1
  Cr  Cr3  1  0.49369902  0.34785401  0.14584503  1
  Sc  Sc4  1  0.85415502  0.20200901  0.34785403  1
  Sc  Sc5  1  0.79799104  0.65214602  0.14584505  1
  S  S6  1  0.14584503  0.49369902  0.34785403  1
  S  S7  1  0.85415504  0.50630102  0.65214605  1
  S  S8  1  0.50630104  0.65214602  0.85415504  1
  S  S9  1  0.34785406  0.85415503  0.20200905  1
  S  S10  1  0.65214601  0.14584501  0.79799102  1
  S  S11  1  0.34785401  0.14584501  0.49369901  1
  S  S12  1  0.50000003  0.50000002  0.50000004  1
  S  S13  1  1.00000004  0.50000002  1.00000005  1
  S  S14  1  0.50000000  0.00000000  0.00000001  1
  S  S15  1  0.00000000  0.00000000  0.50000000  1
