# generated using pymatgen
data_Yb2MgIn5
_symmetry_space_group_name_H-M   'P 1'
_cell_length_a   3.89206195
_cell_length_b   3.89206195
_cell_length_c   14.44083500
_cell_angle_alpha   90.00000000
_cell_angle_beta   90.00000000
_cell_angle_gamma   90.00000000
_symmetry_Int_Tables_number   1
_chemical_formula_structural   Yb2MgIn5
_chemical_formula_sum   'Yb2 Mg1 In5'
_cell_volume   218.75188001
_cell_formula_units_Z   1
loop_
 _symmetry_equiv_pos_site_id
 _symmetry_equiv_pos_as_xyz
  1  'x, y, z'
loop_
 _atom_site_type_symbol
 _atom_site_label
 _atom_site_symmetry_multiplicity
 _atom_site_fract_x
 _atom_site_fract_y
 _atom_site_fract_z
 _atom_site_occupancy
  Mg  Mg0  1  0.50000001  0.50000001  0.11782900  1
  Yb  Yb1  1  0.50000001  0.50000001  0.37379400  1
  Yb  Yb2  1  0.50000001  0.50000001  0.62620600  1
  In  In3  1  0.50000001  0.50000001  0.88217100  1
  In  In4  1  0.00000000  0.00000000  0.24936700  1
  In  In5  1  0.00000000  0.00000000  0.50000000  1
  In  In6  1  0.00000000  0.00000000  0.75063300  1
  In  In7  1  0.00000000  0.00000000  0.00000000  1
