# generated using pymatgen
data_MgPO3
_symmetry_space_group_name_H-M   'P 1'
_cell_length_a   5.47431517
_cell_length_b   6.88161278
_cell_length_c   6.88169861
_cell_angle_alpha   85.43523407
_cell_angle_beta   74.31266022
_cell_angle_gamma   74.31425476
_symmetry_Int_Tables_number   1
_chemical_formula_structural   MgPO3
_chemical_formula_sum   'Mg4 P4 O12'
_cell_volume   240.29064746
_cell_formula_units_Z   4
loop_
 _symmetry_equiv_pos_site_id
 _symmetry_equiv_pos_as_xyz
  1  'x, y, z'
loop_
 _atom_site_type_symbol
 _atom_site_label
 _atom_site_symmetry_multiplicity
 _atom_site_fract_x
 _atom_site_fract_y
 _atom_site_fract_z
 _atom_site_occupancy
  Mg  Mg0  1  0.74998396  0.24166900  0.75835204  1
  Mg  Mg1  1  0.25000692  0.75835402  0.24164507  1
  Mg  Mg2  1  0.74999390  0.89530602  0.10470809  1
  Mg  Mg3  1  0.24997899  0.10462300  0.89534302  1
  P  P4  1  0.20954898  0.21198500  0.38419902  1
  P  P5  1  0.29045594  0.61579701  0.78800906  1
  P  P6  1  0.70954695  0.38421301  0.21198805  1
  P  P7  1  0.79045891  0.78802202  0.61578909  1
  O  O8  1  0.42693596  0.34648301  0.35280604  1
  O  O9  1  0.07307494  0.64722101  0.65350606  1
  O  O10  1  0.57308693  0.65351201  0.64719707  1
  O  O11  1  0.92694695  0.35280501  0.34647105  1
  O  O12  1  0.12838998  0.14343500  0.61830602  1
  O  O13  1  0.37157296  0.38168601  0.85656504  1
  O  O14  1  0.87160490  0.85656202  0.38169109  1
  O  O15  1  0.62840693  0.61830801  0.14344507  1
  O  O16  1  0.83244496  0.21665800  0.03037904  1
  O  O17  1  0.66753689  0.96962902  0.78334310  1
  O  O18  1  0.33246399  0.03038600  0.21664801  1
  O  O19  1  0.16755692  0.78335002  0.96961107  1
