# generated using pymatgen
data_CeGa3
_symmetry_space_group_name_H-M   'P 1'
_cell_length_a   4.08093596
_cell_length_b   5.17495394
_cell_length_c   7.15386915
_cell_angle_alpha   90.00000000
_cell_angle_beta   90.00000000
_cell_angle_gamma   90.00000000
_symmetry_Int_Tables_number   1
_chemical_formula_structural   CeGa3
_chemical_formula_sum   'Ce2 Ga6'
_cell_volume   151.08009875
_cell_formula_units_Z   2
loop_
 _symmetry_equiv_pos_site_id
 _symmetry_equiv_pos_as_xyz
  1  'x, y, z'
loop_
 _atom_site_type_symbol
 _atom_site_label
 _atom_site_symmetry_multiplicity
 _atom_site_fract_x
 _atom_site_fract_y
 _atom_site_fract_z
 _atom_site_occupancy
  Ce  Ce0  1  0.50000001  0.75000001  0.72347998  1
  Ce  Ce1  1  0.50000001  0.25000000  0.27651999  1
  Ga  Ga2  1  0.00000000  0.75000001  0.34397999  1
  Ga  Ga3  1  0.00000000  0.25000000  0.65601999  1
  Ga  Ga4  1  0.00000000  0.00000000  0.00000000  1
  Ga  Ga5  1  0.00000000  0.50000001  0.00000000  1
  Ga  Ga6  1  0.50000001  0.75000001  0.10551200  1
  Ga  Ga7  1  0.50000001  0.25000000  0.89448798  1
