# generated using pymatgen
data_CeP2
_symmetry_space_group_name_H-M   'P 1'
_cell_length_a   4.01226187
_cell_length_b   6.79223680
_cell_length_c   7.53004313
_cell_angle_alpha   90.00000000
_cell_angle_beta   90.00000000
_cell_angle_gamma   90.00000000
_symmetry_Int_Tables_number   1
_chemical_formula_structural   CeP2
_chemical_formula_sum   'Ce4 P8'
_cell_volume   205.21048770
_cell_formula_units_Z   4
loop_
 _symmetry_equiv_pos_site_id
 _symmetry_equiv_pos_as_xyz
  1  'x, y, z'
loop_
 _atom_site_type_symbol
 _atom_site_label
 _atom_site_symmetry_multiplicity
 _atom_site_fract_x
 _atom_site_fract_y
 _atom_site_fract_z
 _atom_site_occupancy
  Ce  Ce0  1  0.25000001  0.51428501  0.18537500  1
  Ce  Ce1  1  0.75000002  0.48571501  0.81462499  1
  Ce  Ce2  1  0.25000001  0.01428500  0.31462499  1
  Ce  Ce3  1  0.75000002  0.98571503  0.68537499  1
  P  P4  1  0.75000002  0.85931902  0.05837300  1
  P  P5  1  0.25000001  0.14068100  0.94162698  1
  P  P6  1  0.75000002  0.35931901  0.44162699  1
  P  P7  1  0.25000001  0.64068102  0.55837299  1
  P  P8  1  0.25000001  0.78428202  0.88551099  1
  P  P9  1  0.75000002  0.21571801  0.11448900  1
  P  P10  1  0.25000001  0.28428201  0.61448899  1
  P  P11  1  0.75000002  0.71571802  0.38551099  1
