# generated using pymatgen
data_Ce2SnPd2
_symmetry_space_group_name_H-M   'P 1'
_cell_length_a   3.61066699
_cell_length_b   8.24822140
_cell_length_c   8.24822140
_cell_angle_alpha   90.00000000
_cell_angle_beta   90.00000000
_cell_angle_gamma   90.00000000
_symmetry_Int_Tables_number   1
_chemical_formula_structural   Ce2SnPd2
_chemical_formula_sum   'Ce4 Sn2 Pd4'
_cell_volume   245.64507141
_cell_formula_units_Z   2
loop_
 _symmetry_equiv_pos_site_id
 _symmetry_equiv_pos_as_xyz
  1  'x, y, z'
loop_
 _atom_site_type_symbol
 _atom_site_label
 _atom_site_symmetry_multiplicity
 _atom_site_fract_x
 _atom_site_fract_y
 _atom_site_fract_z
 _atom_site_occupancy
  Ce  Ce0  1  0.00000000  0.32722398  0.82722396  1
  Ce  Ce1  1  0.00000000  0.67277597  0.17277599  1
  Ce  Ce2  1  0.00000000  0.82722396  0.67277597  1
  Ce  Ce3  1  0.00000000  0.17277599  0.32722398  1
  Sn  Sn4  1  0.50000000  0.00000000  0.00000000  1
  Sn  Sn5  1  0.50000000  0.49999998  0.49999998  1
  Pd  Pd6  1  0.50000000  0.37627398  0.12372599  1
  Pd  Pd7  1  0.50000000  0.62372597  0.87627396  1
  Pd  Pd8  1  0.50000000  0.87627396  0.37627398  1
  Pd  Pd9  1  0.50000000  0.12372599  0.62372597  1
