# generated using pymatgen
data_Li3Mg2Cu
_symmetry_space_group_name_H-M   'P 1'
_cell_length_a   5.14466381
_cell_length_b   5.14466381
_cell_length_c   5.14466381
_cell_angle_alpha   85.56730652
_cell_angle_beta   64.93251038
_cell_angle_gamma   119.93561554
_symmetry_Int_Tables_number   1
_chemical_formula_structural   Li3Mg2Cu
_chemical_formula_sum   'Li3 Mg2 Cu1'
_cell_volume   99.39309892
_cell_formula_units_Z   1
loop_
 _symmetry_equiv_pos_site_id
 _symmetry_equiv_pos_as_xyz
  1  'x, y, z'
loop_
 _atom_site_type_symbol
 _atom_site_label
 _atom_site_symmetry_multiplicity
 _atom_site_fract_x
 _atom_site_fract_y
 _atom_site_fract_z
 _atom_site_occupancy
  Li  Li0  1  0.75000003  0.16160901  0.08839101  1
  Li  Li1  1  0.25000002  0.83839103  0.91160907  1
  Li  Li2  1  0.00000001  0.50000002  0.50000004  1
  Mg  Mg3  1  0.50000003  0.50000002  0.00000002  1
  Mg  Mg4  1  1.00000003  0.00000000  0.50000002  1
  Cu  Cu5  1  0.50000003  0.50000002  0.50000004  1
