# generated using pymatgen
data_HfZr3NiSnRh7
_symmetry_space_group_name_H-M   'P 1'
_cell_length_a   5.39867783
_cell_length_b   5.39867878
_cell_length_c   8.97344208
_cell_angle_alpha   90.00000000
_cell_angle_beta   90.00000000
_cell_angle_gamma   120.00000000
_symmetry_Int_Tables_number   1
_chemical_formula_structural   HfZr3NiSnRh7
_chemical_formula_sum   'Hf1 Zr3 Ni1 Sn1 Rh7'
_cell_volume   226.49811626
_cell_formula_units_Z   1
loop_
 _symmetry_equiv_pos_site_id
 _symmetry_equiv_pos_as_xyz
  1  'x, y, z'
loop_
 _atom_site_type_symbol
 _atom_site_label
 _atom_site_symmetry_multiplicity
 _atom_site_fract_x
 _atom_site_fract_y
 _atom_site_fract_z
 _atom_site_occupancy
  Hf  Hf0  1  0.00000000  0.00000000  0.00000000  1
  Zr  Zr1  1  0.00000004  0.50000000  0.75306999  1
  Zr  Zr2  1  0.00000004  0.50000000  0.24693000  1
  Zr  Zr3  1  0.50000009  1.00000001  0.75306999  1
  Ni  Ni4  1  0.50000009  1.00000001  0.24693000  1
  Sn  Sn5  1  0.50000005  0.50000000  0.75306999  1
  Rh  Rh6  1  0.50000005  0.50000000  0.24693000  1
  Rh  Rh7  1  0.66666671  0.33333334  0.99999999  1
  Rh  Rh8  1  0.66666671  0.33333334  0.50000000  1
  Rh  Rh9  1  0.00000000  0.00000000  0.67318299  1
  Rh  Rh10  1  0.00000000  0.00000000  0.32681700  1
  Rh  Rh11  1  0.33333339  0.66666667  0.99999999  1
  Rh  Rh12  1  0.33333339  0.66666667  0.50000000  1
