# generated using pymatgen
data_Ga
_symmetry_space_group_name_H-M   'P 1'
_cell_length_a   4.65925121
_cell_length_b   4.65925121
_cell_length_c   7.56416988
_cell_angle_alpha   90.00000000
_cell_angle_beta   90.00000000
_cell_angle_gamma   90.00000000
_symmetry_Int_Tables_number   1
_chemical_formula_structural   Ga
_chemical_formula_sum   Ga7
_cell_volume   164.20770374
_cell_formula_units_Z   7
loop_
 _symmetry_equiv_pos_site_id
 _symmetry_equiv_pos_as_xyz
  1  'x, y, z'
loop_
 _atom_site_type_symbol
 _atom_site_label
 _atom_site_symmetry_multiplicity
 _atom_site_fract_x
 _atom_site_fract_y
 _atom_site_fract_z
 _atom_site_occupancy
  Ga  Ga0  1  0.00000000  0.00000000  0.00000000  1
  Ga  Ga1  1  0.49999998  0.49999998  0.00000000  1
  Ga  Ga2  1  0.49999998  0.00000000  0.69873001  1
  Ga  Ga3  1  0.00000000  0.49999998  0.30127000  1
  Ga  Ga4  1  0.49999998  0.00000000  0.30127000  1
  Ga  Ga5  1  0.00000000  0.49999998  0.69873001  1
  Ga  Ga6  1  0.00000000  0.00000000  0.50000001  1
