# generated using pymatgen
data_La7Bi10Pb
_symmetry_space_group_name_H-M   'P 1'
_cell_length_a   7.32127094
_cell_length_b   9.66084576
_cell_length_c   9.66084576
_cell_angle_alpha   120.00000000
_cell_angle_beta   90.00000000
_cell_angle_gamma   90.00000000
_symmetry_Int_Tables_number   1
_chemical_formula_structural   La7Bi10Pb
_chemical_formula_sum   'La7 Bi10 Pb1'
_cell_volume   591.76245528
_cell_formula_units_Z   1
loop_
 _symmetry_equiv_pos_site_id
 _symmetry_equiv_pos_as_xyz
  1  'x, y, z'
loop_
 _atom_site_type_symbol
 _atom_site_label
 _atom_site_symmetry_multiplicity
 _atom_site_fract_x
 _atom_site_fract_y
 _atom_site_fract_z
 _atom_site_occupancy
  La  La0  1  0.75000001  0.23616801  -0.00000000  1
  La  La1  1  0.75000001  0.76383202  0.76383201  1
  La  La2  1  0.75000001  0.00000000  0.23616800  1
  La  La3  1  0.25000000  0.76383202  1.00000002  1
  La  La4  1  0.25000000  0.23616801  0.23616800  1
  La  La5  1  0.25000000  0.00000000  0.76383202  1
  Bi  Bi6  1  0.50000000  0.33333334  0.66666668  1
  La  La7  1  0.50000000  0.66666668  0.33333334  1
  Bi  Bi8  1  -0.00000000  0.66666668  0.33333334  1
  Bi  Bi9  1  -0.00000000  0.33333334  0.66666668  1
  Bi  Bi10  1  0.50000000  0.00000000  -0.00000000  1
  Bi  Bi11  1  0.00000000  0.00000000  0.00000000  1
  Bi  Bi12  1  0.75000001  0.59808301  1.00000002  1
  Bi  Bi13  1  0.75000001  0.40191701  0.40191701  1
  Bi  Bi14  1  0.75000001  1.00000002  0.59808301  1
  Bi  Bi15  1  0.25000000  0.40191701  -0.00000000  1
  Pb  Pb16  1  0.25000000  0.59808301  0.59808301  1
  Bi  Bi17  1  0.25000000  0.00000000  0.40191701  1
