# generated using pymatgen
data_Ga
_symmetry_space_group_name_H-M   'P 1'
_cell_length_a   2.76518607
_cell_length_b   4.00303411
_cell_length_c   4.84790993
_cell_angle_alpha   114.38474274
_cell_angle_beta   106.57042694
_cell_angle_gamma   90.00000000
_symmetry_Int_Tables_number   1
_chemical_formula_structural   Ga
_chemical_formula_sum   Ga3
_cell_volume   46.41729546
_cell_formula_units_Z   3
loop_
 _symmetry_equiv_pos_site_id
 _symmetry_equiv_pos_as_xyz
  1  'x, y, z'
loop_
 _atom_site_type_symbol
 _atom_site_label
 _atom_site_symmetry_multiplicity
 _atom_site_fract_x
 _atom_site_fract_y
 _atom_site_fract_z
 _atom_site_occupancy
  Ga  Ga0  1  0.00000000  0.00000000  0.00000000  1
  Ga  Ga1  1  0.33623202  0.33623200  0.67246401  1
  Ga  Ga2  1  0.66376804  0.66376800  0.32753606  1
