# generated using pymatgen
data_Ba2Sr2(ZnNi)3
_symmetry_space_group_name_H-M   'P 1'
_cell_length_a   6.21478415
_cell_length_b   7.89448595
_cell_length_c   7.89448643
_cell_angle_alpha   120.00000000
_cell_angle_beta   90.00000000
_cell_angle_gamma   90.00000000
_symmetry_Int_Tables_number   1
_chemical_formula_structural   Ba2Sr2(ZnNi)3
_chemical_formula_sum   'Ba2 Sr2 Zn3 Ni3'
_cell_volume   335.43194419
_cell_formula_units_Z   1
loop_
 _symmetry_equiv_pos_site_id
 _symmetry_equiv_pos_as_xyz
  1  'x, y, z'
loop_
 _atom_site_type_symbol
 _atom_site_label
 _atom_site_symmetry_multiplicity
 _atom_site_fract_x
 _atom_site_fract_y
 _atom_site_fract_z
 _atom_site_occupancy
  Ba  Ba0  1  0.24999999  0.33333334  0.66666669  1
  Ba  Ba1  1  0.74999998  0.66666669  0.33333336  1
  Sr  Sr2  1  0.00000000  0.00000000  0.00000000  1
  Sr  Sr3  1  0.49999999  0.00000000  -0.00000000  1
  Ni  Ni4  1  0.74999998  0.16659000  0.33318001  1
  Zn  Zn5  1  0.24999999  0.83341002  0.66682004  1
  Ni  Ni6  1  0.74999998  0.16659000  0.83341101  1
  Zn  Zn7  1  0.24999999  0.83341002  0.16658904  1
  Ni  Ni8  1  0.74999998  0.66682102  0.83341104  1
  Zn  Zn9  1  0.24999999  0.33317901  0.16658902  1
