# generated using pymatgen
data_CaBO3
_symmetry_space_group_name_H-M   'P 1'
_cell_length_a   6.42229748
_cell_length_b   6.42229748
_cell_length_c   7.06981087
_cell_angle_alpha   103.36569214
_cell_angle_beta   103.36569214
_cell_angle_gamma   97.16810608
_symmetry_Int_Tables_number   1
_chemical_formula_structural   CaBO3
_chemical_formula_sum   'Ca4 B4 O12'
_cell_volume   271.08189470
_cell_formula_units_Z   4
loop_
 _symmetry_equiv_pos_site_id
 _symmetry_equiv_pos_as_xyz
  1  'x, y, z'
loop_
 _atom_site_type_symbol
 _atom_site_label
 _atom_site_symmetry_multiplicity
 _atom_site_fract_x
 _atom_site_fract_y
 _atom_site_fract_z
 _atom_site_occupancy
  Ca  Ca0  1  0.11939101  0.88060898  0.75000006  1
  Ca  Ca1  1  0.88060898  0.11939100  0.25000004  1
  Ca  Ca2  1  0.59242399  0.40757599  0.75000006  1
  Ca  Ca3  1  0.40757599  0.59242398  0.25000004  1
  B  B4  1  0.39665599  0.14387400  0.25120903  1
  B  B5  1  0.85612598  0.60334398  0.24879106  1
  B  B6  1  0.60334399  0.85612598  0.74879107  1
  B  B7  1  0.14387400  0.39665599  0.75120904  1
  O  O8  1  0.94372498  0.40790799  0.73406607  1
  O  O9  1  0.59209198  0.05627500  0.76593404  1
  O  O10  1  0.05627500  0.59209198  0.26593403  1
  O  O11  1  0.40790800  0.94372498  0.23406606  1
  O  O12  1  0.20772700  0.25744499  0.62301403  1
  O  O13  1  0.74255499  0.79227298  0.87698608  1
  O  O14  1  0.79227299  0.74255498  0.37698607  1
  O  O15  1  0.25744500  0.20772699  0.12301402  1
  O  O16  1  0.30017200  0.53408899  0.89889005  1
  O  O17  1  0.46591099  0.69982798  0.60111006  1
  O  O18  1  0.69982799  0.46591099  0.10111005  1
  O  O19  1  0.53408899  0.30017199  0.39889004  1
