# generated using pymatgen
data_TiVO6
_symmetry_space_group_name_H-M   'P 1'
_cell_length_a   2.88842821
_cell_length_b   2.99382257
_cell_length_c   19.56261253
_cell_angle_alpha   89.23154449
_cell_angle_beta   86.96311188
_cell_angle_gamma   62.72895050
_symmetry_Int_Tables_number   1
_chemical_formula_structural   TiVO6
_chemical_formula_sum   'Ti2 V2 O12'
_cell_volume   150.14108369
_cell_formula_units_Z   2
loop_
 _symmetry_equiv_pos_site_id
 _symmetry_equiv_pos_as_xyz
  1  'x, y, z'
loop_
 _atom_site_type_symbol
 _atom_site_label
 _atom_site_symmetry_multiplicity
 _atom_site_fract_x
 _atom_site_fract_y
 _atom_site_fract_z
 _atom_site_occupancy
  V  V0  1  0.87304400  0.87619697  0.37535402  1
  Ti  Ti1  1  0.37885300  0.37913599  0.87452202  1
  Ti  Ti2  1  0.13123800  0.11455400  0.62752001  1
  V  V3  1  0.61545700  0.63458598  0.12231801  1
  O  O4  1  0.24472600  0.25580999  0.24876201  1
  O  O5  1  0.49984600  0.49694899  0.50173101  1
  O  O6  1  0.00031100  0.00184400  0.99839202  1
  O  O7  1  0.75497800  0.74540798  0.75105702  1
  O  O8  1  0.15227300  0.23234899  0.44323101  1
  O  O9  1  0.59283700  0.52041498  0.30735401  1
  O  O10  1  0.89597600  0.99149897  0.19033702  1
  O  O11  1  0.84914600  0.76014698  0.56019102  1
  O  O12  1  0.70680100  0.68100998  0.94189602  1
  O  O13  1  0.05085100  0.06344400  0.80775101  1
  O  O14  1  0.46077300  0.42541799  0.69441602  1
  O  O15  1  0.29289100  0.32123399  0.05516700  1
