# generated using pymatgen
data_Ca4ZnCd3AsAu5
_symmetry_space_group_name_H-M   'P 1'
_cell_length_a   4.38018990
_cell_length_b   4.54572582
_cell_length_c   21.30188560
_cell_angle_alpha   90.00000000
_cell_angle_beta   90.00000000
_cell_angle_gamma   90.00000000
_symmetry_Int_Tables_number   1
_chemical_formula_structural   Ca4ZnCd3AsAu5
_chemical_formula_sum   'Ca4 Zn1 Cd3 As1 Au5'
_cell_volume   424.14487587
_cell_formula_units_Z   1
loop_
 _symmetry_equiv_pos_site_id
 _symmetry_equiv_pos_as_xyz
  1  'x, y, z'
loop_
 _atom_site_type_symbol
 _atom_site_label
 _atom_site_symmetry_multiplicity
 _atom_site_fract_x
 _atom_site_fract_y
 _atom_site_fract_z
 _atom_site_occupancy
  Ca  Ca0  1  0.00000000  0.50000002  0.13620000  1
  Ca  Ca1  1  0.50000001  0.00000000  0.86380002  1
  Ca  Ca2  1  0.00000000  0.50000002  0.60091101  1
  Ca  Ca3  1  0.50000001  0.00000000  0.39908901  1
  Cd  Cd4  1  0.50000001  0.50000002  0.00051300  1
  Cd  Cd5  1  0.00000000  0.00000000  0.99948702  1
  Cd  Cd6  1  0.50000001  0.50000002  0.27629001  1
  Zn  Zn7  1  0.00000000  0.00000000  0.72371001  1
  Au  Au8  1  0.00000000  0.50000002  0.44220701  1
  Au  Au9  1  0.50000001  0.00000000  0.55779301  1
  Au  Au10  1  0.50000001  0.50000002  0.72442401  1
  Au  Au11  1  0.00000000  0.00000000  0.27557601  1
  Au  Au12  1  0.00000000  0.50000002  0.91263702  1
  As  As13  1  0.50000001  0.00000000  0.08736300  1
