# generated using pymatgen
data_Nd7ZrBRu10N
_symmetry_space_group_name_H-M   'P 1'
_cell_length_a   8.72847176
_cell_length_b   8.72847176
_cell_length_c   8.72847176
_cell_angle_alpha   107.03202820
_cell_angle_beta   107.03202820
_cell_angle_gamma   107.03203583
_symmetry_Int_Tables_number   1
_chemical_formula_structural   Nd7ZrBRu10N
_chemical_formula_sum   'Nd7 Zr1 B1 Ru10 N1'
_cell_volume   553.32481177
_cell_formula_units_Z   1
loop_
 _symmetry_equiv_pos_site_id
 _symmetry_equiv_pos_as_xyz
  1  'x, y, z'
loop_
 _atom_site_type_symbol
 _atom_site_label
 _atom_site_symmetry_multiplicity
 _atom_site_fract_x
 _atom_site_fract_y
 _atom_site_fract_z
 _atom_site_occupancy
  Nd  Nd0  1  0.90515491  0.70113595  0.97678890  1
  Nd  Nd1  1  0.97678889  0.90515494  0.70113588  1
  Nd  Nd2  1  0.70113590  0.97678893  0.90515489  1
  Nd  Nd3  1  0.09484497  0.29886398  0.02321097  1
  Nd  Nd4  1  0.02321099  0.09484499  0.29886400  1
  Nd  Nd5  1  0.29886399  0.02321100  0.09484498  1
  Nd  Nd6  1  0.49999994  0.49999997  0.49999994  1
  B  B7  1  0.00000000  0.00000000  0.00000000  1
  Ru  Ru8  1  0.93020390  0.77997695  0.31980788  1
  Zr  Zr9  1  0.31980792  0.93020394  0.77997691  1
  Ru  Ru10  1  0.77997695  0.31980798  0.93020395  1
  Ru  Ru11  1  0.06979598  0.22002298  0.68019199  1
  Ru  Ru12  1  0.68019197  0.06979600  0.22002296  1
  N  N13  1  0.22002294  0.68019195  0.06979593  1
  Ru  Ru14  1  0.54149093  0.61454496  0.83557293  1
  Ru  Ru15  1  0.83557293  0.54149096  0.61454492  1
  Ru  Ru16  1  0.61454491  0.83557294  0.54149090  1
  Ru  Ru17  1  0.45850895  0.38545497  0.16442694  1
  Ru  Ru18  1  0.16442696  0.45850897  0.38545496  1
  Ru  Ru19  1  0.38545497  0.16442699  0.45850897  1
