# generated using pymatgen
data_LaCe2Pd3
_symmetry_space_group_name_H-M   'P 1'
_cell_length_a   4.77104092
_cell_length_b   6.11748886
_cell_length_c   6.17682600
_cell_angle_alpha   76.12024689
_cell_angle_beta   67.28144073
_cell_angle_gamma   67.04854584
_symmetry_Int_Tables_number   1
_chemical_formula_structural   LaCe2Pd3
_chemical_formula_sum   'La1 Ce2 Pd3'
_cell_volume   152.28129342
_cell_formula_units_Z   1
loop_
 _symmetry_equiv_pos_site_id
 _symmetry_equiv_pos_as_xyz
  1  'x, y, z'
loop_
 _atom_site_type_symbol
 _atom_site_label
 _atom_site_symmetry_multiplicity
 _atom_site_fract_x
 _atom_site_fract_y
 _atom_site_fract_z
 _atom_site_occupancy
  Ce  Ce0  1  0.45900295  0.79102303  0.29097000  1
  La  La1  1  0.54474000  0.20559201  0.70492797  1
  Ce  Ce2  1  0.14234997  0.39665001  0.31865100  1
  Pd  Pd3  1  0.18248194  0.76581403  0.86922098  1
  Pd  Pd4  1  0.84089800  0.22183401  0.09637099  1
  Pd  Pd5  1  0.83052597  0.61908802  0.71985898  1
