# generated using pymatgen
data_Ba5BiSb3
_symmetry_space_group_name_H-M   'P 1'
_cell_length_a   5.90366602
_cell_length_b   7.29745007
_cell_length_c   11.83021641
_cell_angle_alpha   74.30069733
_cell_angle_beta   75.55110168
_cell_angle_gamma   66.14007568
_symmetry_Int_Tables_number   1
_chemical_formula_structural   Ba5BiSb3
_chemical_formula_sum   'Ba5 Bi1 Sb3'
_cell_volume   443.00566000
_cell_formula_units_Z   1
loop_
 _symmetry_equiv_pos_site_id
 _symmetry_equiv_pos_as_xyz
  1  'x, y, z'
loop_
 _atom_site_type_symbol
 _atom_site_label
 _atom_site_symmetry_multiplicity
 _atom_site_fract_x
 _atom_site_fract_y
 _atom_site_fract_z
 _atom_site_occupancy
  Ba  Ba0  1  0.40186599  0.30729000  0.88897804  1
  Ba  Ba1  1  0.59818097  0.69743900  0.10619902  1
  Ba  Ba2  1  0.75055896  0.83175900  0.66712305  1
  Ba  Ba3  1  0.26102999  0.14697700  0.33096301  1
  Ba  Ba4  1  0.52741698  0.46089300  0.48427303  1
  Bi  Bi5  1  0.04462899  0.23528300  0.67545903  1
  Sb  Sb6  1  0.95406897  0.76621600  0.32564603  1
  Sb  Sb7  1  0.10576195  0.89731400  0.89116207  1
  Sb  Sb8  1  0.89388700  0.10412800  0.10809799  1
