# generated using pymatgen
data_Th8Sn7Ir(RuPt)2
_symmetry_space_group_name_H-M   'P 1'
_cell_length_a   8.59213924
_cell_length_b   8.59213924
_cell_length_c   8.59213924
_cell_angle_alpha   109.47122192
_cell_angle_beta   109.47122192
_cell_angle_gamma   109.47122192
_symmetry_Int_Tables_number   1
_chemical_formula_structural   Th8Sn7Ir(RuPt)2
_chemical_formula_sum   'Th8 Sn7 Ir1 Ru2 Pt2'
_cell_volume   488.29469756
_cell_formula_units_Z   1
loop_
 _symmetry_equiv_pos_site_id
 _symmetry_equiv_pos_as_xyz
  1  'x, y, z'
loop_
 _atom_site_type_symbol
 _atom_site_label
 _atom_site_symmetry_multiplicity
 _atom_site_fract_x
 _atom_site_fract_y
 _atom_site_fract_z
 _atom_site_occupancy
  Th  Th0  1  0.65729106  0.65729104  0.00000005  1
  Th  Th1  1  0.65729102  0.00000000  0.65729103  1
  Th  Th2  1  0.34270901  0.00000000  0.34270901  1
  Th  Th3  1  0.00000002  0.34270902  0.34270903  1
  Th  Th4  1  0.00000004  0.65729104  0.65729105  1
  Th  Th5  1  0.34270903  0.34270902  0.00000003  1
  Th  Th6  1  0.00000000  0.00000000  0.67025801  1
  Sn  Sn7  1  0.00000004  0.67025804  0.00000004  1
  Th  Th8  1  0.32974203  0.32974202  0.32974203  1
  Ir  Ir9  1  0.67025808  1.00000006  0.00000007  1
  Ru  Ru10  1  0.67209206  0.67209204  0.67209207  1
  Sn  Sn11  1  0.50000003  0.25000001  0.75000004  1
  Pt  Pt12  1  0.00000002  0.32790802  0.00000002  1
  Sn  Sn13  1  0.75000004  0.25000001  0.50000004  1
  Sn  Sn14  1  0.50000006  0.75000004  0.25000006  1
  Sn  Sn15  1  0.25000005  0.75000004  0.50000006  1
  Ru  Ru16  1  0.00000000  0.00000000  0.32790801  1
  Pt  Pt17  1  0.32790807  1.00000006  0.00000006  1
  Sn  Sn18  1  0.25000004  0.50000003  0.75000005  1
  Sn  Sn19  1  0.75000005  0.50000003  0.25000005  1
