# generated using pymatgen
data_Al
_symmetry_space_group_name_H-M   'P 1'
_cell_length_a   5.01549196
_cell_length_b   6.56692791
_cell_length_c   6.56692791
_cell_angle_alpha   80.07993317
_cell_angle_beta   67.55012512
_cell_angle_gamma   67.55012512
_symmetry_Int_Tables_number   1
_chemical_formula_structural   Al
_chemical_formula_sum   Al13
_cell_volume   184.66085674
_cell_formula_units_Z   13
loop_
 _symmetry_equiv_pos_site_id
 _symmetry_equiv_pos_as_xyz
  1  'x, y, z'
loop_
 _atom_site_type_symbol
 _atom_site_label
 _atom_site_symmetry_multiplicity
 _atom_site_fract_x
 _atom_site_fract_y
 _atom_site_fract_z
 _atom_site_occupancy
  Al  Al0  1  0.00000000  0.00000000  0.00000000  1
  Al  Al1  1  0.34771703  0.65228300  0.65228300  1
  Al  Al2  1  0.69411103  0.80588900  0.80588901  1
  Al  Al3  1  0.00000003  0.65710900  0.34289099  1
  Al  Al4  1  0.30588901  0.19411100  0.19411101  1
  Al  Al5  1  0.65228301  0.34771700  0.34771701  1
  Al  Al6  1  0.00000002  0.34289100  0.65710900  1
  Al  Al7  1  0.00000002  0.50000000  -0.00000001  1
  Al  Al8  1  0.50000003  0.76602300  0.23397700  1
  Al  Al9  1  0.50000001  0.23397700  0.76602302  1
  Al  Al10  1  0.00000000  0.00000000  0.50000001  1
  Al  Al11  1  0.50000000  0.00000000  0.50000002  1
  Al  Al12  1  0.50000002  0.50000000  0.00000000  1
