# generated using pymatgen
data_SrCa3NiSnO12
_symmetry_space_group_name_H-M   'P 1'
_cell_length_a   4.92600775
_cell_length_b   4.92600775
_cell_length_c   10.99245644
_cell_angle_alpha   90.00000000
_cell_angle_beta   90.00000000
_cell_angle_gamma   120.00000000
_symmetry_Int_Tables_number   1
_chemical_formula_structural   SrCa3NiSnO12
_chemical_formula_sum   'Sr1 Ca3 Ni1 Sn1 O12'
_cell_volume   231.00190744
_cell_formula_units_Z   1
loop_
 _symmetry_equiv_pos_site_id
 _symmetry_equiv_pos_as_xyz
  1  'x, y, z'
loop_
 _atom_site_type_symbol
 _atom_site_label
 _atom_site_symmetry_multiplicity
 _atom_site_fract_x
 _atom_site_fract_y
 _atom_site_fract_z
 _atom_site_occupancy
  Ca  Ca0  1  0.00000000  0.00000000  0.00000000  1
  Sr  Sr1  1  0.00000000  0.00000000  0.33087999  1
  Ca  Ca2  1  0.00000000  0.00000000  0.66911997  1
  Ca  Ca3  1  0.50000002  0.00000000  0.49999998  1
  Ni  Ni4  1  0.50000003  0.50000002  0.49999998  1
  Sn  Sn5  1  0.00000001  0.50000002  0.49999998  1
  O  O6  1  0.33333336  0.66666670  0.31793599  1
  O  O7  1  0.66666670  0.33333335  0.31793599  1
  O  O8  1  0.66666670  0.33333335  0.68206397  1
  O  O9  1  0.33333336  0.66666670  0.68206397  1
  O  O10  1  0.50000002  0.00000000  0.13287899  1
  O  O11  1  0.50000003  0.50000002  0.13287899  1
  O  O12  1  0.00000001  0.50000002  0.13287899  1
  O  O13  1  0.50000002  0.00000000  0.86712097  1
  O  O14  1  0.50000003  0.50000002  0.86712097  1
  O  O15  1  0.00000001  0.50000002  0.86712097  1
  O  O16  1  0.33333336  0.66666670  -0.00000000  1
  O  O17  1  0.66666670  0.33333335  0.99999996  1
