# generated using pymatgen
data_Dy2Lu4Pd3
_symmetry_space_group_name_H-M   'P 1'
_cell_length_a   4.09141493
_cell_length_b   7.78208017
_cell_length_c   7.78208113
_cell_angle_alpha   120.00000000
_cell_angle_beta   90.00000000
_cell_angle_gamma   90.00000000
_symmetry_Int_Tables_number   1
_chemical_formula_structural   Dy2Lu4Pd3
_chemical_formula_sum   'Dy2 Lu4 Pd3'
_cell_volume   214.58314780
_cell_formula_units_Z   1
loop_
 _symmetry_equiv_pos_site_id
 _symmetry_equiv_pos_as_xyz
  1  'x, y, z'
loop_
 _atom_site_type_symbol
 _atom_site_label
 _atom_site_symmetry_multiplicity
 _atom_site_fract_x
 _atom_site_fract_y
 _atom_site_fract_z
 _atom_site_occupancy
  Dy  Dy0  1  0.50000001  0.59055501  1.00000001  1
  Dy  Dy1  1  0.50000001  0.00000000  0.59055498  1
  Lu  Lu2  1  0.50000001  0.40944501  0.40944502  1
  Lu  Lu3  1  -0.00000000  0.25017400  0.99999999  1
  Lu  Lu4  1  -0.00000000  0.74982601  0.74982603  1
  Lu  Lu5  1  0.00000000  0.00000000  0.25017399  1
  Pd  Pd6  1  1.00000002  0.33333334  0.66666667  1
  Pd  Pd7  1  0.50000001  0.00000000  -0.00000000  1
  Pd  Pd8  1  1.00000002  0.66666668  0.33333337  1
