# generated using pymatgen
data_Hf3Ti7Ni7Sn
_symmetry_space_group_name_H-M   'P 1'
_cell_length_a   5.07838202
_cell_length_b   8.06049156
_cell_length_c   8.06049252
_cell_angle_alpha   120.00000000
_cell_angle_beta   90.00000000
_cell_angle_gamma   90.00000000
_symmetry_Int_Tables_number   1
_chemical_formula_structural   Hf3Ti7Ni7Sn
_chemical_formula_sum   'Hf3 Ti7 Ni7 Sn1'
_cell_volume   285.74530640
_cell_formula_units_Z   1
loop_
 _symmetry_equiv_pos_site_id
 _symmetry_equiv_pos_as_xyz
  1  'x, y, z'
loop_
 _atom_site_type_symbol
 _atom_site_label
 _atom_site_symmetry_multiplicity
 _atom_site_fract_x
 _atom_site_fract_y
 _atom_site_fract_z
 _atom_site_occupancy
  Ti  Ti0  1  0.25000000  0.76245905  0.00000001  1
  Ti  Ti1  1  0.50000000  0.66666671  0.33333333  1
  Ti  Ti2  1  0.75000000  0.76245905  0.76245897  1
  Ti  Ti3  1  0.25000000  0.23754101  0.23754099  1
  Ti  Ti4  1  0.25000000  1.00000006  0.76245898  1
  Ti  Ti5  1  0.75000000  0.00000000  0.23754099  1
  Ti  Ti6  1  0.75000000  0.23754101  0.00000000  1
  Hf  Hf7  1  -0.00000000  0.66666671  0.33333333  1
  Hf  Hf8  1  0.50000000  0.33333335  0.66666664  1
  Hf  Hf9  1  -0.00000000  0.33333335  0.66666664  1
  Ni  Ni10  1  0.25000000  0.00000000  0.40422398  1
  Ni  Ni11  1  0.75000000  0.00000000  0.59577597  1
  Ni  Ni12  1  0.75000000  0.59577604  0.00000001  1
  Ni  Ni13  1  0.25000000  0.59577604  0.59577598  1
  Ni  Ni14  1  0.25000000  0.40422402  0.00000000  1
  Sn  Sn15  1  0.75000000  0.40422402  0.40422399  1
  Ni  Ni16  1  0.50000000  0.00000000  -0.00000000  1
  Ni  Ni17  1  0.00000000  0.00000000  0.00000000  1
