# generated using pymatgen
data_Li5MgCu2
_symmetry_space_group_name_H-M   'P 1'
_cell_length_a   4.19915104
_cell_length_b   4.19915104
_cell_length_c   11.22703934
_cell_angle_alpha   79.22161102
_cell_angle_beta   79.22161102
_cell_angle_gamma   59.99998093
_symmetry_Int_Tables_number   1
_chemical_formula_structural   Li5MgCu2
_chemical_formula_sum   'Li5 Mg1 Cu2'
_cell_volume   167.39765270
_cell_formula_units_Z   1
loop_
 _symmetry_equiv_pos_site_id
 _symmetry_equiv_pos_as_xyz
  1  'x, y, z'
loop_
 _atom_site_type_symbol
 _atom_site_label
 _atom_site_symmetry_multiplicity
 _atom_site_fract_x
 _atom_site_fract_y
 _atom_site_fract_z
 _atom_site_occupancy
  Li  Li0  1  0.50000000  0.50000002  0.49999998  1
  Li  Li1  1  0.90820299  0.90820303  0.27539097  1
  Li  Li2  1  0.09179700  0.09179700  0.72460898  1
  Li  Li3  1  0.69928999  0.69929002  0.90212996  1
  Li  Li4  1  0.30071000  0.30071001  0.09786999  1
  Cu  Cu5  1  0.77465799  0.77465803  0.67602597  1
  Cu  Cu6  1  0.22534200  0.22534201  0.32397399  1
  Mg  Mg7  1  0.00000000  0.00000000  0.00000000  1
