# generated using pymatgen
data_Mn5AlNi4
_symmetry_space_group_name_H-M   'P 1'
_cell_length_a   3.31476998
_cell_length_b   6.26121092
_cell_length_c   6.26121092
_cell_angle_alpha   90.00000000
_cell_angle_beta   90.00000000
_cell_angle_gamma   90.00000000
_symmetry_Int_Tables_number   1
_chemical_formula_structural   Mn5AlNi4
_chemical_formula_sum   'Mn5 Al1 Ni4'
_cell_volume   129.94813929
_cell_formula_units_Z   1
loop_
 _symmetry_equiv_pos_site_id
 _symmetry_equiv_pos_as_xyz
  1  'x, y, z'
loop_
 _atom_site_type_symbol
 _atom_site_label
 _atom_site_symmetry_multiplicity
 _atom_site_fract_x
 _atom_site_fract_y
 _atom_site_fract_z
 _atom_site_occupancy
  Mn  Mn0  1  0.00000000  0.50000001  0.50000001  1
  Mn  Mn1  1  0.50000000  0.17287800  0.67881301  1
  Mn  Mn2  1  0.50000000  0.82712201  0.32118700  1
  Mn  Mn3  1  0.50000000  0.32118700  0.17287800  1
  Mn  Mn4  1  0.50000000  0.67881301  0.82712201  1
  Al  Al5  1  0.00000000  0.00000000  0.00000000  1
  Ni  Ni6  1  -0.00000000  0.60688901  0.10511200  1
  Ni  Ni7  1  0.00000000  0.39311101  0.89488801  1
  Ni  Ni8  1  0.00000000  0.89488801  0.60688901  1
  Ni  Ni9  1  -0.00000000  0.10511200  0.39311101  1
