# generated using pymatgen
data_TiNi
_symmetry_space_group_name_H-M   'P 1'
_cell_length_a   5.10205889
_cell_length_b   7.55555248
_cell_length_c   7.56537199
_cell_angle_alpha   83.41034698
_cell_angle_beta   70.29373169
_cell_angle_gamma   70.26706696
_symmetry_Int_Tables_number   1
_chemical_formula_structural   TiNi
_chemical_formula_sum   'Ti8 Ni8'
_cell_volume   258.43346551
_cell_formula_units_Z   8
loop_
 _symmetry_equiv_pos_site_id
 _symmetry_equiv_pos_as_xyz
  1  'x, y, z'
loop_
 _atom_site_type_symbol
 _atom_site_label
 _atom_site_symmetry_multiplicity
 _atom_site_fract_x
 _atom_site_fract_y
 _atom_site_fract_z
 _atom_site_occupancy
  Ti  Ti0  1  0.42456299  0.29542901  0.85544500  1
  Ti  Ti1  1  0.07543599  0.14450701  0.70462000  1
  Ti  Ti2  1  0.92449595  0.85541403  0.29559505  1
  Ti  Ti3  1  0.75004898  0.49975402  0.50035002  1
  Ti  Ti4  1  0.24984696  0.49975402  0.50035003  1
  Ti  Ti5  1  0.71939894  0.85703003  0.70417204  1
  Ti  Ti6  1  0.28032600  0.14363301  0.29571400  1
  Ti  Ti7  1  0.78070900  0.29499201  0.14359101  1
  Ni  Ni8  1  0.21948194  0.70473803  0.85629704  1
  Ni  Ni9  1  0.57553895  0.70468103  0.14424204  1
  Ni  Ni10  1  0.24986001  0.00008700  0.99987298  1
  Ni  Ni11  1  0.75018002  0.00008700  0.99987297  1
  Ni  Ni12  1  0.16466996  0.50001502  0.17064404  1
  Ni  Ni13  1  0.83570698  0.49972102  0.82886401  1
  Ni  Ni14  1  0.33513393  0.82963103  0.50010105  1
  Ni  Ni15  1  0.66460301  0.17052601  0.50026799  1
