# generated using pymatgen
data_Na2LiTiO6
_symmetry_space_group_name_H-M   'P 1'
_cell_length_a   2.86793995
_cell_length_b   5.34181643
_cell_length_c   7.64834595
_cell_angle_alpha   90.00000000
_cell_angle_beta   90.00000000
_cell_angle_gamma   105.57160187
_symmetry_Int_Tables_number   1
_chemical_formula_structural   Na2LiTiO6
_chemical_formula_sum   'Na2 Li1 Ti1 O6'
_cell_volume   112.87198798
_cell_formula_units_Z   1
loop_
 _symmetry_equiv_pos_site_id
 _symmetry_equiv_pos_as_xyz
  1  'x, y, z'
loop_
 _atom_site_type_symbol
 _atom_site_label
 _atom_site_symmetry_multiplicity
 _atom_site_fract_x
 _atom_site_fract_y
 _atom_site_fract_z
 _atom_site_occupancy
  Li  Li0  1  0.12557601  0.25115200  0.54433000  1
  Na  Na1  1  0.87442403  0.74884800  0.45567000  1
  Na  Na2  1  0.12557601  0.25115200  0.95567001  1
  Ti  Ti3  1  0.87442403  0.74884800  0.04433000  1
  O  O4  1  0.46906303  0.93812600  0.75000001  1
  O  O5  1  0.53093701  0.06187400  0.25000000  1
  O  O6  1  0.76019402  0.52038800  0.75000001  1
  O  O7  1  0.23980601  0.47961200  0.25000000  1
  O  O8  1  0.50000001  0.00000000  0.50000000  1
  O  O9  1  0.50000001  0.00000000  0.00000000  1
