# generated using pymatgen
data_Ca2Mn6P7C2
_symmetry_space_group_name_H-M   'P 1'
_cell_length_a   5.62677383
_cell_length_b   5.62677383
_cell_length_c   8.52346134
_cell_angle_alpha   90.00000000
_cell_angle_beta   90.00000000
_cell_angle_gamma   120.00000000
_symmetry_Int_Tables_number   1
_chemical_formula_structural   Ca2Mn6P7C2
_chemical_formula_sum   'Ca2 Mn6 P7 C2'
_cell_volume   233.70367723
_cell_formula_units_Z   1
loop_
 _symmetry_equiv_pos_site_id
 _symmetry_equiv_pos_as_xyz
  1  'x, y, z'
loop_
 _atom_site_type_symbol
 _atom_site_label
 _atom_site_symmetry_multiplicity
 _atom_site_fract_x
 _atom_site_fract_y
 _atom_site_fract_z
 _atom_site_occupancy
  Ca  Ca0  1  0.00000000  0.00000000  0.29643799  1
  Ca  Ca1  1  0.00000000  0.00000000  0.70356197  1
  Mn  Mn2  1  0.33333333  0.66666665  0.99999996  1
  Mn  Mn3  1  0.66666668  0.33333333  -0.00000000  1
  Mn  Mn4  1  0.33333333  0.66666665  0.33237399  1
  Mn  Mn5  1  0.66666668  0.33333333  0.33237399  1
  Mn  Mn6  1  0.66666668  0.33333333  0.66762597  1
  Mn  Mn7  1  0.33333333  0.66666665  0.66762597  1
  P  P8  1  0.50000001  0.00000000  0.16486299  1
  P  P9  1  0.50000000  0.49999999  0.16486299  1
  P  P10  1  -0.00000001  0.49999999  0.16486299  1
  P  P11  1  0.50000001  0.00000000  0.83513697  1
  P  P12  1  0.50000000  0.49999999  0.83513697  1
  P  P13  1  -0.00000001  0.49999999  0.83513697  1
  C  C14  1  0.50000001  0.00000000  0.49999998  1
  C  C15  1  0.50000000  0.49999999  0.49999998  1
  P  P16  1  -0.00000001  0.49999999  0.49999998  1
