# generated using pymatgen
data_Cu2AgTe2Se3
_symmetry_space_group_name_H-M   'P 1'
_cell_length_a   6.43824816
_cell_length_b   6.43865204
_cell_length_c   6.99509144
_cell_angle_alpha   81.22902679
_cell_angle_beta   72.24246216
_cell_angle_gamma   60.00207520
_symmetry_Int_Tables_number   1
_chemical_formula_structural   Cu2AgTe2Se3
_chemical_formula_sum   'Cu2 Ag1 Te2 Se3'
_cell_volume   239.16352961
_cell_formula_units_Z   1
loop_
 _symmetry_equiv_pos_site_id
 _symmetry_equiv_pos_as_xyz
  1  'x, y, z'
loop_
 _atom_site_type_symbol
 _atom_site_label
 _atom_site_symmetry_multiplicity
 _atom_site_fract_x
 _atom_site_fract_y
 _atom_site_fract_z
 _atom_site_occupancy
  Te  Te0  1  0.16666297  0.66667402  1.00000002  1
  Cu  Cu1  1  0.83333697  0.33332601  0.00000001  1
  Ag  Ag2  1  0.92434695  0.64545902  0.78901402  1
  Cu  Cu3  1  0.43019396  0.64545902  0.21098603  1
  Se  Se4  1  0.78434998  0.00000000  0.21141799  1
  Se  Se5  1  0.21565000  0.00000000  0.78858199  1
  Te  Te6  1  0.56980597  0.35454101  0.78901400  1
  Se  Se7  1  0.07565298  0.35454101  0.21098602  1
