# generated using pymatgen
data_CePd4
_symmetry_space_group_name_H-M   'P 1'
_cell_length_a   4.23694181
_cell_length_b   4.23694181
_cell_length_c   6.42015171
_cell_angle_alpha   109.26708221
_cell_angle_beta   109.26708221
_cell_angle_gamma   90.00000000
_symmetry_Int_Tables_number   1
_chemical_formula_structural   CePd4
_chemical_formula_sum   'Ce1 Pd4'
_cell_volume   101.93408262
_cell_formula_units_Z   1
loop_
 _symmetry_equiv_pos_site_id
 _symmetry_equiv_pos_as_xyz
  1  'x, y, z'
loop_
 _atom_site_type_symbol
 _atom_site_label
 _atom_site_symmetry_multiplicity
 _atom_site_fract_x
 _atom_site_fract_y
 _atom_site_fract_z
 _atom_site_occupancy
  Ce  Ce0  1  0.00000000  0.00000000  0.00000000  1
  Pd  Pd1  1  0.75000003  0.25000001  0.50000002  1
  Pd  Pd2  1  0.25000001  0.75000003  0.50000002  1
  Pd  Pd3  1  0.38929002  0.38929002  0.77858002  1
  Pd  Pd4  1  0.61071003  0.61071003  0.22142001  1
