# generated using pymatgen
data_Li6FeO8
_symmetry_space_group_name_H-M   'P 1'
_cell_length_a   5.79954576
_cell_length_b   5.80700779
_cell_length_c   5.87704325
_cell_angle_alpha   60.39342499
_cell_angle_beta   60.49953079
_cell_angle_gamma   90.00000000
_symmetry_Int_Tables_number   1
_chemical_formula_structural   Li6FeO8
_chemical_formula_sum   'Li6 Fe1 O8'
_cell_volume   141.82342086
_cell_formula_units_Z   1
loop_
 _symmetry_equiv_pos_site_id
 _symmetry_equiv_pos_as_xyz
  1  'x, y, z'
loop_
 _atom_site_type_symbol
 _atom_site_label
 _atom_site_symmetry_multiplicity
 _atom_site_fract_x
 _atom_site_fract_y
 _atom_site_fract_z
 _atom_site_occupancy
  Li  Li0  1  0.00000000  0.50000002  0.49999998  1
  Li  Li1  1  0.00000000  0.00000000  0.49999998  1
  Li  Li2  1  0.49999999  0.00000000  -0.00000000  1
  Li  Li3  1  0.49999999  0.50000002  0.99999997  1
  Li  Li4  1  0.49999999  0.50000002  0.49999998  1
  Li  Li5  1  0.49999999  0.00000000  0.49999998  1
  Fe  Fe6  1  0.00000000  0.00000000  0.00000000  1
  O  O7  1  0.74194198  0.24175001  0.00794600  1
  O  O8  1  0.74194198  0.75030403  0.00794599  1
  O  O9  1  0.24421399  0.24985901  0.50028198  1
  O  O10  1  0.28396800  0.75585003  0.48829998  1
  O  O11  1  0.71603198  0.24415001  0.51169998  1
  O  O12  1  0.75578598  0.75014103  0.49971798  1
  O  O13  1  0.25805799  0.24969601  0.99205397  1
  O  O14  1  0.25805800  0.75825003  0.99205397  1
