# generated using pymatgen
data_CoCu2
_symmetry_space_group_name_H-M   'P 1'
_cell_length_a   3.12158489
_cell_length_b   5.42584419
_cell_length_c   5.42584324
_cell_angle_alpha   120.00000763
_cell_angle_beta   90.00000000
_cell_angle_gamma   90.00000000
_symmetry_Int_Tables_number   1
_chemical_formula_structural   CoCu2
_chemical_formula_sum   'Co2 Cu4'
_cell_volume   79.58666550
_cell_formula_units_Z   2
loop_
 _symmetry_equiv_pos_site_id
 _symmetry_equiv_pos_as_xyz
  1  'x, y, z'
loop_
 _atom_site_type_symbol
 _atom_site_label
 _atom_site_symmetry_multiplicity
 _atom_site_fract_x
 _atom_site_fract_y
 _atom_site_fract_z
 _atom_site_occupancy
  Cu  Cu0  1  0.00000000  0.00000000  0.00000000  1
  Co  Co1  1  -0.00000000  0.66666667  0.33333339  1
  Co  Co2  1  1.00000003  0.33333333  0.66666671  1
  Cu  Cu3  1  0.50000002  0.50000000  0.00000004  1
  Cu  Cu4  1  0.50000002  1.00000000  0.50000009  1
  Cu  Cu5  1  0.50000002  0.50000000  0.50000005  1
