# generated using pymatgen
data_Ta2NbBN5
_symmetry_space_group_name_H-M   'P 1'
_cell_length_a   4.70376492
_cell_length_b   5.12747002
_cell_length_c   5.12746954
_cell_angle_alpha   120.00000000
_cell_angle_beta   90.00000000
_cell_angle_gamma   90.00000000
_symmetry_Int_Tables_number   1
_chemical_formula_structural   Ta2NbBN5
_chemical_formula_sum   'Ta2 Nb1 B1 N5'
_cell_volume   107.09827077
_cell_formula_units_Z   1
loop_
 _symmetry_equiv_pos_site_id
 _symmetry_equiv_pos_as_xyz
  1  'x, y, z'
loop_
 _atom_site_type_symbol
 _atom_site_label
 _atom_site_symmetry_multiplicity
 _atom_site_fract_x
 _atom_site_fract_y
 _atom_site_fract_z
 _atom_site_occupancy
  Nb  Nb0  1  0.00000000  0.00000000  0.00000000  1
  Ta  Ta1  1  0.50000001  0.33333333  0.66666668  1
  Ta  Ta2  1  0.50000001  0.66666665  0.33333333  1
  B  B3  1  0.26230200  0.66359099  -0.00000002  1
  N  N4  1  0.26230200  0.33640899  0.33640900  1
  N  N5  1  0.26230200  0.99999998  0.66359100  1
  N  N6  1  0.73769801  0.66359099  0.66359101  1
  N  N7  1  0.73769801  0.99999998  0.33640898  1
  N  N8  1  0.73769801  0.33640899  -0.00000001  1
