# generated using pymatgen
data_Na3TiNiO2
_symmetry_space_group_name_H-M   'P 1'
_cell_length_a   3.40972400
_cell_length_b   8.87322998
_cell_length_c   9.10679531
_cell_angle_alpha   103.96800232
_cell_angle_beta   100.78987122
_cell_angle_gamma   90.00000000
_symmetry_Int_Tables_number   1
_chemical_formula_structural   Na3TiNiO2
_chemical_formula_sum   'Na6 Ti2 Ni2 O4'
_cell_volume   262.35884580
_cell_formula_units_Z   2
loop_
 _symmetry_equiv_pos_site_id
 _symmetry_equiv_pos_as_xyz
  1  'x, y, z'
loop_
 _atom_site_type_symbol
 _atom_site_label
 _atom_site_symmetry_multiplicity
 _atom_site_fract_x
 _atom_site_fract_y
 _atom_site_fract_z
 _atom_site_occupancy
  Na  Na0  1  0.50000000  0.50000002  0.00000001  1
  Na  Na1  1  0.79276900  0.15221401  0.58553797  1
  Na  Na2  1  0.20723100  0.84778604  0.41446201  1
  Na  Na3  1  0.15874800  0.49269402  0.31749600  1
  Na  Na4  1  0.84125200  0.50730602  0.68250398  1
  Na  Na5  1  0.00000000  0.00000000  0.00000000  1
  Ti  Ti6  1  0.66258000  0.99915204  0.32516001  1
  Ti  Ti7  1  0.33742000  0.00084800  0.67483997  1
  Ni  Ni8  1  0.25938900  0.33451201  0.51877799  1
  Ni  Ni9  1  0.74061100  0.66548803  0.48122199  1
  O  O10  1  0.58746800  0.32353401  0.17493600  1
  O  O11  1  0.41253200  0.67646603  0.82506398  1
  O  O12  1  0.92439800  0.33127701  0.84879596  1
  O  O13  1  0.07560200  0.66872303  0.15120402  1
