# generated using pymatgen
data_Ce4Ge7
_symmetry_space_group_name_H-M   'P 1'
_cell_length_a   4.85176802
_cell_length_b   7.54545403
_cell_length_c   9.12748623
_cell_angle_alpha   114.41462708
_cell_angle_beta   105.41317749
_cell_angle_gamma   90.00000000
_symmetry_Int_Tables_number   1
_chemical_formula_structural   Ce4Ge7
_chemical_formula_sum   'Ce4 Ge7'
_cell_volume   291.01716356
_cell_formula_units_Z   1
loop_
 _symmetry_equiv_pos_site_id
 _symmetry_equiv_pos_as_xyz
  1  'x, y, z'
loop_
 _atom_site_type_symbol
 _atom_site_label
 _atom_site_symmetry_multiplicity
 _atom_site_fract_x
 _atom_site_fract_y
 _atom_site_fract_z
 _atom_site_occupancy
  Ce  Ce0  1  0.37010398  0.37010400  0.74020801  1
  Ce  Ce1  1  0.49999999  0.00000000  -0.00000001  1
  Ce  Ce2  1  0.62989597  0.62989600  0.25979199  1
  Ce  Ce3  1  0.82272299  0.01642200  0.64544600  1
  Ge  Ge4  1  0.82272297  0.62902400  0.64544599  1
  Ge  Ge5  1  0.17727699  0.37097600  0.35455400  1
  Ge  Ge6  1  0.17727697  0.98357799  0.35455400  1
  Ge  Ge7  1  0.71358698  0.21358700  0.42717399  1
  Ge  Ge8  1  0.28641297  0.78641300  0.57282600  1
  Ge  Ge9  1  -0.00000002  0.69117800  -0.00000000  1
  Ge  Ge10  1  0.99999998  0.30882200  1.00000000  1
