# generated using pymatgen
data_Li4CuNiO5
_symmetry_space_group_name_H-M   'P 1'
_cell_length_a   5.80731678
_cell_length_b   5.80731678
_cell_length_c   5.80731726
_cell_angle_alpha   63.76152039
_cell_angle_beta   63.76152039
_cell_angle_gamma   63.76151657
_symmetry_Int_Tables_number   1
_chemical_formula_structural   Li4CuNiO5
_chemical_formula_sum   'Li4 Cu1 Ni1 O5'
_cell_volume   149.98293972
_cell_formula_units_Z   1
loop_
 _symmetry_equiv_pos_site_id
 _symmetry_equiv_pos_as_xyz
  1  'x, y, z'
loop_
 _atom_site_type_symbol
 _atom_site_label
 _atom_site_symmetry_multiplicity
 _atom_site_fract_x
 _atom_site_fract_y
 _atom_site_fract_z
 _atom_site_occupancy
  Li  Li0  1  0.62345800  0.62345802  0.10972803  1
  Li  Li1  1  0.62345801  0.10972800  0.62345800  1
  Li  Li2  1  0.10972799  0.62345802  0.62345800  1
  Li  Li3  1  0.99826901  0.99826903  0.99826902  1
  Ni  Ni4  1  0.77994800  0.77994802  0.21890003  1
  Cu  Cu5  1  0.77994801  0.21890001  0.77994800  1
  O  O6  1  0.77742001  0.22990801  0.22990802  1
  O  O7  1  0.75265400  0.75265402  0.75265401  1
  O  O8  1  0.22990799  0.77742002  0.22990802  1
  O  O9  1  0.22990800  0.22990801  0.77741999  1
  O  O10  1  0.21889999  0.77994802  0.77994800  1
