# generated using pymatgen
data_NbNi3
_symmetry_space_group_name_H-M   'P 1'
_cell_length_a   4.29073715
_cell_length_b   5.26620150
_cell_length_c   5.26664066
_cell_angle_alpha   119.99906921
_cell_angle_beta   90.00000000
_cell_angle_gamma   90.00000000
_symmetry_Int_Tables_number   1
_chemical_formula_structural   NbNi3
_chemical_formula_sum   'Nb2 Ni6'
_cell_volume   103.06181246
_cell_formula_units_Z   2
loop_
 _symmetry_equiv_pos_site_id
 _symmetry_equiv_pos_as_xyz
  1  'x, y, z'
loop_
 _atom_site_type_symbol
 _atom_site_label
 _atom_site_symmetry_multiplicity
 _atom_site_fract_x
 _atom_site_fract_y
 _atom_site_fract_z
 _atom_site_occupancy
  Nb  Nb0  1  0.75000097  0.66670930  0.33337599  1
  Nb  Nb1  1  0.25000099  0.33333331  0.66666667  1
  Ni  Ni2  1  0.25000099  0.84283195  0.15714698  1
  Ni  Ni3  1  0.25000099  0.84284695  0.68570699  1
  Ni  Ni4  1  0.25000099  0.31426598  0.15712999  1
  Ni  Ni5  1  0.75000097  0.15720699  0.84276701  1
  Ni  Ni6  1  0.75000097  0.15719199  0.31441100  1
  Ni  Ni7  1  0.75000097  0.68563196  0.84279800  1
