# generated using pymatgen
data_CeP2
_symmetry_space_group_name_H-M   'P 1'
_cell_length_a   4.21627617
_cell_length_b   6.82799816
_cell_length_c   6.97642279
_cell_angle_alpha   90.00000000
_cell_angle_beta   90.00000000
_cell_angle_gamma   90.00000000
_symmetry_Int_Tables_number   1
_chemical_formula_structural   CeP2
_chemical_formula_sum   'Ce4 P8'
_cell_volume   200.84232357
_cell_formula_units_Z   4
loop_
 _symmetry_equiv_pos_site_id
 _symmetry_equiv_pos_as_xyz
  1  'x, y, z'
loop_
 _atom_site_type_symbol
 _atom_site_label
 _atom_site_symmetry_multiplicity
 _atom_site_fract_x
 _atom_site_fract_y
 _atom_site_fract_z
 _atom_site_occupancy
  Ce  Ce0  1  0.74999997  0.68447198  0.47922801  1
  Ce  Ce1  1  0.24999999  0.31552799  0.52077202  1
  Ce  Ce2  1  0.74999997  0.81552798  0.97922803  1
  Ce  Ce3  1  0.24999999  0.18447200  0.02077200  1
  P  P4  1  0.24999999  0.56769099  0.85713603  1
  P  P5  1  0.74999997  0.43230899  0.14286400  1
  P  P6  1  0.24999999  0.93230898  0.35713601  1
  P  P7  1  0.74999997  0.06769100  0.64286402  1
  P  P8  1  0.74999997  0.39258099  0.80765402  1
  P  P9  1  0.24999999  0.60741899  0.19234601  1
  P  P10  1  0.74999997  0.10741900  0.30765401  1
  P  P11  1  0.24999999  0.89258098  0.69234602  1
