# generated using pymatgen
data_Nd3TiNi16
_symmetry_space_group_name_H-M   'P 1'
_cell_length_a   5.75593901
_cell_length_b   8.15816498
_cell_length_c   8.15816498
_cell_angle_alpha   91.82216644
_cell_angle_beta   110.21993256
_cell_angle_gamma   110.21993256
_symmetry_Int_Tables_number   1
_chemical_formula_structural   Nd3TiNi16
_chemical_formula_sum   'Nd3 Ti1 Ni16'
_cell_volume   332.31383611
_cell_formula_units_Z   1
loop_
 _symmetry_equiv_pos_site_id
 _symmetry_equiv_pos_as_xyz
  1  'x, y, z'
loop_
 _atom_site_type_symbol
 _atom_site_label
 _atom_site_symmetry_multiplicity
 _atom_site_fract_x
 _atom_site_fract_y
 _atom_site_fract_z
 _atom_site_occupancy
  Ti  Ti0  1  0.73509507  0.59589802  0.86536304  1
  Nd  Nd1  1  0.76490502  0.13463700  0.40410203  1
  Nd  Nd2  1  0.26490504  0.40410201  0.13463702  1
  Nd  Nd3  1  0.23509509  0.86536303  0.59589802  1
  Ni  Ni4  1  0.66410203  0.26542101  0.05665303  1
  Ni  Ni5  1  0.83589811  0.94334703  0.73457905  1
  Ni  Ni6  1  0.33589808  0.73457902  0.94334703  1
  Ni  Ni7  1  0.16410201  0.05665300  0.26542101  1
  Ni  Ni8  1  0.75000009  0.78892502  0.21107504  1
  Ni  Ni9  1  0.25000002  0.21107501  0.78892502  1
  Ni  Ni10  1  0.75000006  0.48902301  0.51097704  1
  Ni  Ni11  1  0.25000005  0.51097702  0.48902302  1
  Ni  Ni12  1  0.75000003  0.22114501  0.77885504  1
  Ni  Ni13  1  0.25000008  0.77885502  0.22114502  1
  Ni  Ni14  1  0.87638306  0.53878802  0.25539804  1
  Ni  Ni15  1  0.62361708  0.74460202  0.46121203  1
  Ni  Ni16  1  0.12361705  0.46121201  0.74460201  1
  Ni  Ni17  1  0.37638303  0.25539801  0.53878802  1
  Ni  Ni18  1  0.75000001  0.00019600  0.99980404  1
  Ni  Ni19  1  0.25000010  0.99980403  0.00019602  1
