# generated using pymatgen
data_Mg
_symmetry_space_group_name_H-M   'P 1'
_cell_length_a   5.06127977
_cell_length_b   6.21655989
_cell_length_c   6.22439575
_cell_angle_alpha   60.04163361
_cell_angle_beta   90.00000000
_cell_angle_gamma   90.00000000
_symmetry_Int_Tables_number   1
_chemical_formula_structural   Mg
_chemical_formula_sum   Mg8
_cell_volume   169.67597033
_cell_formula_units_Z   8
loop_
 _symmetry_equiv_pos_site_id
 _symmetry_equiv_pos_as_xyz
  1  'x, y, z'
loop_
 _atom_site_type_symbol
 _atom_site_label
 _atom_site_symmetry_multiplicity
 _atom_site_fract_x
 _atom_site_fract_y
 _atom_site_fract_z
 _atom_site_occupancy
  Mg  Mg0  1  0.00000000  0.16830201  0.66339600  1
  Mg  Mg1  1  0.00000000  0.66146602  0.16912398  1
  Mg  Mg2  1  1.00000004  0.16941001  0.16912400  1
  Mg  Mg3  1  0.00000000  0.66620402  0.66759199  1
  Mg  Mg4  1  0.50000002  0.83614503  0.83061299  1
  Mg  Mg5  1  0.50000002  0.33324201  0.83061300  1
  Mg  Mg6  1  0.50000002  0.83268703  0.33462598  1
  Mg  Mg7  1  0.50000002  0.33254401  0.33491199  1
