# generated using pymatgen
data_Li3MnO4
_symmetry_space_group_name_H-M   'P 1'
_cell_length_a   2.86582708
_cell_length_b   5.40704918
_cell_length_c   9.86764050
_cell_angle_alpha   96.42803955
_cell_angle_beta   90.00000000
_cell_angle_gamma   90.00000000
_symmetry_Int_Tables_number   1
_chemical_formula_structural   Li3MnO4
_chemical_formula_sum   'Li6 Mn2 O8'
_cell_volume   151.94440095
_cell_formula_units_Z   2
loop_
 _symmetry_equiv_pos_site_id
 _symmetry_equiv_pos_as_xyz
  1  'x, y, z'
loop_
 _atom_site_type_symbol
 _atom_site_label
 _atom_site_symmetry_multiplicity
 _atom_site_fract_x
 _atom_site_fract_y
 _atom_site_fract_z
 _atom_site_occupancy
  Li  Li0  1  0.49999999  0.24208099  0.24663700  1
  Li  Li1  1  0.49999999  0.75791898  0.75336300  1
  Li  Li2  1  -0.00000000  0.75740898  0.24854700  1
  Li  Li3  1  -0.00000000  0.24259099  0.75145299  1
  Li  Li4  1  -0.00000000  0.49999998  0.50000000  1
  Li  Li5  1  0.49999999  0.49999998  0.00000000  1
  Mn  Mn6  1  0.49999999  0.00000000  0.49999999  1
  Mn  Mn7  1  0.00000000  0.00000000  0.00000000  1
  O  O8  1  0.49999999  0.88614897  0.12134501  1
  O  O9  1  0.49999999  0.39528699  0.61591400  1
  O  O10  1  -0.00000000  0.37045899  0.10969700  1
  O  O11  1  -0.00000000  0.88996197  0.61461900  1
  O  O12  1  0.49999999  0.60471298  0.38408600  1
  O  O13  1  0.49999999  0.11385100  0.87865499  1
  O  O14  1  -0.00000000  0.11003800  0.38538100  1
  O  O15  1  -0.00000000  0.62954098  0.89030300  1
