# generated using pymatgen
data_VCu2AgS14
_symmetry_space_group_name_H-M   'P 1'
_cell_length_a   7.20794249
_cell_length_b   7.20794249
_cell_length_c   7.20794249
_cell_angle_alpha   60.00000000
_cell_angle_beta   60.00000000
_cell_angle_gamma   60.00000000
_symmetry_Int_Tables_number   1
_chemical_formula_structural   VCu2AgS14
_chemical_formula_sum   'V1 Cu2 Ag1 S14'
_cell_volume   264.80058490
_cell_formula_units_Z   1
loop_
 _symmetry_equiv_pos_site_id
 _symmetry_equiv_pos_as_xyz
  1  'x, y, z'
loop_
 _atom_site_type_symbol
 _atom_site_label
 _atom_site_symmetry_multiplicity
 _atom_site_fract_x
 _atom_site_fract_y
 _atom_site_fract_z
 _atom_site_occupancy
  V  V0  1  0.00000000  0.00000000  0.00000000  1
  Ag  Ag1  1  0.75000000  0.75000000  0.75000000  1
  Cu  Cu2  1  0.37500000  0.37500000  0.37500000  1
  Cu  Cu3  1  0.37500000  0.37500000  0.87500000  1
  S  S4  1  0.37500000  0.87500000  0.37500000  1
  S  S5  1  0.87500000  0.37500000  0.37500000  1
  S  S6  1  0.30842600  0.69157400  0.30842600  1
  S  S7  1  0.69157400  0.30842600  0.69157400  1
  S  S8  1  0.30842600  0.30842600  0.69157400  1
  S  S9  1  0.30842600  0.69157400  0.69157400  1
  S  S10  1  0.05842600  0.44157400  0.05842600  1
  S  S11  1  0.05842600  0.44157400  0.44157400  1
  S  S12  1  0.69157400  0.69157400  0.30842600  1
  S  S13  1  0.44157400  0.05842600  0.44157400  1
  S  S14  1  0.05842600  0.05842600  0.44157400  1
  S  S15  1  0.44157400  0.05842600  0.05842600  1
  S  S16  1  0.69157400  0.30842600  0.30842600  1
  S  S17  1  0.44157400  0.44157400  0.05842600  1
