# generated using pymatgen
data_DyErNi3
_symmetry_space_group_name_H-M   'P 1'
_cell_length_a   4.11376190
_cell_length_b   5.53542185
_cell_length_c   8.92108727
_cell_angle_alpha   82.93715668
_cell_angle_beta   76.66972351
_cell_angle_gamma   68.18658447
_symmetry_Int_Tables_number   1
_chemical_formula_structural   DyErNi3
_chemical_formula_sum   'Dy2 Er2 Ni6'
_cell_volume   183.36246127
_cell_formula_units_Z   2
loop_
 _symmetry_equiv_pos_site_id
 _symmetry_equiv_pos_as_xyz
  1  'x, y, z'
loop_
 _atom_site_type_symbol
 _atom_site_label
 _atom_site_symmetry_multiplicity
 _atom_site_fract_x
 _atom_site_fract_y
 _atom_site_fract_z
 _atom_site_occupancy
  Dy  Dy0  1  0.99840505  0.67410196  0.32908800  1
  Dy  Dy1  1  0.18690203  0.73478796  0.89140802  1
  Er  Er2  1  0.00159501  0.32589798  0.67091201  1
  Er  Er3  1  0.81309803  0.26521199  0.10859200  1
  Ni  Ni4  1  0.27373001  0.07990800  0.37263200  1
  Ni  Ni5  1  0.72627005  0.92009195  0.62736801  1
  Ni  Ni6  1  0.50773704  0.86008695  0.12443901  1
  Ni  Ni7  1  0.49226302  0.13991299  0.87556101  1
  Ni  Ni8  1  0.35061003  0.73324396  0.56553601  1
  Ni  Ni9  1  0.64939003  0.26675599  0.43446400  1
