# generated using pymatgen
data_Nd6Zr6SnGe7
_symmetry_space_group_name_H-M   'P 1'
_cell_length_a   3.82049704
_cell_length_b   8.23548603
_cell_length_c   15.17508984
_cell_angle_alpha   90.00000000
_cell_angle_beta   97.23161316
_cell_angle_gamma   90.00000000
_symmetry_Int_Tables_number   1
_chemical_formula_structural   Nd6Zr6SnGe7
_chemical_formula_sum   'Nd6 Zr6 Sn1 Ge7'
_cell_volume   473.66568067
_cell_formula_units_Z   1
loop_
 _symmetry_equiv_pos_site_id
 _symmetry_equiv_pos_as_xyz
  1  'x, y, z'
loop_
 _atom_site_type_symbol
 _atom_site_label
 _atom_site_symmetry_multiplicity
 _atom_site_fract_x
 _atom_site_fract_y
 _atom_site_fract_z
 _atom_site_occupancy
  Nd  Nd0  1  0.82494600  0.28491900  0.64989100  1
  Nd  Nd1  1  0.17505400  0.78491900  0.35010900  1
  Nd  Nd2  1  0.52534500  0.19719400  0.05069001  1
  Nd  Nd3  1  0.47465500  0.69719400  0.94931000  1
  Nd  Nd4  1  0.12135500  0.25262300  0.24271000  1
  Nd  Nd5  1  0.87864500  0.75262300  0.75729000  1
  Zr  Zr6  1  0.70441600  0.07848500  0.40883201  1
  Zr  Zr7  1  0.29558400  0.57848500  0.59116800  1
  Zr  Zr8  1  0.40067100  0.08957100  0.80134200  1
  Zr  Zr9  1  0.59932900  0.58957100  0.19865801  1
  Zr  Zr10  1  0.05168900  0.86867800  0.10337800  1
  Zr  Zr11  1  0.94831100  0.36867800  0.89662200  1
  Sn  Sn12  1  0.70146300  0.48382100  0.40292601  1
  Ge  Ge13  1  0.29853700  0.98382100  0.59707400  1
  Ge  Ge14  1  0.96455700  0.99680800  0.92911300  1
  Ge  Ge15  1  0.03544300  0.49680800  0.07088700  1
  Ge  Ge16  1  0.24307600  0.28347000  0.48615300  1
  Ge  Ge17  1  0.75692400  0.78347000  0.51384700  1
  Ge  Ge18  1  0.61327200  0.97839300  0.22654501  1
  Ge  Ge19  1  0.38672800  0.47839300  0.77345500  1
