# generated using pymatgen
data_Li2CoS4
_symmetry_space_group_name_H-M   'P 1'
_cell_length_a   6.51333714
_cell_length_b   6.51333714
_cell_length_c   6.51333714
_cell_angle_alpha   60.00000000
_cell_angle_beta   60.00000000
_cell_angle_gamma   60.00000000
_symmetry_Int_Tables_number   1
_chemical_formula_structural   Li2CoS4
_chemical_formula_sum   'Li4 Co2 S8'
_cell_volume   195.38700538
_cell_formula_units_Z   2
loop_
 _symmetry_equiv_pos_site_id
 _symmetry_equiv_pos_as_xyz
  1  'x, y, z'
loop_
 _atom_site_type_symbol
 _atom_site_label
 _atom_site_symmetry_multiplicity
 _atom_site_fract_x
 _atom_site_fract_y
 _atom_site_fract_z
 _atom_site_occupancy
  Li  Li0  1  0.37500001  0.87500003  0.37500001  1
  Li  Li1  1  0.87500003  0.37500001  0.37500001  1
  Li  Li2  1  0.75000002  0.75000002  0.75000002  1
  Li  Li3  1  0.37500001  0.37500001  0.37500001  1
  Co  Co4  1  0.00000000  0.00000000  0.00000000  1
  Co  Co5  1  0.37500001  0.37500001  0.87500003  1
  S  S6  1  0.13275900  0.60172102  0.13276000  1
  S  S7  1  0.13275900  0.13276000  0.13276000  1
  S  S8  1  0.60172002  0.13276000  0.13276000  1
  S  S9  1  0.13275900  0.13276000  0.60172102  1
  S  S10  1  0.14828000  0.61724002  0.61724002  1
  S  S11  1  0.61724102  0.61724002  0.14827900  1
  S  S12  1  0.61724102  0.14827900  0.61724002  1
  S  S13  1  0.61724102  0.61724002  0.61724002  1
