# generated using pymatgen
data_LiFe4Co
_symmetry_space_group_name_H-M   'P 1'
_cell_length_a   3.86466026
_cell_length_b   3.86466026
_cell_length_c   6.63796663
_cell_angle_alpha   73.07601929
_cell_angle_beta   73.07601929
_cell_angle_gamma   59.99999237
_symmetry_Int_Tables_number   1
_chemical_formula_structural   LiFe4Co
_chemical_formula_sum   'Li1 Fe4 Co1'
_cell_volume   80.86361266
_cell_formula_units_Z   1
loop_
 _symmetry_equiv_pos_site_id
 _symmetry_equiv_pos_as_xyz
  1  'x, y, z'
loop_
 _atom_site_type_symbol
 _atom_site_label
 _atom_site_symmetry_multiplicity
 _atom_site_fract_x
 _atom_site_fract_y
 _atom_site_fract_z
 _atom_site_occupancy
  Li  Li0  1  0.00000000  0.00000000  0.00000000  1
  Fe  Fe1  1  0.50000000  0.50000002  0.50000000  1
  Fe  Fe2  1  0.61941000  0.61941002  0.14176998  1
  Fe  Fe3  1  0.12969000  0.12969001  0.61093002  1
  Co  Co4  1  0.87031000  0.87031003  0.38906998  1
  Fe  Fe5  1  0.38059000  0.38059002  0.85823001  1
