# generated using pymatgen
data_AgSe
_symmetry_space_group_name_H-M   'P 1'
_cell_length_a   6.42724180
_cell_length_b   6.42724180
_cell_length_c   7.93163061
_cell_angle_alpha   113.90148163
_cell_angle_beta   113.90148163
_cell_angle_gamma   90.00000000
_symmetry_Int_Tables_number   1
_chemical_formula_structural   AgSe
_chemical_formula_sum   'Ag4 Se4'
_cell_volume   268.53055051
_cell_formula_units_Z   4
loop_
 _symmetry_equiv_pos_site_id
 _symmetry_equiv_pos_as_xyz
  1  'x, y, z'
loop_
 _atom_site_type_symbol
 _atom_site_label
 _atom_site_symmetry_multiplicity
 _atom_site_fract_x
 _atom_site_fract_y
 _atom_site_fract_z
 _atom_site_occupancy
  Ag  Ag0  1  0.00000000  0.00000000  0.00000000  1
  Ag  Ag1  1  0.25000000  0.75000002  0.50000000  1
  Ag  Ag2  1  0.75000002  0.25000001  0.50000000  1
  Ag  Ag3  1  0.50000001  0.50000001  -0.00000001  1
  Se  Se4  1  0.88152302  0.88152302  0.24947399  1
  Se  Se5  1  0.36795101  0.36795101  0.24947400  1
  Se  Se6  1  0.63204902  0.11847700  0.75052600  1
  Se  Se7  1  0.11847700  0.63204902  0.75052600  1
