# generated using pymatgen
data_Al
_symmetry_space_group_name_H-M   'P 1'
_cell_length_a   3.96132994
_cell_length_b   4.96287680
_cell_length_c   8.56795216
_cell_angle_alpha   90.00000000
_cell_angle_beta   90.00000000
_cell_angle_gamma   90.00000000
_symmetry_Int_Tables_number   1
_chemical_formula_structural   Al
_chemical_formula_sum   Al12
_cell_volume   168.44244733
_cell_formula_units_Z   12
loop_
 _symmetry_equiv_pos_site_id
 _symmetry_equiv_pos_as_xyz
  1  'x, y, z'
loop_
 _atom_site_type_symbol
 _atom_site_label
 _atom_site_symmetry_multiplicity
 _atom_site_fract_x
 _atom_site_fract_y
 _atom_site_fract_z
 _atom_site_occupancy
  Al  Al0  1  0.00000000  0.00000000  0.00000000  1
  Al  Al1  1  0.00000000  0.50000002  0.49999999  1
  Al  Al2  1  0.00000000  0.00000000  0.33357599  1
  Al  Al3  1  0.00000000  0.50000002  0.83276898  1
  Al  Al4  1  0.00000000  0.50000002  0.16723100  1
  Al  Al5  1  0.00000000  0.00000000  0.66642399  1
  Al  Al6  1  0.50000001  0.50000002  0.00000000  1
  Al  Al7  1  0.50000001  0.00000000  0.49999999  1
  Al  Al8  1  0.50000001  0.25153501  0.25235600  1
  Al  Al9  1  0.50000001  0.74846503  0.74764399  1
  Al  Al10  1  0.50000001  0.74846503  0.25235600  1
  Al  Al11  1  0.50000001  0.25153501  0.74764399  1
