# generated using pymatgen
data_Tl5Ge7
_symmetry_space_group_name_H-M   'P 1'
_cell_length_a   4.37858009
_cell_length_b   4.37858057
_cell_length_c   24.58757591
_cell_angle_alpha   90.00000000
_cell_angle_beta   90.00000000
_cell_angle_gamma   120.00000000
_symmetry_Int_Tables_number   1
_chemical_formula_structural   Tl5Ge7
_chemical_formula_sum   'Tl5 Ge7'
_cell_volume   408.23758794
_cell_formula_units_Z   1
loop_
 _symmetry_equiv_pos_site_id
 _symmetry_equiv_pos_as_xyz
  1  'x, y, z'
loop_
 _atom_site_type_symbol
 _atom_site_label
 _atom_site_symmetry_multiplicity
 _atom_site_fract_x
 _atom_site_fract_y
 _atom_site_fract_z
 _atom_site_occupancy
  Tl  Tl0  1  0.00000000  0.00000000  0.11659300  1
  Tl  Tl1  1  0.00000000  0.00000000  0.88340697  1
  Tl  Tl2  1  0.33333337  0.66666667  0.28746899  1
  Tl  Tl3  1  0.66666667  0.33333333  0.71253097  1
  Tl  Tl4  1  0.66666667  0.33333333  0.46480998  1
  Ge  Ge5  1  0.33333337  0.66666667  0.53518998  1
  Ge  Ge6  1  0.66666667  0.33333333  0.20338699  1
  Ge  Ge7  1  0.33333337  0.66666667  0.79661297  1
  Ge  Ge8  1  0.00000000  0.00000000  0.36073899  1
  Ge  Ge9  1  0.00000000  0.00000000  0.63926098  1
  Ge  Ge10  1  0.33333337  0.66666667  0.06669800  1
  Ge  Ge11  1  0.66666667  0.33333333  0.93330197  1
