# generated using pymatgen
data_SrH3O4
_symmetry_space_group_name_H-M   'P 1'
_cell_length_a   6.25635910
_cell_length_b   6.25635910
_cell_length_c   6.25635910
_cell_angle_alpha   107.18946075
_cell_angle_beta   107.18946075
_cell_angle_gamma   114.13797760
_symmetry_Int_Tables_number   1
_chemical_formula_structural   SrH3O4
_chemical_formula_sum   'Sr2 H6 O8'
_cell_volume   187.56790849
_cell_formula_units_Z   2
loop_
 _symmetry_equiv_pos_site_id
 _symmetry_equiv_pos_as_xyz
  1  'x, y, z'
loop_
 _atom_site_type_symbol
 _atom_site_label
 _atom_site_symmetry_multiplicity
 _atom_site_fract_x
 _atom_site_fract_y
 _atom_site_fract_z
 _atom_site_occupancy
  Sr  Sr0  1  0.25000003  0.75000004  0.50000008  1
  Sr  Sr1  1  0.50000003  0.50000002  0.00000007  1
  H  H2  1  0.75000003  0.25000001  0.50000008  1
  H  H3  1  0.00000000  0.00000000  0.00000000  1
  H  H4  1  0.87500004  0.29741101  0.92241110  1
  H  H5  1  0.04741100  0.12500001  0.42241102  1
  H  H6  1  0.70258904  0.62500003  0.57758910  1
  H  H7  1  0.37500003  0.95258904  0.07758910  1
  O  O8  1  0.50434804  0.92210704  0.24153211  1
  O  O9  1  0.73718404  0.49565202  0.41775909  1
  O  O10  1  0.07789301  0.31942501  0.58224104  1
  O  O11  1  0.68057503  0.26281601  0.75846808  1
  O  O12  1  0.24565203  0.98718405  0.91775911  1
  O  O13  1  0.06942501  0.32789302  0.08224103  1
  O  O14  1  0.67210704  0.75434804  0.74153212  1
  O  O15  1  0.01281602  0.93057504  0.25846808  1
