# generated using pymatgen
data_CeUTaFeSn3Ru12C
_symmetry_space_group_name_H-M   'P 1'
_cell_length_a   6.53651524
_cell_length_b   6.53651524
_cell_length_c   9.46651554
_cell_angle_alpha   90.00000000
_cell_angle_beta   90.00000000
_cell_angle_gamma   90.00000000
_symmetry_Int_Tables_number   1
_chemical_formula_structural   CeUTaFeSn3Ru12C
_chemical_formula_sum   'Ce1 U1 Ta1 Fe1 Sn3 Ru12 C1'
_cell_volume   404.46664053
_cell_formula_units_Z   1
loop_
 _symmetry_equiv_pos_site_id
 _symmetry_equiv_pos_as_xyz
  1  'x, y, z'
loop_
 _atom_site_type_symbol
 _atom_site_label
 _atom_site_symmetry_multiplicity
 _atom_site_fract_x
 _atom_site_fract_y
 _atom_site_fract_z
 _atom_site_occupancy
  Ta  Ta0  1  0.00000000  0.49999998  0.25000001  1
  U  U1  1  0.00000000  0.49999998  0.75000004  1
  Sn  Sn2  1  0.49999998  0.00000000  0.25000001  1
  Ce  Ce3  1  0.49999998  0.00000000  0.75000004  1
  Sn  Sn4  1  0.00000000  0.00000000  0.50000002  1
  Fe  Fe5  1  0.49999998  0.49999998  0.00000000  1
  Ru  Ru6  1  0.00000000  0.00000000  0.00000000  1
  Sn  Sn7  1  0.49999998  0.49999998  0.50000002  1
  Ru  Ru8  1  0.14277599  0.27740399  0.00000000  1
  Ru  Ru9  1  0.85722397  0.72259597  -0.00000000  1
  Ru  Ru10  1  0.72259597  0.14277599  0.00000000  1
  Ru  Ru11  1  0.35722399  0.77740397  0.50000002  1
  Ru  Ru12  1  0.27740399  0.85722397  -0.00000000  1
  C  C13  1  0.64277598  0.22259599  0.50000002  1
  Ru  Ru14  1  0.77740397  0.64277598  0.50000002  1
  Ru  Ru15  1  0.22259599  0.35722399  0.50000002  1
  Ru  Ru16  1  0.00000000  0.00000000  0.21575001  1
  Ru  Ru17  1  0.00000000  0.00000000  0.78425004  1
  Ru  Ru18  1  0.49999998  0.49999998  0.28425001  1
  Ru  Ru19  1  0.49999998  0.49999998  0.71575003  1
