# generated using pymatgen
data_LiFeMo(WO)2
_symmetry_space_group_name_H-M   'P 1'
_cell_length_a   3.30944204
_cell_length_b   5.66222477
_cell_length_c   6.02282381
_cell_angle_alpha   110.60213470
_cell_angle_beta   105.94662476
_cell_angle_gamma   90.00000000
_symmetry_Int_Tables_number   1
_chemical_formula_structural   LiFeMo(WO)2
_chemical_formula_sum   'Li1 Fe1 Mo1 W2 O2'
_cell_volume   100.98966378
_cell_formula_units_Z   1
loop_
 _symmetry_equiv_pos_site_id
 _symmetry_equiv_pos_as_xyz
  1  'x, y, z'
loop_
 _atom_site_type_symbol
 _atom_site_label
 _atom_site_symmetry_multiplicity
 _atom_site_fract_x
 _atom_site_fract_y
 _atom_site_fract_z
 _atom_site_occupancy
  Li  Li0  1  0.38895500  0.17197900  0.77791002  1
  Fe  Fe1  1  0.61104502  0.82802100  0.22209003  1
  Mo  Mo2  1  0.15577701  0.32761100  0.31155401  1
  W  W3  1  0.84422302  0.67238900  0.68844604  1
  W  W4  1  0.24730402  0.73671600  0.49460803  1
  O  O5  1  0.75269600  0.26328400  0.50539203  1
  O  O6  1  0.00000000  0.00000000  0.00000000  1
