# generated using pymatgen
data_CeGa3P2
_symmetry_space_group_name_H-M   'P 1'
_cell_length_a   4.03202820
_cell_length_b   4.03202820
_cell_length_c   9.84607983
_cell_angle_alpha   90.00000000
_cell_angle_beta   90.00000000
_cell_angle_gamma   120.00000000
_symmetry_Int_Tables_number   1
_chemical_formula_structural   CeGa3P2
_chemical_formula_sum   'Ce1 Ga3 P2'
_cell_volume   138.62485522
_cell_formula_units_Z   1
loop_
 _symmetry_equiv_pos_site_id
 _symmetry_equiv_pos_as_xyz
  1  'x, y, z'
loop_
 _atom_site_type_symbol
 _atom_site_label
 _atom_site_symmetry_multiplicity
 _atom_site_fract_x
 _atom_site_fract_y
 _atom_site_fract_z
 _atom_site_occupancy
  Ce  Ce0  1  0.66666665  0.33333335  0.33353001  1
  Ga  Ga1  1  0.33333335  0.66666670  0.66647001  1
  Ga  Ga2  1  0.00000000  0.00000000  0.00000000  1
  Ga  Ga3  1  0.66666665  0.33333335  0.83174001  1
  P  P4  1  0.33333335  0.66666670  0.16826000  1
  P  P5  1  0.00000000  0.00000000  0.50000001  1
