# generated using pymatgen
data_NaCu4
_symmetry_space_group_name_H-M   'P 1'
_cell_length_a   5.54969263
_cell_length_b   5.54969263
_cell_length_c   5.64770126
_cell_angle_alpha   89.78244781
_cell_angle_beta   89.78244781
_cell_angle_gamma   85.23207855
_symmetry_Int_Tables_number   1
_chemical_formula_structural   NaCu4
_chemical_formula_sum   'Na1 Cu4'
_cell_volume   173.33981826
_cell_formula_units_Z   1
loop_
 _symmetry_equiv_pos_site_id
 _symmetry_equiv_pos_as_xyz
  1  'x, y, z'
loop_
 _atom_site_type_symbol
 _atom_site_label
 _atom_site_symmetry_multiplicity
 _atom_site_fract_x
 _atom_site_fract_y
 _atom_site_fract_z
 _atom_site_occupancy
  Na  Na0  1  0.90497506  0.90497501  0.91802201  1
  Cu  Cu1  1  0.48161903  0.48161901  0.55102200  1
  Cu  Cu2  1  0.04220202  0.52029901  0.55800400  1
  Cu  Cu3  1  0.52918703  0.52918701  0.97176700  1
  Cu  Cu4  1  0.52029901  0.04220200  0.55800400  1
