# generated using pymatgen
data_Ce4AlSi7Ir6
_symmetry_space_group_name_H-M   'P 1'
_cell_length_a   4.17745686
_cell_length_b   8.69249535
_cell_length_c   10.13036633
_cell_angle_alpha   107.61898041
_cell_angle_beta   90.00000000
_cell_angle_gamma   103.90371704
_symmetry_Int_Tables_number   1
_chemical_formula_structural   Ce4AlSi7Ir6
_chemical_formula_sum   'Ce4 Al1 Si7 Ir6'
_cell_volume   339.27738121
_cell_formula_units_Z   1
loop_
 _symmetry_equiv_pos_site_id
 _symmetry_equiv_pos_as_xyz
  1  'x, y, z'
loop_
 _atom_site_type_symbol
 _atom_site_label
 _atom_site_symmetry_multiplicity
 _atom_site_fract_x
 _atom_site_fract_y
 _atom_site_fract_z
 _atom_site_occupancy
  Ce  Ce0  1  0.84548297  0.69096604  0.29990903  1
  Ce  Ce1  1  0.15451698  0.30903402  0.70009100  1
  Ce  Ce2  1  0.00000000  0.00000000  0.00000000  1
  Ce  Ce3  1  0.80073098  0.60146303  0.86935102  1
  Al  Al4  1  0.19926897  0.39853702  0.13064902  1
  Si  Si5  1  0.53829301  0.07658600  0.78552899  1
  Si  Si6  1  0.46170694  0.92341405  0.21447104  1
  Si  Si7  1  0.63608200  0.27216401  0.45284201  1
  Si  Si8  1  0.36391795  0.72783604  0.54715803  1
  Ir  Ir9  1  0.95701396  0.91402805  0.66748104  1
  Si  Si10  1  0.04298599  0.08597200  0.33251900  1
  Ir  Ir11  1  0.77972898  0.55945903  0.60882402  1
  Si  Si12  1  0.22027097  0.44054102  0.39117602  1
  Ir  Ir13  1  0.37676795  0.75353504  0.79992502  1
  Ir  Ir14  1  0.62323200  0.24646501  0.20007501  1
  Ir  Ir15  1  0.50000002  0.00000000  0.49999999  1
  Ir  Ir16  1  0.67999999  0.36000002  0.96783200  1
  Si  Si17  1  0.31999996  0.64000003  0.03216803  1
