# generated using pymatgen
data_Ca5MgInGePd4
_symmetry_space_group_name_H-M   'P 1'
_cell_length_a   4.34440994
_cell_length_b   7.14429903
_cell_length_c   8.39237499
_cell_angle_alpha   90.00000000
_cell_angle_beta   90.00000000
_cell_angle_gamma   90.00000000
_symmetry_Int_Tables_number   1
_chemical_formula_structural   Ca5MgInGePd4
_chemical_formula_sum   'Ca5 Mg1 In1 Ge1 Pd4'
_cell_volume   260.48055223
_cell_formula_units_Z   1
loop_
 _symmetry_equiv_pos_site_id
 _symmetry_equiv_pos_as_xyz
  1  'x, y, z'
loop_
 _atom_site_type_symbol
 _atom_site_label
 _atom_site_symmetry_multiplicity
 _atom_site_fract_x
 _atom_site_fract_y
 _atom_site_fract_z
 _atom_site_occupancy
  Ca  Ca0  1  0.25000000  0.14862700  0.42724700  1
  Ca  Ca1  1  0.75000001  0.47787600  0.32892100  1
  Ca  Ca2  1  0.75000001  0.97787600  0.17107900  1
  Ca  Ca3  1  0.75000001  0.35137300  0.92724700  1
  Ca  Ca4  1  0.25000000  0.52212400  0.67107900  1
  Mg  Mg5  1  0.75000001  0.85137300  0.57275300  1
  Ge  Ge6  1  0.25000000  0.64862700  0.07275300  1
  In  In7  1  0.25000000  0.02212400  0.82892100  1
  Pd  Pd8  1  0.25000000  0.75401700  0.38816200  1
  Pd  Pd9  1  0.25000000  0.25401700  0.11183800  1
  Pd  Pd10  1  0.75000001  0.74598300  0.88816200  1
  Pd  Pd11  1  0.75000001  0.24598300  0.61183800  1
