# generated using pymatgen
data_Zr2TiNi6
_symmetry_space_group_name_H-M   'P 1'
_cell_length_a   3.75337601
_cell_length_b   6.18412590
_cell_length_c   6.18412685
_cell_angle_alpha   120.00000000
_cell_angle_beta   90.00000000
_cell_angle_gamma   90.00000000
_symmetry_Int_Tables_number   1
_chemical_formula_structural   Zr2TiNi6
_chemical_formula_sum   'Zr2 Ti1 Ni6'
_cell_volume   124.31095917
_cell_formula_units_Z   1
loop_
 _symmetry_equiv_pos_site_id
 _symmetry_equiv_pos_as_xyz
  1  'x, y, z'
loop_
 _atom_site_type_symbol
 _atom_site_label
 _atom_site_symmetry_multiplicity
 _atom_site_fract_x
 _atom_site_fract_y
 _atom_site_fract_z
 _atom_site_occupancy
  Ti  Ti0  1  0.50000000  0.43120102  0.43120102  1
  Zr  Zr1  1  0.50000000  0.56879903  1.00000001  1
  Zr  Zr2  1  0.50000000  0.00000000  0.56879898  1
  Ni  Ni3  1  1.00000000  0.75740004  0.75740003  1
  Ni  Ni4  1  1.00000000  0.24260001  0.99999999  1
  Ni  Ni5  1  -0.00000000  1.00000005  0.24260007  1
  Ni  Ni6  1  -0.00000000  0.66666670  0.33333337  1
  Ni  Ni7  1  1.00000000  0.33333335  0.66666667  1
  Ni  Ni8  1  0.50000000  0.00000000  -0.00000000  1
