# generated using pymatgen
data_Li5FeO10
_symmetry_space_group_name_H-M   'P 1'
_cell_length_a   3.83628607
_cell_length_b   5.32375002
_cell_length_c   10.22395611
_cell_angle_alpha   90.00000000
_cell_angle_beta   90.00000000
_cell_angle_gamma   111.11857605
_symmetry_Int_Tables_number   1
_chemical_formula_structural   Li5FeO10
_chemical_formula_sum   'Li5 Fe1 O10'
_cell_volume   194.78399645
_cell_formula_units_Z   1
loop_
 _symmetry_equiv_pos_site_id
 _symmetry_equiv_pos_as_xyz
  1  'x, y, z'
loop_
 _atom_site_type_symbol
 _atom_site_label
 _atom_site_symmetry_multiplicity
 _atom_site_fract_x
 _atom_site_fract_y
 _atom_site_fract_z
 _atom_site_occupancy
  Li  Li0  1  0.18515103  0.37030202  0.74999999  1
  Li  Li1  1  0.81484904  0.62969803  0.25000000  1
  Li  Li2  1  0.15235002  0.30470001  0.44270200  1
  Li  Li3  1  0.15235002  0.30470001  0.05729800  1
  Li  Li4  1  0.84765004  0.69530003  0.94270199  1
  Fe  Fe5  1  0.84765004  0.69530003  0.55729799  1
  O  O6  1  0.31278004  0.62556003  0.56362599  1
  O  O7  1  0.31278004  0.62556003  0.93637399  1
  O  O8  1  0.68722002  0.37444002  0.06362600  1
  O  O9  1  0.68722002  0.37444002  0.43637400  1
  O  O10  1  0.04083501  0.08167000  0.88448499  1
  O  O11  1  0.04083501  0.08167000  0.61551499  1
  O  O12  1  0.23544003  0.47088002  0.25000000  1
  O  O13  1  0.76456003  0.52912002  0.74999999  1
  O  O14  1  0.95916506  0.91833004  0.38448500  1
  O  O15  1  0.95916506  0.91833004  0.11551500  1
