# generated using pymatgen
data_Li4NiO3
_symmetry_space_group_name_H-M   'P 1'
_cell_length_a   3.35267091
_cell_length_b   5.69895411
_cell_length_c   10.77416897
_cell_angle_alpha   90.00000000
_cell_angle_beta   90.00000000
_cell_angle_gamma   90.00000000
_symmetry_Int_Tables_number   1
_chemical_formula_structural   Li4NiO3
_chemical_formula_sum   'Li8 Ni2 O6'
_cell_volume   205.85900423
_cell_formula_units_Z   2
loop_
 _symmetry_equiv_pos_site_id
 _symmetry_equiv_pos_as_xyz
  1  'x, y, z'
loop_
 _atom_site_type_symbol
 _atom_site_label
 _atom_site_symmetry_multiplicity
 _atom_site_fract_x
 _atom_site_fract_y
 _atom_site_fract_z
 _atom_site_occupancy
  Li  Li0  1  0.25000001  0.08516400  0.86298100  1
  Li  Li1  1  0.25000001  0.58516399  0.63701900  1
  Li  Li2  1  0.75000002  0.91483598  0.13701900  1
  Li  Li3  1  0.75000002  0.41483599  0.36298100  1
  Li  Li4  1  0.25000001  0.40219199  0.11018400  1
  Li  Li5  1  0.25000001  0.90219198  0.38981600  1
  Li  Li6  1  0.75000002  0.59780799  0.88981600  1
  Li  Li7  1  0.75000002  0.09780800  0.61018400  1
  Ni  Ni8  1  0.25000001  0.16021200  0.24728000  1
  Ni  Ni9  1  0.25000001  0.66021199  0.25272000  1
  O  O10  1  0.75000002  0.83978798  0.75272000  1
  O  O11  1  0.75000002  0.33978799  0.74728000  1
  O  O12  1  0.25000001  0.72693899  0.98658100  1
  O  O13  1  0.25000001  0.22693900  0.51341900  1
  O  O14  1  0.75000002  0.27306099  0.01341900  1
  O  O15  1  0.75000002  0.77306099  0.48658100  1
