# generated using pymatgen
data_Ba4La2BiSb2H7Pb2
_symmetry_space_group_name_H-M   'P 1'
_cell_length_a   7.98881578
_cell_length_b   8.80880928
_cell_length_c   7.98881578
_cell_angle_alpha   116.96563721
_cell_angle_beta   90.00000000
_cell_angle_gamma   116.96563721
_symmetry_Int_Tables_number   1
_chemical_formula_structural   Ba4La2BiSb2H7Pb2
_chemical_formula_sum   'Ba4 La2 Bi1 Sb2 H7 Pb2'
_cell_volume   431.36947683
_cell_formula_units_Z   1
loop_
 _symmetry_equiv_pos_site_id
 _symmetry_equiv_pos_as_xyz
  1  'x, y, z'
loop_
 _atom_site_type_symbol
 _atom_site_label
 _atom_site_symmetry_multiplicity
 _atom_site_fract_x
 _atom_site_fract_y
 _atom_site_fract_z
 _atom_site_occupancy
  Ba  Ba0  1  0.74999999  0.49999996  0.74999999  1
  Ba  Ba1  1  0.24999998  0.49999996  0.24999998  1
  Ba  Ba2  1  0.66427396  0.99999993  0.16427394  1
  Ba  Ba3  1  0.83572602  0.00000100  0.66427502  1
  La  La4  1  0.16427394  0.99999893  0.33572495  1
  La  La5  1  0.33572601  0.00000000  0.83572602  1
  Bi  Bi6  1  0.24999998  0.49999996  0.74999999  1
  Sb  Sb7  1  0.74999999  0.49999996  0.24999998  1
  H  H8  1  0.50840797  0.72478995  0.71638197  1
  Sb  Sb9  1  0.78361800  0.27520998  0.99159201  1
  H  H10  1  0.49159200  0.27520998  0.28361799  1
  H  H11  1  0.99159201  0.27520998  0.49159200  1
  H  H12  1  0.28361799  0.27520998  0.78361800  1
  H  H13  1  0.00840796  0.72478995  0.50840797  1
  H  H14  1  0.71638197  0.72478995  0.21638196  1
  H  H15  1  0.21638196  0.72478995  0.00840796  1
  Pb  Pb16  1  0.50000001  0.00000000  0.50000001  1
  Pb  Pb17  1  0.00000000  0.00000000  0.00000000  1
