# generated using pymatgen
data_Ca8Sn2Ge
_symmetry_space_group_name_H-M   'P 1'
_cell_length_a   6.13735199
_cell_length_b   6.13735151
_cell_length_c   10.88734436
_cell_angle_alpha   90.00000000
_cell_angle_beta   90.00000000
_cell_angle_gamma   120.00000000
_symmetry_Int_Tables_number   1
_chemical_formula_structural   Ca8Sn2Ge
_chemical_formula_sum   'Ca8 Sn2 Ge1'
_cell_volume   355.15229132
_cell_formula_units_Z   1
loop_
 _symmetry_equiv_pos_site_id
 _symmetry_equiv_pos_as_xyz
  1  'x, y, z'
loop_
 _atom_site_type_symbol
 _atom_site_label
 _atom_site_symmetry_multiplicity
 _atom_site_fract_x
 _atom_site_fract_y
 _atom_site_fract_z
 _atom_site_occupancy
  Ca  Ca0  1  0.33333329  0.66666663  0.16750699  1
  Ca  Ca1  1  0.66666664  0.33333331  0.29445999  1
  Ca  Ca2  1  0.66666664  0.33333331  0.70553998  1
  Ca  Ca3  1  0.33333329  0.66666663  0.83249297  1
  Ca  Ca4  1  0.00000000  0.00000000  0.49999998  1
  Ca  Ca5  1  0.00000000  0.00000000  0.82677897  1
  Ca  Ca6  1  0.81675796  0.63351596  -0.00000000  1
  Ca  Ca7  1  0.81675799  0.18324199  -0.00000000  1
  Sn  Sn8  1  0.00000000  0.00000000  0.17322099  1
  Sn  Sn9  1  0.36648399  0.18324199  -0.00000000  1
  Ge  Ge10  1  0.33333329  0.66666663  0.49999998  1
