# generated using pymatgen
data_Sr4TiNi3O10
_symmetry_space_group_name_H-M   'P 1'
_cell_length_a   3.84968996
_cell_length_b   5.63337612
_cell_length_c   11.05635643
_cell_angle_alpha   90.00000000
_cell_angle_beta   90.00000000
_cell_angle_gamma   90.00000000
_symmetry_Int_Tables_number   1
_chemical_formula_structural   Sr4TiNi3O10
_chemical_formula_sum   'Sr4 Ti1 Ni3 O10'
_cell_volume   239.77645438
_cell_formula_units_Z   1
loop_
 _symmetry_equiv_pos_site_id
 _symmetry_equiv_pos_as_xyz
  1  'x, y, z'
loop_
 _atom_site_type_symbol
 _atom_site_label
 _atom_site_symmetry_multiplicity
 _atom_site_fract_x
 _atom_site_fract_y
 _atom_site_fract_z
 _atom_site_occupancy
  Sr  Sr0  1  0.00000000  0.21758500  0.86684397  1
  Sr  Sr1  1  0.00000000  0.78241398  0.13315599  1
  Sr  Sr2  1  0.00000000  0.71758598  0.63315598  1
  Sr  Sr3  1  0.00000000  0.28241499  0.36684499  1
  Ti  Ti4  1  0.49999901  0.24277299  0.62383598  1
  Ni  Ni5  1  0.49999901  0.75722798  0.37616399  1
  Ni  Ni6  1  0.49999901  0.74277298  0.87616297  1
  Ni  Ni7  1  0.49999901  0.25722699  0.12383700  1
  O  O8  1  0.49999901  0.49999999  0.49999998  1
  O  O9  1  0.49999901  0.00000000  0.00000000  1
  O  O10  1  0.49999901  0.97298498  0.73050697  1
  O  O11  1  0.49999901  0.02701600  0.26949299  1
  O  O12  1  0.49999901  0.47298299  0.76949297  1
  O  O13  1  0.49999901  0.52701599  0.23050699  1
  O  O14  1  0.00000000  0.20162300  0.59792798  1
  O  O15  1  0.00000000  0.79837598  0.40207198  1
  O  O16  1  0.00000000  0.29837599  0.09792800  1
  O  O17  1  0.00000000  0.70162298  0.90207196  1
