# generated using pymatgen
data_Ce2AlSi2
_symmetry_space_group_name_H-M   'P 1'
_cell_length_a   3.69556499
_cell_length_b   7.46143007
_cell_length_c   7.46143007
_cell_angle_alpha   90.00000000
_cell_angle_beta   90.00000000
_cell_angle_gamma   90.00000000
_symmetry_Int_Tables_number   1
_chemical_formula_structural   Ce2AlSi2
_chemical_formula_sum   'Ce4 Al2 Si4'
_cell_volume   205.74296300
_cell_formula_units_Z   2
loop_
 _symmetry_equiv_pos_site_id
 _symmetry_equiv_pos_as_xyz
  1  'x, y, z'
loop_
 _atom_site_type_symbol
 _atom_site_label
 _atom_site_symmetry_multiplicity
 _atom_site_fract_x
 _atom_site_fract_y
 _atom_site_fract_z
 _atom_site_occupancy
  Ce  Ce0  1  0.50000000  0.67421199  0.17421200  1
  Ce  Ce1  1  0.50000000  0.32578800  0.82578799  1
  Ce  Ce2  1  0.50000000  0.17421200  0.32578800  1
  Ce  Ce3  1  0.50000000  0.82578799  0.67421199  1
  Al  Al4  1  0.00000000  0.50000000  0.50000000  1
  Al  Al5  1  0.00000000  0.00000000  0.00000000  1
  Si  Si6  1  0.00000000  0.12031500  0.62031499  1
  Si  Si7  1  0.00000000  0.87968499  0.37968500  1
  Si  Si8  1  0.00000000  0.62031499  0.87968499  1
  Si  Si9  1  0.00000000  0.37968500  0.12031500  1
