# generated using pymatgen
data_CeSiP2
_symmetry_space_group_name_H-M   'P 1'
_cell_length_a   3.88553500
_cell_length_b   3.88553500
_cell_length_c   9.82797718
_cell_angle_alpha   90.00000000
_cell_angle_beta   90.00000000
_cell_angle_gamma   90.00000000
_symmetry_Int_Tables_number   1
_chemical_formula_structural   CeSiP2
_chemical_formula_sum   'Ce2 Si2 P4'
_cell_volume   148.37672824
_cell_formula_units_Z   2
loop_
 _symmetry_equiv_pos_site_id
 _symmetry_equiv_pos_as_xyz
  1  'x, y, z'
loop_
 _atom_site_type_symbol
 _atom_site_label
 _atom_site_symmetry_multiplicity
 _atom_site_fract_x
 _atom_site_fract_y
 _atom_site_fract_z
 _atom_site_occupancy
  Ce  Ce0  1  0.00000000  0.50000000  0.76264499  1
  Ce  Ce1  1  0.50000000  0.00000000  0.23735500  1
  Si  Si2  1  0.50000000  0.50000000  0.49999999  1
  Si  Si3  1  0.00000000  0.00000000  0.49999999  1
  P  P4  1  0.00000000  0.00000000  0.00000000  1
  P  P5  1  0.50000000  0.50000000  0.00000000  1
  P  P6  1  0.00000000  0.50000000  0.33650399  1
  P  P7  1  0.50000000  0.00000000  0.66349599  1
