# generated using pymatgen
data_HoFeCo4B5Ru8C
_symmetry_space_group_name_H-M   'P 1'
_cell_length_a   4.75226879
_cell_length_b   7.49202824
_cell_length_c   7.49202824
_cell_angle_alpha   60.11396408
_cell_angle_beta   89.87718964
_cell_angle_gamma   89.87718964
_symmetry_Int_Tables_number   1
_chemical_formula_structural   HoFeCo4B5Ru8C
_chemical_formula_sum   'Ho1 Fe1 Co4 B5 Ru8 C1'
_cell_volume   231.27393891
_cell_formula_units_Z   1
loop_
 _symmetry_equiv_pos_site_id
 _symmetry_equiv_pos_as_xyz
  1  'x, y, z'
loop_
 _atom_site_type_symbol
 _atom_site_label
 _atom_site_symmetry_multiplicity
 _atom_site_fract_x
 _atom_site_fract_y
 _atom_site_fract_z
 _atom_site_occupancy
  Fe  Fe0  1  0.00455603  0.90767299  0.54993899  1
  Ho  Ho1  1  0.00455602  0.54993900  0.90767299  1
  C  C2  1  0.25881101  0.81168699  0.81168700  1
  Co  Co3  1  0.26004900  0.37643500  0.81515600  1
  B  B4  1  0.26004901  0.81515599  0.37643500  1
  Co  Co5  1  0.75934497  0.18957900  0.18957902  1
  Co  Co6  1  0.76089898  0.62030900  0.18825301  1
  Co  Co7  1  0.76089897  0.18825300  0.62030901  1
  Ru  Ru8  1  0.16579900  0.12734400  0.12734400  1
  B  B9  1  0.16647501  0.74874899  0.12200600  1
  B  B10  1  0.16647500  0.12200600  0.74874900  1
  B  B11  1  0.67876499  0.87206299  0.87206300  1
  Ru  Ru12  1  0.67115098  0.25038400  0.87665601  1
  Ru  Ru13  1  0.67115099  0.87665599  0.25038401  1
  B  B14  1  0.49294600  0.66728200  0.66728200  1
  Ru  Ru15  1  0.98895496  0.33177500  0.33177502  1
  Ru  Ru16  1  0.50970199  0.45667900  0.45667901  1
  Ru  Ru17  1  0.50179598  0.07763100  0.46010401  1
  Ru  Ru18  1  0.50179599  0.46010400  0.07763101  1
  Ru  Ru19  1  0.00896702  0.55029500  0.55029499  1
