# generated using pymatgen
data_Li2Ca2Mg2Ni7
_symmetry_space_group_name_H-M   'P 1'
_cell_length_a   4.16146803
_cell_length_b   4.16146803
_cell_length_c   17.18022346
_cell_angle_alpha   83.04370880
_cell_angle_beta   83.04370880
_cell_angle_gamma   60.00000381
_symmetry_Int_Tables_number   1
_chemical_formula_structural   Li2Ca2Mg2Ni7
_chemical_formula_sum   'Li2 Ca2 Mg2 Ni7'
_cell_volume   255.13123952
_cell_formula_units_Z   1
loop_
 _symmetry_equiv_pos_site_id
 _symmetry_equiv_pos_as_xyz
  1  'x, y, z'
loop_
 _atom_site_type_symbol
 _atom_site_label
 _atom_site_symmetry_multiplicity
 _atom_site_fract_x
 _atom_site_fract_y
 _atom_site_fract_z
 _atom_site_occupancy
  Li  Li0  1  0.43362498  0.43362497  0.69912497  1
  Li  Li1  1  0.56637498  0.56637497  0.30087499  1
  Ca  Ca2  1  0.68162598  0.68162596  0.95512195  1
  Ca  Ca3  1  0.95035297  0.95035294  0.14894100  1
  Mg  Mg4  1  0.04964700  0.04964700  0.85105895  1
  Mg  Mg5  1  0.31837399  0.31837398  0.04487800  1
  Ni  Ni6  1  0.18513199  0.18513199  0.44460398  1
  Ni  Ni7  1  0.81486797  0.81486795  0.55539598  1
  Ni  Ni8  1  0.13524000  0.13523999  0.59427997  1
  Ni  Ni9  1  0.73347897  0.73347896  0.79956296  1
  Ni  Ni10  1  0.86475997  0.86475995  0.40571999  1
  Ni  Ni11  1  0.26652099  0.26652098  0.20043699  1
  Ni  Ni12  1  0.00000000  0.00000000  0.00000000  1
