# generated using pymatgen
data_BaLaAl2Sn5Bi
_symmetry_space_group_name_H-M   'P 1'
_cell_length_a   7.59988785
_cell_length_b   7.80710220
_cell_length_c   7.59988785
_cell_angle_alpha   60.87417984
_cell_angle_beta   90.00000000
_cell_angle_gamma   119.12582397
_symmetry_Int_Tables_number   1
_chemical_formula_structural   BaLaAl2Sn5Bi
_chemical_formula_sum   'Ba1 La1 Al2 Sn5 Bi1'
_cell_volume   327.09607251
_cell_formula_units_Z   1
loop_
 _symmetry_equiv_pos_site_id
 _symmetry_equiv_pos_as_xyz
  1  'x, y, z'
loop_
 _atom_site_type_symbol
 _atom_site_label
 _atom_site_symmetry_multiplicity
 _atom_site_fract_x
 _atom_site_fract_y
 _atom_site_fract_z
 _atom_site_occupancy
  Ba  Ba0  1  0.25000003  0.50000002  0.25000001  1
  La  La1  1  0.75000004  0.50000002  0.75000002  1
  Al  Al2  1  0.50000001  0.00000000  0.50000001  1
  Al  Al3  1  0.00000000  0.00000000  0.00000000  1
  Bi  Bi4  1  0.29517104  0.59034202  0.70482902  1
  Sn  Sn5  1  0.70482903  0.40965802  0.29517101  1
  Sn  Sn6  1  0.78033302  0.00000000  0.78033302  1
  Sn  Sn7  1  0.78033302  0.00000000  0.21966700  1
  Sn  Sn8  1  0.21966700  0.00000000  0.21966700  1
  Sn  Sn9  1  0.21966700  0.00000000  0.78033302  1
