# generated using pymatgen
data_Li5GaFeSbO12
_symmetry_space_group_name_H-M   'P 1'
_cell_length_a   5.56680965
_cell_length_b   5.56680965
_cell_length_c   7.85606098
_cell_angle_alpha   89.62810516
_cell_angle_beta   89.62810516
_cell_angle_gamma   88.96596527
_symmetry_Int_Tables_number   1
_chemical_formula_structural   Li5GaFeSbO12
_chemical_formula_sum   'Li5 Ga1 Fe1 Sb1 O12'
_cell_volume   243.40465880
_cell_formula_units_Z   1
loop_
 _symmetry_equiv_pos_site_id
 _symmetry_equiv_pos_as_xyz
  1  'x, y, z'
loop_
 _atom_site_type_symbol
 _atom_site_label
 _atom_site_symmetry_multiplicity
 _atom_site_fract_x
 _atom_site_fract_y
 _atom_site_fract_z
 _atom_site_occupancy
  Li  Li0  1  0.75274595  0.75274598  0.99403701  1
  Li  Li1  1  0.24725398  0.24725399  0.00596300  1
  Li  Li2  1  0.23120498  0.23120499  0.50714500  1
  Li  Li3  1  0.76879495  0.76879498  0.49285500  1
  Li  Li4  1  0.74933197  0.25295899  0.25838900  1
  Ga  Ga5  1  0.74704097  0.25066799  0.74161100  1
  Sb  Sb6  1  0.25066796  0.74704098  0.74161100  1
  Fe  Fe7  1  0.25295896  0.74933198  0.25838900  1
  O  O8  1  0.96778893  0.96778898  0.24299799  1
  O  O9  1  0.03221100  0.03221100  0.75700201  1
  O  O10  1  0.80637397  0.19362600  0.50000000  1
  O  O11  1  0.73141197  0.26858799  -0.00000001  1
  O  O12  1  0.46602197  0.46602199  0.69367700  1
  O  O13  1  0.47126899  0.03308100  0.28569500  1
  O  O14  1  0.19362596  0.80637398  0.50000000  1
  O  O15  1  0.26858796  0.73141198  -0.00000001  1
  O  O16  1  0.52873094  0.96691898  0.71430500  1
  O  O17  1  0.03308098  0.47126899  0.28569500  1
  O  O18  1  0.53397796  0.53397799  0.30632300  1
  O  O19  1  0.96691895  0.52873099  0.71430500  1
