# generated using pymatgen
data_Li7Mn2O9
_symmetry_space_group_name_H-M   'P 1'
_cell_length_a   5.58295584
_cell_length_b   5.59124327
_cell_length_c   7.30420017
_cell_angle_alpha   72.89203644
_cell_angle_beta   72.08332825
_cell_angle_gamma   72.54313660
_symmetry_Int_Tables_number   1
_chemical_formula_structural   Li7Mn2O9
_chemical_formula_sum   'Li7 Mn2 O9'
_cell_volume   201.77226587
_cell_formula_units_Z   1
loop_
 _symmetry_equiv_pos_site_id
 _symmetry_equiv_pos_as_xyz
  1  'x, y, z'
loop_
 _atom_site_type_symbol
 _atom_site_label
 _atom_site_symmetry_multiplicity
 _atom_site_fract_x
 _atom_site_fract_y
 _atom_site_fract_z
 _atom_site_occupancy
  Li  Li0  1  0.49999998  0.50000002  0.50000002  1
  Li  Li1  1  0.20289099  0.13223000  0.35164600  1
  Li  Li2  1  0.49999998  0.50000002  0.00000003  1
  Li  Li3  1  0.15103299  0.14467401  0.83388699  1
  Li  Li4  1  0.84896696  0.85532603  0.16611305  1
  Li  Li5  1  0.79710896  0.86777003  0.64835404  1
  Mn  Mn6  1  0.19596296  0.79311903  0.00235603  1
  Li  Li7  1  0.06446500  0.05593600  0.62588099  1
  O  O8  1  0.39248798  0.39045901  0.30517302  1
  Mn  Mn9  1  0.93553496  0.94406404  0.37411905  1
  O  O10  1  0.60751197  0.60954102  0.69482702  1
  O  O11  1  0.47570296  0.86083803  0.32908303  1
  O  O12  1  0.80403700  0.20688101  0.99764402  1
  O  O13  1  0.52429700  0.13916201  0.67091701  1
  O  O14  1  0.87787498  0.46367502  0.32764904  1
  O  O15  1  0.73783597  0.74393203  0.95640103  1
  O  O16  1  0.26216399  0.25606801  0.04359902  1
  O  O17  1  0.12212497  0.53632502  0.67235100  1
