# generated using pymatgen
data_Fe2CoGe2Mo
_symmetry_space_group_name_H-M   'P 1'
_cell_length_a   3.32008696
_cell_length_b   4.67442465
_cell_length_c   5.56693745
_cell_angle_alpha   92.42101288
_cell_angle_beta   90.00000000
_cell_angle_gamma   90.00000000
_symmetry_Int_Tables_number   1
_chemical_formula_structural   Fe2CoGe2Mo
_chemical_formula_sum   'Fe2 Co1 Ge2 Mo1'
_cell_volume   86.31894844
_cell_formula_units_Z   1
loop_
 _symmetry_equiv_pos_site_id
 _symmetry_equiv_pos_as_xyz
  1  'x, y, z'
loop_
 _atom_site_type_symbol
 _atom_site_label
 _atom_site_symmetry_multiplicity
 _atom_site_fract_x
 _atom_site_fract_y
 _atom_site_fract_z
 _atom_site_occupancy
  Fe  Fe0  1  0.50000001  0.49188299  0.50724800  1
  Fe  Fe1  1  -0.00000000  0.01063300  0.99239702  1
  Mo  Mo2  1  0.50000001  0.69583498  0.13496699  1
  Co  Co3  1  0.50000001  0.30422499  0.86669301  1
  Ge  Ge4  1  0.00000000  0.20891500  0.36826300  1
  Ge  Ge5  1  0.00000000  0.78850798  0.63043100  1
