# generated using pymatgen
data_CsKMnGaBi4I11O
_symmetry_space_group_name_H-M   'P 1'
_cell_length_a   4.19910383
_cell_length_b   9.60093212
_cell_length_c   15.68105602
_cell_angle_alpha   90.00000000
_cell_angle_beta   90.00000000
_cell_angle_gamma   90.00000000
_symmetry_Int_Tables_number   1
_chemical_formula_structural   CsKMnGaBi4I11O
_chemical_formula_sum   'Cs1 K1 Mn1 Ga1 Bi4 I11 O1'
_cell_volume   632.18664822
_cell_formula_units_Z   1
loop_
 _symmetry_equiv_pos_site_id
 _symmetry_equiv_pos_as_xyz
  1  'x, y, z'
loop_
 _atom_site_type_symbol
 _atom_site_label
 _atom_site_symmetry_multiplicity
 _atom_site_fract_x
 _atom_site_fract_y
 _atom_site_fract_z
 _atom_site_occupancy
  Cs  Cs0  1  0.75000003  0.33292400  0.05634300  1
  K  K1  1  0.25000001  0.66707599  0.94365700  1
  Mn  Mn2  1  0.75000003  0.83292399  0.44365700  1
  Ga  Ga3  1  0.25000001  0.16707600  0.55634300  1
  Bi  Bi4  1  0.75000003  0.05847800  0.82228700  1
  Bi  Bi5  1  0.25000001  0.94152199  0.17771300  1
  Bi  Bi6  1  0.75000003  0.55847799  0.67771300  1
  Bi  Bi7  1  0.25000001  0.44152199  0.32228700  1
  I  I8  1  0.75000003  0.83408999  0.00573400  1
  I  I9  1  0.25000001  0.16591000  0.99426600  1
  I  I10  1  0.75000003  0.33409000  0.49426600  1
  I  I11  1  0.25000001  0.66590999  0.50573400  1
  O  O12  1  0.75000003  0.21207500  0.21327700  1
  I  I13  1  0.25000001  0.78792499  0.78672300  1
  I  I14  1  0.75000003  0.71207499  0.28672300  1
  I  I15  1  0.25000001  0.28792500  0.71327700  1
  I  I16  1  0.75000003  0.47753999  0.89637400  1
  I  I17  1  0.25000001  0.52245999  0.10362600  1
  I  I18  1  0.75000003  0.97753999  0.60362600  1
  I  I19  1  0.25000001  0.02246000  0.39637400  1
