# generated using pymatgen
data_NbFe5Mo2
_symmetry_space_group_name_H-M   'P 1'
_cell_length_a   4.43810320
_cell_length_b   5.56494188
_cell_length_c   5.56494093
_cell_angle_alpha   120.00000763
_cell_angle_beta   90.00000000
_cell_angle_gamma   90.00000000
_symmetry_Int_Tables_number   1
_chemical_formula_structural   NbFe5Mo2
_chemical_formula_sum   'Nb1 Fe5 Mo2'
_cell_volume   119.02801386
_cell_formula_units_Z   1
loop_
 _symmetry_equiv_pos_site_id
 _symmetry_equiv_pos_as_xyz
  1  'x, y, z'
loop_
 _atom_site_type_symbol
 _atom_site_label
 _atom_site_symmetry_multiplicity
 _atom_site_fract_x
 _atom_site_fract_y
 _atom_site_fract_z
 _atom_site_occupancy
  Nb  Nb0  1  0.24999999  0.16556501  0.33113001  1
  Fe  Fe1  1  0.24999999  0.66887103  0.83443604  1
  Fe  Fe2  1  0.24999999  0.16556501  0.83443602  1
  Fe  Fe3  1  0.74999997  0.83443503  0.66887004  1
  Fe  Fe4  1  0.74999997  0.33112901  0.16556401  1
  Fe  Fe5  1  0.74999997  0.83443503  0.16556403  1
  Mo  Mo6  1  0.74999997  0.33333335  0.66666669  1
  Mo  Mo7  1  0.24999999  0.66666669  0.33333336  1
