# generated using pymatgen
data_Ce4Sn2GeP3
_symmetry_space_group_name_H-M   'P 1'
_cell_length_a   3.65897989
_cell_length_b   7.53116798
_cell_length_c   7.53116798
_cell_angle_alpha   90.00000000
_cell_angle_beta   90.00000000
_cell_angle_gamma   90.00000000
_symmetry_Int_Tables_number   1
_chemical_formula_structural   Ce4Sn2GeP3
_chemical_formula_sum   'Ce4 Sn2 Ge1 P3'
_cell_volume   207.53181886
_cell_formula_units_Z   1
loop_
 _symmetry_equiv_pos_site_id
 _symmetry_equiv_pos_as_xyz
  1  'x, y, z'
loop_
 _atom_site_type_symbol
 _atom_site_label
 _atom_site_symmetry_multiplicity
 _atom_site_fract_x
 _atom_site_fract_y
 _atom_site_fract_z
 _atom_site_occupancy
  Ce  Ce0  1  0.50000001  0.67387300  0.17387300  1
  Ce  Ce1  1  0.50000001  0.17387300  0.32612700  1
  Ce  Ce2  1  0.50000001  0.82612700  0.67387300  1
  Ce  Ce3  1  0.50000001  0.32612700  0.82612700  1
  Sn  Sn4  1  0.00000000  0.00000000  0.00000000  1
  Sn  Sn5  1  0.00000000  0.50000000  0.50000000  1
  P  P6  1  1.00000003  0.87462700  0.37462700  1
  P  P7  1  1.00000003  0.62537300  0.87462700  1
  Ge  Ge8  1  1.00000003  0.12537300  0.62537300  1
  P  P9  1  0.00000000  0.37462700  0.12537300  1
