# generated using pymatgen
data_NbFe3Ge4Mo7Ru
_symmetry_space_group_name_H-M   'P 1'
_cell_length_a   6.24122953
_cell_length_b   6.30515432
_cell_length_c   6.41064596
_cell_angle_alpha   90.00000000
_cell_angle_beta   90.00000000
_cell_angle_gamma   89.63173676
_symmetry_Int_Tables_number   1
_chemical_formula_structural   NbFe3Ge4Mo7Ru
_chemical_formula_sum   'Nb1 Fe3 Ge4 Mo7 Ru1'
_cell_volume   252.26598659
_cell_formula_units_Z   1
loop_
 _symmetry_equiv_pos_site_id
 _symmetry_equiv_pos_as_xyz
  1  'x, y, z'
loop_
 _atom_site_type_symbol
 _atom_site_label
 _atom_site_symmetry_multiplicity
 _atom_site_fract_x
 _atom_site_fract_y
 _atom_site_fract_z
 _atom_site_occupancy
  Nb  Nb0  1  0.50000001  0.00000000  0.00000000  1
  Ge  Ge1  1  0.65132903  0.65751898  0.76130800  1
  Fe  Fe2  1  0.34867102  0.34248099  0.76130800  1
  Fe  Fe3  1  0.84454503  0.15189999  0.25571500  1
  Fe  Fe4  1  0.15545503  0.84809997  0.25571500  1
  Ge  Ge5  1  0.34867102  0.34248099  0.23869200  1
  Ge  Ge6  1  0.65132903  0.65751898  0.23869200  1
  Mo  Mo7  1  0.15545503  0.84809997  0.74428500  1
  Mo  Mo8  1  0.84454503  0.15189999  0.74428500  1
  Mo  Mo9  1  0.00000001  0.49999998  0.50000000  1
  Mo  Mo10  1  0.00000001  0.49999998  -0.00000000  1
  Mo  Mo11  1  0.50000001  0.00000000  0.50000000  1
  Ge  Ge12  1  0.84520804  0.84410497  0.50000000  1
  Ru  Ru13  1  0.15479201  0.15589499  0.50000000  1
  Mo  Mo14  1  0.65744703  0.35186599  -0.00000000  1
  Mo  Mo15  1  0.34255303  0.64813398  -0.00000000  1
