# generated using pymatgen
data_HfNi2
_symmetry_space_group_name_H-M   'P 1'
_cell_length_a   4.99499798
_cell_length_b   4.99549103
_cell_length_c   8.09140968
_cell_angle_alpha   90.00000000
_cell_angle_beta   90.00000000
_cell_angle_gamma   118.76433563
_symmetry_Int_Tables_number   1
_chemical_formula_structural   HfNi2
_chemical_formula_sum   'Hf4 Ni8'
_cell_volume   176.98738785
_cell_formula_units_Z   4
loop_
 _symmetry_equiv_pos_site_id
 _symmetry_equiv_pos_as_xyz
  1  'x, y, z'
loop_
 _atom_site_type_symbol
 _atom_site_label
 _atom_site_symmetry_multiplicity
 _atom_site_fract_x
 _atom_site_fract_y
 _atom_site_fract_z
 _atom_site_occupancy
  Hf  Hf0  1  0.33410899  0.66588699  0.55745502  1
  Hf  Hf1  1  0.66344699  0.33653000  0.43099702  1
  Hf  Hf2  1  0.66344699  0.33653000  0.06900300  1
  Hf  Hf3  1  0.33410899  0.66588699  0.94254504  1
  Ni  Ni4  1  0.99408299  0.00591300  0.48865902  1
  Ni  Ni5  1  0.99408299  0.00591300  0.01134100  1
  Ni  Ni6  1  0.34811800  0.16522300  0.75000003  1
  Ni  Ni7  1  0.83477098  0.65187299  0.75000003  1
  Ni  Ni8  1  0.83569099  0.16429000  0.75000003  1
  Ni  Ni9  1  0.65189098  0.82496799  0.25000001  1
  Ni  Ni10  1  0.17506499  0.34814799  0.25000001  1
  Ni  Ni11  1  0.17118599  0.82883899  0.25000001  1
