# generated using pymatgen
data_Ce2GaPd3
_symmetry_space_group_name_H-M   'P 1'
_cell_length_a   4.39278889
_cell_length_b   7.09122896
_cell_length_c   7.69359922
_cell_angle_alpha   90.00000000
_cell_angle_beta   90.00000000
_cell_angle_gamma   90.00000000
_symmetry_Int_Tables_number   1
_chemical_formula_structural   Ce2GaPd3
_chemical_formula_sum   'Ce4 Ga2 Pd6'
_cell_volume   239.65770679
_cell_formula_units_Z   2
loop_
 _symmetry_equiv_pos_site_id
 _symmetry_equiv_pos_as_xyz
  1  'x, y, z'
loop_
 _atom_site_type_symbol
 _atom_site_label
 _atom_site_symmetry_multiplicity
 _atom_site_fract_x
 _atom_site_fract_y
 _atom_site_fract_z
 _atom_site_occupancy
  Ce  Ce0  1  0.25000001  0.49839500  0.70207598  1
  Ce  Ce1  1  0.25000001  0.99839501  0.79792398  1
  Ce  Ce2  1  0.75000002  0.50160500  0.29792399  1
  Ce  Ce3  1  0.75000002  0.00160500  0.20207599  1
  Ga  Ga4  1  0.25000001  0.81210700  0.40911199  1
  Ga  Ga5  1  0.25000001  0.31210700  0.09088800  1
  Pd  Pd6  1  0.75000002  0.18789300  0.59088798  1
  Pd  Pd7  1  0.75000002  0.68789300  0.90911197  1
  Pd  Pd8  1  0.25000001  0.20345000  0.41648499  1
  Pd  Pd9  1  0.25000001  0.70345000  0.08351500  1
  Pd  Pd10  1  0.75000002  0.79655000  0.58351498  1
  Pd  Pd11  1  0.75000002  0.29655000  0.91648497  1
