# generated using pymatgen
data_Ce8CoSi6
_symmetry_space_group_name_H-M   'P 1'
_cell_length_a   6.28123379
_cell_length_b   6.28123379
_cell_length_c   11.03364086
_cell_angle_alpha   106.53733826
_cell_angle_beta   106.53733826
_cell_angle_gamma   90.00000000
_symmetry_Int_Tables_number   1
_chemical_formula_structural   Ce8CoSi6
_chemical_formula_sum   'Ce8 Co1 Si6'
_cell_volume   398.49273138
_cell_formula_units_Z   1
loop_
 _symmetry_equiv_pos_site_id
 _symmetry_equiv_pos_as_xyz
  1  'x, y, z'
loop_
 _atom_site_type_symbol
 _atom_site_label
 _atom_site_symmetry_multiplicity
 _atom_site_fract_x
 _atom_site_fract_y
 _atom_site_fract_z
 _atom_site_occupancy
  Ce  Ce0  1  0.63019602  0.12888600  0.75908200  1
  Ce  Ce1  1  0.12888500  0.63019502  0.75908000  1
  Ce  Ce2  1  0.36980401  0.36980401  0.24091900  1
  Ce  Ce3  1  0.87111502  0.87111503  0.24091899  1
  Ce  Ce4  1  0.00000000  0.00000000  0.00000000  1
  Ce  Ce5  1  -0.00000000  0.50000002  -0.00000000  1
  Ce  Ce6  1  0.50000002  0.00000000  -0.00000000  1
  Ce  Ce7  1  0.32352301  0.81810403  0.14162700  1
  Co  Co8  1  0.81810402  0.32352301  0.14162700  1
  Si  Si9  1  0.67647702  0.67647702  0.85837300  1
  Si  Si10  1  0.18189601  0.18189601  0.85837301  1
  Si  Si11  1  0.24982801  0.24982801  0.49965600  1
  Si  Si12  1  0.75017202  0.75017202  0.50034400  1
  Si  Si13  1  0.75000002  0.25000001  0.50000000  1
  Si  Si14  1  0.25000000  0.75000002  0.50000000  1
