# generated using pymatgen
data_Mg12AlGa
_symmetry_space_group_name_H-M   'P 1'
_cell_length_a   3.99823999
_cell_length_b   7.09750223
_cell_length_c   12.14078331
_cell_angle_alpha   90.00000000
_cell_angle_beta   90.00000000
_cell_angle_gamma   90.00000000
_symmetry_Int_Tables_number   1
_chemical_formula_structural   Mg12AlGa
_chemical_formula_sum   'Mg12 Al1 Ga1'
_cell_volume   344.52528817
_cell_formula_units_Z   1
loop_
 _symmetry_equiv_pos_site_id
 _symmetry_equiv_pos_as_xyz
  1  'x, y, z'
loop_
 _atom_site_type_symbol
 _atom_site_label
 _atom_site_symmetry_multiplicity
 _atom_site_fract_x
 _atom_site_fract_y
 _atom_site_fract_z
 _atom_site_occupancy
  Mg  Mg0  1  0.50000000  0.08877900  0.68483298  1
  Mg  Mg1  1  0.50000000  0.91122097  0.31516699  1
  Mg  Mg2  1  0.50000000  0.41122099  0.18483300  1
  Mg  Mg3  1  0.50000000  0.58877898  0.81516698  1
  Mg  Mg4  1  0.00000000  0.49999998  0.49999999  1
  Mg  Mg5  1  0.00000000  0.00000000  0.00000000  1
  Mg  Mg6  1  0.50000000  0.74607998  0.54313799  1
  Mg  Mg7  1  0.50000000  0.25391999  0.45686199  1
  Mg  Mg8  1  0.00000000  0.12571900  0.20306299  1
  Ga  Ga9  1  0.00000000  0.87428097  0.79693698  1
  Mg  Mg10  1  0.00000000  0.62571898  0.29693699  1
  Al  Al11  1  0.00000000  0.37428099  0.70306298  1
  Mg  Mg12  1  0.50000000  0.24607999  0.95686198  1
  Mg  Mg13  1  0.50000000  0.75391998  0.04313800  1
