# generated using pymatgen
data_Ca3B3C4N5
_symmetry_space_group_name_H-M   'P 1'
_cell_length_a   6.94807577
_cell_length_b   7.01689482
_cell_length_c   7.01689482
_cell_angle_alpha   75.81105804
_cell_angle_beta   60.32390594
_cell_angle_gamma   60.32390594
_symmetry_Int_Tables_number   1
_chemical_formula_structural   Ca3B3C4N5
_chemical_formula_sum   'Ca3 B3 C4 N5'
_cell_volume   258.24519887
_cell_formula_units_Z   1
loop_
 _symmetry_equiv_pos_site_id
 _symmetry_equiv_pos_as_xyz
  1  'x, y, z'
loop_
 _atom_site_type_symbol
 _atom_site_label
 _atom_site_symmetry_multiplicity
 _atom_site_fract_x
 _atom_site_fract_y
 _atom_site_fract_z
 _atom_site_occupancy
  Ca  Ca0  1  0.50000001  0.00000000  0.00000000  1
  Ca  Ca1  1  0.25000002  0.50000000  0.49999998  1
  Ca  Ca2  1  0.75000003  0.50000000  0.49999999  1
  B  B3  1  0.67620703  0.46970900  0.91294499  1
  B  B4  1  0.85408403  0.08705500  0.46970900  1
  B  B5  1  0.41084804  0.91294500  0.53029097  1
  C  C6  1  0.05886102  0.53029100  0.08705498  1
  N  N7  1  0.33084401  0.09980000  0.57392400  1
  N  N8  1  0.68809603  0.28402000  0.52052799  1
  C  C9  1  0.02788401  0.47947200  0.28401998  1
  C  C10  1  0.79137604  0.52052800  0.71597999  1
  N  N11  1  0.09523202  0.57392500  0.90019898  1
  N  N12  1  0.56935703  0.42607500  0.09979999  1
  N  N13  1  0.49264403  0.71598000  0.47947198  1
  C  C14  1  0.00456802  0.90020000  0.42607497  1
