# generated using pymatgen
data_Ca3BiPb2
_symmetry_space_group_name_H-M   'P 1'
_cell_length_a   5.06240892
_cell_length_b   8.14812565
_cell_length_c   10.28632736
_cell_angle_alpha   90.00000000
_cell_angle_beta   90.00000000
_cell_angle_gamma   90.00000000
_symmetry_Int_Tables_number   1
_chemical_formula_structural   Ca3BiPb2
_chemical_formula_sum   'Ca6 Bi2 Pb4'
_cell_volume   424.30219856
_cell_formula_units_Z   2
loop_
 _symmetry_equiv_pos_site_id
 _symmetry_equiv_pos_as_xyz
  1  'x, y, z'
loop_
 _atom_site_type_symbol
 _atom_site_label
 _atom_site_symmetry_multiplicity
 _atom_site_fract_x
 _atom_site_fract_y
 _atom_site_fract_z
 _atom_site_occupancy
  Ca  Ca0  1  0.25000000  0.22826001  0.90674297  1
  Ca  Ca1  1  0.75000001  0.77174003  0.09325700  1
  Ca  Ca2  1  0.25000000  0.72826003  0.59325698  1
  Ca  Ca3  1  0.75000001  0.27174001  0.40674299  1
  Ca  Ca4  1  0.75000001  0.36152102  0.09199300  1
  Bi  Bi5  1  0.25000000  0.63847903  0.90800697  1
  Ca  Ca6  1  0.75000001  0.86152104  0.40800699  1
  Bi  Bi7  1  0.25000000  0.13847901  0.59199298  1
  Pb  Pb8  1  0.25000000  0.99691404  0.14754299  1
  Pb  Pb9  1  0.75000001  0.00308600  0.85245697  1
  Pb  Pb10  1  0.25000000  0.49691402  0.35245699  1
  Pb  Pb11  1  0.75000001  0.50308602  0.64754298  1
