# generated using pymatgen
data_Se
_symmetry_space_group_name_H-M   'P 1'
_cell_length_a   3.55496597
_cell_length_b   3.55496621
_cell_length_c   40.12675858
_cell_angle_alpha   90.00000000
_cell_angle_beta   90.00000000
_cell_angle_gamma   120.00000000
_symmetry_Int_Tables_number   1
_chemical_formula_structural   Se
_chemical_formula_sum   Se12
_cell_volume   439.17300397
_cell_formula_units_Z   12
loop_
 _symmetry_equiv_pos_site_id
 _symmetry_equiv_pos_as_xyz
  1  'x, y, z'
loop_
 _atom_site_type_symbol
 _atom_site_label
 _atom_site_symmetry_multiplicity
 _atom_site_fract_x
 _atom_site_fract_y
 _atom_site_fract_z
 _atom_site_occupancy
  Se  Se0  1  0.66666668  0.33333333  0.67300097  1
  Se  Se1  1  0.66666668  0.33333333  0.29721599  1
  Se  Se2  1  0.33333335  0.66666666  0.95133396  1
  Se  Se3  1  0.33333335  0.66666666  0.57560098  1
  Se  Se4  1  0.33333335  0.66666666  0.86079397  1
  Se  Se5  1  0.33333335  0.66666666  0.48507098  1
  Se  Se6  1  0.66666668  0.33333333  0.76339297  1
  Se  Se7  1  0.66666668  0.33333333  0.38774198  1
  Se  Se8  1  0.33333335  0.66666666  0.71820997  1
  Se  Se9  1  0.66666668  0.33333333  0.90607896  1
  Se  Se10  1  0.66666668  0.33333333  0.53034998  1
  Se  Se11  1  0.33333335  0.66666666  0.34246299  1
