# generated using pymatgen
data_LaCe(SbAs2)2
_symmetry_space_group_name_H-M   'P 1'
_cell_length_a   5.68994999
_cell_length_b   5.68994999
_cell_length_c   7.15056610
_cell_angle_alpha   113.44490814
_cell_angle_beta   113.44490814
_cell_angle_gamma   90.00000000
_symmetry_Int_Tables_number   1
_chemical_formula_structural   LaCe(SbAs2)2
_chemical_formula_sum   'La1 Ce1 Sb2 As4'
_cell_volume   191.37972965
_cell_formula_units_Z   1
loop_
 _symmetry_equiv_pos_site_id
 _symmetry_equiv_pos_as_xyz
  1  'x, y, z'
loop_
 _atom_site_type_symbol
 _atom_site_label
 _atom_site_symmetry_multiplicity
 _atom_site_fract_x
 _atom_site_fract_y
 _atom_site_fract_z
 _atom_site_occupancy
  Ce  Ce0  1  0.00000000  0.00000000  0.00000000  1
  La  La1  1  0.75000000  0.25000000  0.49999999  1
  Sb  Sb2  1  0.25000000  0.75000000  0.49999999  1
  Sb  Sb3  1  0.50000000  0.50000000  -0.00000000  1
  As  As4  1  0.48935900  0.98935900  0.97871799  1
  As  As5  1  0.01064100  0.51064100  0.02128200  1
  As  As6  1  0.73935900  0.73935900  0.47871799  1
  As  As7  1  0.26064100  0.26064100  0.52128199  1
