# generated using pymatgen
data_NaTiCuNiO5
_symmetry_space_group_name_H-M   'P 1'
_cell_length_a   5.11433792
_cell_length_b   5.11433744
_cell_length_c   6.52555180
_cell_angle_alpha   90.00000000
_cell_angle_beta   90.00000000
_cell_angle_gamma   120.00000000
_symmetry_Int_Tables_number   1
_chemical_formula_structural   NaTiCuNiO5
_chemical_formula_sum   'Na1 Ti1 Cu1 Ni1 O5'
_cell_volume   147.81777886
_cell_formula_units_Z   1
loop_
 _symmetry_equiv_pos_site_id
 _symmetry_equiv_pos_as_xyz
  1  'x, y, z'
loop_
 _atom_site_type_symbol
 _atom_site_label
 _atom_site_symmetry_multiplicity
 _atom_site_fract_x
 _atom_site_fract_y
 _atom_site_fract_z
 _atom_site_occupancy
  Na  Na0  1  0.33333329  0.66666664  -0.00000000  1
  Ti  Ti1  1  0.00000000  0.00000000  0.50000002  1
  Cu  Cu2  1  0.66666665  0.33333332  0.50000002  1
  Ni  Ni3  1  0.94759397  0.66427798  0.66743302  1
  O  O4  1  0.94759399  0.28331599  0.33256701  1
  O  O5  1  0.33572200  0.05240600  0.33256701  1
  O  O6  1  0.71668396  0.66427798  0.33256701  1
  O  O7  1  0.33572198  0.28331599  0.66743302  1
  O  O8  1  0.71668401  0.05240600  0.66743302  1
