# generated using pymatgen
data_LiMgGa6
_symmetry_space_group_name_H-M   'P 1'
_cell_length_a   4.64052486
_cell_length_b   6.16888618
_cell_length_c   6.16888618
_cell_angle_alpha   60.00000000
_cell_angle_beta   90.00000000
_cell_angle_gamma   90.00000000
_symmetry_Int_Tables_number   1
_chemical_formula_structural   LiMgGa6
_chemical_formula_sum   'Li1 Mg1 Ga6'
_cell_volume   152.93653660
_cell_formula_units_Z   1
loop_
 _symmetry_equiv_pos_site_id
 _symmetry_equiv_pos_as_xyz
  1  'x, y, z'
loop_
 _atom_site_type_symbol
 _atom_site_label
 _atom_site_symmetry_multiplicity
 _atom_site_fract_x
 _atom_site_fract_y
 _atom_site_fract_z
 _atom_site_occupancy
  Li  Li0  1  0.25000001  0.33333332  0.33333332  1
  Mg  Mg1  1  0.75000002  0.66666665  0.66666665  1
  Ga  Ga2  1  0.25000001  0.29832299  0.85083898  1
  Ga  Ga3  1  0.25000001  0.85083798  0.85083898  1
  Ga  Ga4  1  0.25000001  0.85083798  0.29832399  1
  Ga  Ga5  1  0.75000002  0.70167698  0.14916100  1
  Ga  Ga6  1  0.75000002  0.14916200  0.14916100  1
  Ga  Ga7  1  0.75000002  0.14916200  0.70167598  1
