# generated using pymatgen
data_HfSn3
_symmetry_space_group_name_H-M   'P 1'
_cell_length_a   6.10040188
_cell_length_b   6.10040188
_cell_length_c   9.58650017
_cell_angle_alpha   90.00000000
_cell_angle_beta   90.00000000
_cell_angle_gamma   120.00000000
_symmetry_Int_Tables_number   1
_chemical_formula_structural   HfSn3
_chemical_formula_sum   'Hf4 Sn12'
_cell_volume   308.96380727
_cell_formula_units_Z   4
loop_
 _symmetry_equiv_pos_site_id
 _symmetry_equiv_pos_as_xyz
  1  'x, y, z'
loop_
 _atom_site_type_symbol
 _atom_site_label
 _atom_site_symmetry_multiplicity
 _atom_site_fract_x
 _atom_site_fract_y
 _atom_site_fract_z
 _atom_site_occupancy
  Hf  Hf0  1  0.00000000  0.00000000  0.00000000  1
  Hf  Hf1  1  0.00000000  0.00000000  0.49999999  1
  Hf  Hf2  1  0.66666668  0.33333333  0.25000000  1
  Hf  Hf3  1  0.33333333  0.66666667  0.74999999  1
  Sn  Sn4  1  0.18399300  0.81600600  0.25000000  1
  Sn  Sn5  1  0.63201300  0.81600600  0.25000000  1
  Sn  Sn6  1  0.18399300  0.36798600  0.25000000  1
  Sn  Sn7  1  0.81600701  0.18399400  0.74999999  1
  Sn  Sn8  1  0.36798701  0.18399400  0.74999999  1
  Sn  Sn9  1  0.81600701  0.63201400  0.74999999  1
  Sn  Sn10  1  0.50000001  0.00000000  -0.00000000  1
  Sn  Sn11  1  0.50000001  0.50000000  0.99999998  1
  Sn  Sn12  1  -0.00000000  0.50000000  -0.00000000  1
  Sn  Sn13  1  0.50000001  0.00000000  0.49999999  1
  Sn  Sn14  1  0.50000001  0.50000000  0.49999999  1
  Sn  Sn15  1  -0.00000000  0.50000000  0.49999999  1
