# generated using pymatgen
data_TlS3
_symmetry_space_group_name_H-M   'P 1'
_cell_length_a   6.40404987
_cell_length_b   6.84021950
_cell_length_c   12.29001522
_cell_angle_alpha   100.36231995
_cell_angle_beta   90.00000000
_cell_angle_gamma   117.91215515
_symmetry_Int_Tables_number   1
_chemical_formula_structural   TlS3
_chemical_formula_sum   'Tl4 S12'
_cell_volume   465.77545259
_cell_formula_units_Z   4
loop_
 _symmetry_equiv_pos_site_id
 _symmetry_equiv_pos_as_xyz
  1  'x, y, z'
loop_
 _atom_site_type_symbol
 _atom_site_label
 _atom_site_symmetry_multiplicity
 _atom_site_fract_x
 _atom_site_fract_y
 _atom_site_fract_z
 _atom_site_occupancy
  Tl  Tl0  1  0.11806403  1.00000005  0.75000004  1
  Tl  Tl1  1  0.88193605  1.00000005  0.25000002  1
  Tl  Tl2  1  0.50000002  0.50000002  0.50000002  1
  Tl  Tl3  1  1.00000003  0.50000002  0.00000001  1
  S  S4  1  0.53843704  0.83992504  0.60381403  1
  S  S5  1  0.46156301  0.16007501  0.39618602  1
  S  S6  1  0.69851202  0.16007501  0.89618603  1
  S  S7  1  0.30148803  0.83992504  0.10381401  1
  S  S8  1  0.62765202  0.42716902  0.65962003  1
  S  S9  1  0.37234802  0.57283103  0.34038002  1
  S  S10  1  0.20048302  0.57283103  0.84038004  1
  S  S11  1  0.79951703  0.42716902  0.15962001  1
  S  S12  1  0.20257401  0.30774902  0.04055801  1
  S  S13  1  0.79742604  0.69225103  0.95944204  1
  S  S14  1  0.89482504  0.69225103  0.45944203  1
  S  S15  1  0.10517501  0.30774902  0.54055802  1
