# generated using pymatgen
data_Y2ErTmGe4
_symmetry_space_group_name_H-M   'P 1'
_cell_length_a   3.70712709
_cell_length_b   4.29140806
_cell_length_c   10.64547729
_cell_angle_alpha   90.00000000
_cell_angle_beta   90.00000000
_cell_angle_gamma   90.00000000
_symmetry_Int_Tables_number   1
_chemical_formula_structural   Y2ErTmGe4
_chemical_formula_sum   'Y2 Er1 Tm1 Ge4'
_cell_volume   169.35671702
_cell_formula_units_Z   1
loop_
 _symmetry_equiv_pos_site_id
 _symmetry_equiv_pos_as_xyz
  1  'x, y, z'
loop_
 _atom_site_type_symbol
 _atom_site_label
 _atom_site_symmetry_multiplicity
 _atom_site_fract_x
 _atom_site_fract_y
 _atom_site_fract_z
 _atom_site_occupancy
  Tm  Tm0  1  0.49999999  0.49999999  0.37409099  1
  Y  Y1  1  -0.00000000  0.49999999  0.85535698  1
  Y  Y2  1  0.00000000  0.00000000  0.13754900  1
  Er  Er3  1  0.49999999  0.00000000  0.63771198  1
  Ge  Ge4  1  -0.00000000  0.49999999  0.57941798  1
  Ge  Ge5  1  0.00000000  0.00000000  0.42065599  1
  Ge  Ge6  1  0.49999999  0.00000000  0.90817497  1
  Ge  Ge7  1  0.49999999  0.49999999  0.08704200  1
