# generated using pymatgen
data_Y3Ge4
_symmetry_space_group_name_H-M   'P 1'
_cell_length_a   7.86343002
_cell_length_b   7.86343002
_cell_length_c   7.86343002
_cell_angle_alpha   71.25325012
_cell_angle_beta   70.16532898
_cell_angle_gamma   109.83467102
_symmetry_Int_Tables_number   1
_chemical_formula_structural   Y3Ge4
_chemical_formula_sum   'Y6 Ge8'
_cell_volume   374.25027981
_cell_formula_units_Z   2
loop_
 _symmetry_equiv_pos_site_id
 _symmetry_equiv_pos_as_xyz
  1  'x, y, z'
loop_
 _atom_site_type_symbol
 _atom_site_label
 _atom_site_symmetry_multiplicity
 _atom_site_fract_x
 _atom_site_fract_y
 _atom_site_fract_z
 _atom_site_occupancy
  Y  Y0  1  0.61961316  0.87046708  0.01246384  1
  Y  Y1  1  0.11706913  0.74914607  0.87046688  1
  Y  Y2  1  0.38038707  0.36792303  0.74914592  1
  Y  Y3  1  0.00000008  0.50000005  0.49999993  1
  Y  Y4  1  0.88293101  0.01246400  0.36792293  1
  Y  Y5  1  0.50000005  0.25000002  0.24999993  1
  Ge  Ge6  1  0.60420303  0.11755401  0.64116594  1
  Ge  Ge7  1  0.88730606  0.27269802  0.97724789  1
  Ge  Ge8  1  0.75872012  0.64116606  0.75463086  1
  Ge  Ge9  1  0.39579713  0.75463107  0.48664887  1
  Ge  Ge10  1  0.11269402  0.13544601  0.61460797  1
  Ge  Ge11  1  0.24994517  0.97724709  0.13544685  1
  Ge  Ge12  1  0.75005511  0.61460906  0.27269686  1
  Ge  Ge13  1  0.24128009  0.48664904  0.11755392  1
