# generated using pymatgen
data_Ba4Nd3NiO12
_symmetry_space_group_name_H-M   'P 1'
_cell_length_a   6.16051197
_cell_length_b   6.42635298
_cell_length_c   8.59046268
_cell_angle_alpha   90.00000000
_cell_angle_beta   90.00000000
_cell_angle_gamma   90.00000000
_symmetry_Int_Tables_number   1
_chemical_formula_structural   Ba4Nd3NiO12
_chemical_formula_sum   'Ba4 Nd3 Ni1 O12'
_cell_volume   340.09319150
_cell_formula_units_Z   1
loop_
 _symmetry_equiv_pos_site_id
 _symmetry_equiv_pos_as_xyz
  1  'x, y, z'
loop_
 _atom_site_type_symbol
 _atom_site_label
 _atom_site_symmetry_multiplicity
 _atom_site_fract_x
 _atom_site_fract_y
 _atom_site_fract_z
 _atom_site_occupancy
  Ba  Ba0  1  0.01025200  0.55258600  0.25000001  1
  Ba  Ba1  1  0.48974800  0.05258600  0.25000001  1
  Ba  Ba2  1  0.98974800  0.44741400  0.75000003  1
  Ba  Ba3  1  0.51025200  0.94741400  0.75000003  1
  Nd  Nd4  1  0.50000000  0.50000000  0.00000000  1
  Nd  Nd5  1  0.00000000  0.00000000  0.50000002  1
  Nd  Nd6  1  0.50000000  0.50000000  0.50000002  1
  Ni  Ni7  1  0.00000000  0.00000000  0.00000000  1
  O  O8  1  0.92897800  0.98012200  0.25000001  1
  O  O9  1  0.57102200  0.48012200  0.25000001  1
  O  O10  1  0.07102200  0.01987800  0.75000003  1
  O  O11  1  0.42897800  0.51987800  0.75000003  1
  O  O12  1  0.27444400  0.80948100  0.46458002  1
  O  O13  1  0.22555600  0.30948100  0.03542000  1
  O  O14  1  0.72555600  0.19051900  0.96458004  1
  O  O15  1  0.77444400  0.69051900  0.53542002  1
  O  O16  1  0.72555600  0.19051900  0.53542002  1
  O  O17  1  0.77444400  0.69051900  0.96458004  1
  O  O18  1  0.27444400  0.80948100  0.03542000  1
  O  O19  1  0.22555600  0.30948100  0.46458002  1
