# generated using pymatgen
data_NdGe2
_symmetry_space_group_name_H-M   'P 1'
_cell_length_a   4.01758623
_cell_length_b   4.01758623
_cell_length_c   8.67576122
_cell_angle_alpha   103.38780212
_cell_angle_beta   103.38780212
_cell_angle_gamma   90.00000000
_symmetry_Int_Tables_number   1
_chemical_formula_structural   NdGe2
_chemical_formula_sum   'Nd2 Ge4'
_cell_volume   132.31518101
_cell_formula_units_Z   2
loop_
 _symmetry_equiv_pos_site_id
 _symmetry_equiv_pos_as_xyz
  1  'x, y, z'
loop_
 _atom_site_type_symbol
 _atom_site_label
 _atom_site_symmetry_multiplicity
 _atom_site_fract_x
 _atom_site_fract_y
 _atom_site_fract_z
 _atom_site_occupancy
  Nd  Nd0  1  0.74999995  0.24999998  0.49999998  1
  Nd  Nd1  1  0.00000000  0.00000000  0.00000000  1
  Ge  Ge2  1  0.17159498  0.67159496  0.34318998  1
  Ge  Ge3  1  0.57840495  0.57840496  0.15680998  1
  Ge  Ge4  1  0.32840496  0.82840494  0.65680998  1
  Ge  Ge5  1  0.42159496  0.42159497  0.84318998  1
