# generated using pymatgen
data_Mg4MnAl11GaCu
_symmetry_space_group_name_H-M   'P 1'
_cell_length_a   4.69252777
_cell_length_b   4.69252825
_cell_length_c   17.08968925
_cell_angle_alpha   90.00000000
_cell_angle_beta   90.00000000
_cell_angle_gamma   120.00000000
_symmetry_Int_Tables_number   1
_chemical_formula_structural   Mg4MnAl11GaCu
_chemical_formula_sum   'Mg4 Mn1 Al11 Ga1 Cu1'
_cell_volume   325.89563587
_cell_formula_units_Z   1
loop_
 _symmetry_equiv_pos_site_id
 _symmetry_equiv_pos_as_xyz
  1  'x, y, z'
loop_
 _atom_site_type_symbol
 _atom_site_label
 _atom_site_symmetry_multiplicity
 _atom_site_fract_x
 _atom_site_fract_y
 _atom_site_fract_z
 _atom_site_occupancy
  Mn  Mn0  1  0.00000000  0.00000000  0.50000002  1
  Mg  Mg1  1  0.00000000  0.00000000  0.32835901  1
  Mg  Mg2  1  0.00000000  0.00000000  0.67164103  1
  Mg  Mg3  1  0.00000000  0.00000000  0.16352801  1
  Mg  Mg4  1  0.00000000  0.00000000  0.83647204  1
  Al  Al5  1  0.66666672  0.33333336  0.05330500  1
  Al  Al6  1  0.33333339  0.66666672  0.94669504  1
  Ga  Ga7  1  0.66666672  0.33333336  0.55377202  1
  Cu  Cu8  1  0.33333339  0.66666672  0.44622802  1
  Al  Al9  1  0.66666672  0.33333336  0.71628203  1
  Al  Al10  1  0.33333339  0.66666672  0.28371801  1
  Al  Al11  1  0.66666672  0.33333336  0.88796104  1
  Al  Al12  1  0.33333339  0.66666672  0.11203900  1
  Al  Al13  1  0.00000000  0.00000000  0.00000000  1
  Al  Al14  1  0.66666672  0.33333336  0.22172801  1
  Al  Al15  1  0.33333339  0.66666672  0.77827203  1
  Al  Al16  1  0.66666672  0.33333336  0.39196302  1
  Al  Al17  1  0.33333339  0.66666672  0.60803703  1
