# generated using pymatgen
data_K5LiTeHO10
_symmetry_space_group_name_H-M   'P 1'
_cell_length_a   4.97859526
_cell_length_b   4.98098516
_cell_length_c   10.83259296
_cell_angle_alpha   90.00122070
_cell_angle_beta   90.00045776
_cell_angle_gamma   60.11912155
_symmetry_Int_Tables_number   1
_chemical_formula_structural   K5LiTeHO10
_chemical_formula_sum   'K5 Li1 Te1 H1 O10'
_cell_volume   232.91914088
_cell_formula_units_Z   1
loop_
 _symmetry_equiv_pos_site_id
 _symmetry_equiv_pos_as_xyz
  1  'x, y, z'
loop_
 _atom_site_type_symbol
 _atom_site_label
 _atom_site_symmetry_multiplicity
 _atom_site_fract_x
 _atom_site_fract_y
 _atom_site_fract_z
 _atom_site_occupancy
  Li  Li0  1  0.00000898  0.99998397  0.32362603  1
  K  K1  1  0.99999703  0.00000800  0.67672102  1
  K  K2  1  0.99999801  0.99999197  0.99959305  1
  K  K3  1  0.00001199  0.49998598  0.13550102  1
  K  K4  1  0.49999601  0.49999398  0.13557302  1
  H  H5  1  0.49999401  0.00000100  0.13571401  1
  K  K6  1  0.00002099  0.49998298  0.86427202  1
  Te  Te7  1  0.49998701  0.49998698  0.86419302  1
  O  O8  1  0.49998301  0.00002200  0.86419501  1
  O  O9  1  0.33290900  0.33391399  0.31801402  1
  O  O10  1  0.66708101  0.66604998  0.31819603  1
  O  O11  1  0.66706001  0.66621398  0.68200303  1
  O  O12  1  0.33295100  0.33378499  0.68222402  1
  O  O13  1  0.00035899  0.49981898  0.50022402  1
  O  O14  1  0.49982601  0.49982298  0.50023602  1
  O  O15  1  0.49981701  0.00036600  0.50024301  1
  O  O16  1  0.33344300  0.33343699  0.99972902  1
  O  O17  1  0.66655601  0.66653498  0.99974503  1
