# generated using pymatgen
data_Dy(Lu3Sn2)3
_symmetry_space_group_name_H-M   'P 1'
_cell_length_a   6.28115082
_cell_length_b   8.29234219
_cell_length_c   8.29234123
_cell_angle_alpha   119.97402191
_cell_angle_beta   90.00000000
_cell_angle_gamma   90.00000000
_symmetry_Int_Tables_number   1
_chemical_formula_structural   Dy(Lu3Sn2)3
_chemical_formula_sum   'Dy1 Lu9 Sn6'
_cell_volume   374.14320327
_cell_formula_units_Z   1
loop_
 _symmetry_equiv_pos_site_id
 _symmetry_equiv_pos_as_xyz
  1  'x, y, z'
loop_
 _atom_site_type_symbol
 _atom_site_label
 _atom_site_symmetry_multiplicity
 _atom_site_fract_x
 _atom_site_fract_y
 _atom_site_fract_z
 _atom_site_occupancy
  Dy  Dy0  1  0.50000101  0.66666665  0.33333332  1
  Lu  Lu1  1  0.50000101  0.33333333  0.66666668  1
  Lu  Lu2  1  0.00000100  0.33333333  0.66666668  1
  Lu  Lu3  1  0.00000100  0.66666665  0.33333332  1
  Lu  Lu4  1  0.24998101  0.74450899  0.74450900  1
  Lu  Lu5  1  0.25001201  0.25548900  0.00001699  1
  Lu  Lu6  1  0.25001201  0.00001800  0.25549001  1
  Lu  Lu7  1  0.74998102  0.25549100  0.25549100  1
  Lu  Lu8  1  0.75001202  0.74451099  0.99998301  1
  Lu  Lu9  1  0.75001202  0.99998198  0.74450999  1
  Sn  Sn10  1  0.25000001  0.39270599  0.39270600  1
  Sn  Sn11  1  0.24999601  0.60720999  0.00001997  1
  Sn  Sn12  1  0.24999601  0.00002000  0.60721002  1
  Sn  Sn13  1  0.75000002  0.60729399  0.60729400  1
  Sn  Sn14  1  0.74999602  0.39279099  0.99998102  1
  Sn  Sn15  1  0.74999602  0.99997998  0.39278997  1
