# generated using pymatgen
data_CeAl11
_symmetry_space_group_name_H-M   'P 1'
_cell_length_a   5.14252663
_cell_length_b   5.14252663
_cell_length_c   8.84044170
_cell_angle_alpha   73.09100342
_cell_angle_beta   73.09100342
_cell_angle_gamma   59.99999237
_symmetry_Int_Tables_number   1
_chemical_formula_structural   CeAl11
_chemical_formula_sum   'Ce1 Al11'
_cell_volume   190.70848549
_cell_formula_units_Z   1
loop_
 _symmetry_equiv_pos_site_id
 _symmetry_equiv_pos_as_xyz
  1  'x, y, z'
loop_
 _atom_site_type_symbol
 _atom_site_label
 _atom_site_symmetry_multiplicity
 _atom_site_fract_x
 _atom_site_fract_y
 _atom_site_fract_z
 _atom_site_occupancy
  Ce  Ce0  1  0.85882396  0.85882399  0.42352802  1
  Al  Al1  1  0.14117599  0.14117600  0.57647201  1
  Al  Al2  1  0.00000000  0.00000000  0.00000000  1
  Al  Al3  1  0.91684997  0.41967999  0.24379001  1
  Al  Al4  1  0.41967998  0.41967999  0.24379001  1
  Al  Al5  1  0.41967997  0.91684999  0.24379001  1
  Al  Al6  1  0.08314998  0.58031999  0.75621002  1
  Al  Al7  1  0.58031997  0.58031999  0.75621002  1
  Al  Al8  1  0.58031998  0.08315000  0.75621002  1
  Al  Al9  1  0.66743597  0.66743599  0.99769202  1
  Al  Al10  1  0.33256398  0.33256400  0.00230801  1
  Al  Al11  1  0.49999998  0.49999999  0.50000001  1
