# generated using pymatgen
data_Al6CoSiIr12
_symmetry_space_group_name_H-M   'P 1'
_cell_length_a   6.25345278
_cell_length_b   6.25345278
_cell_length_c   10.03062057
_cell_angle_alpha   90.00000000
_cell_angle_beta   90.00000000
_cell_angle_gamma   90.00000000
_symmetry_Int_Tables_number   1
_chemical_formula_structural   Al6CoSiIr12
_chemical_formula_sum   'Al6 Co1 Si1 Ir12'
_cell_volume   392.25415460
_cell_formula_units_Z   1
loop_
 _symmetry_equiv_pos_site_id
 _symmetry_equiv_pos_as_xyz
  1  'x, y, z'
loop_
 _atom_site_type_symbol
 _atom_site_label
 _atom_site_symmetry_multiplicity
 _atom_site_fract_x
 _atom_site_fract_y
 _atom_site_fract_z
 _atom_site_occupancy
  Al  Al0  1  0.22039901  0.34361401  0.58407402  1
  Al  Al1  1  0.34361401  0.22039901  0.91592604  1
  Al  Al2  1  0.34361401  0.77960103  0.41592602  1
  Al  Al3  1  0.65638602  0.22039901  0.41592602  1
  Al  Al4  1  0.22039901  0.65638602  0.08407400  1
  Al  Al5  1  0.82134903  0.82134903  0.25000001  1
  Ir  Ir6  1  0.65638602  0.77960103  0.91592604  1
  Ir  Ir7  1  0.17865101  0.82134903  0.75000003  1
  Ir  Ir8  1  0.82134903  0.17865101  0.75000003  1
  Co  Co9  1  0.77960103  0.34361401  0.08407400  1
  Ir  Ir10  1  0.77960103  0.65638602  0.58407402  1
  Ir  Ir11  1  0.17865101  0.17865101  0.25000001  1
  Ir  Ir12  1  0.50000002  0.00000000  0.62552103  1
  Ir  Ir13  1  0.00000000  0.50000002  0.37447902  1
  Ir  Ir14  1  0.00000000  0.00000000  0.00000000  1
  Ir  Ir15  1  0.00000000  0.50000002  0.87447904  1
  Ir  Ir16  1  0.50000002  0.00000000  0.12552101  1
  Ir  Ir17  1  0.00000000  0.00000000  0.50000002  1
  Si  Si18  1  0.50000002  0.50000002  0.75000003  1
  Ir  Ir19  1  0.50000002  0.50000002  0.25000001  1
