# generated using pymatgen
data_Li6CuS7
_symmetry_space_group_name_H-M   'P 1'
_cell_length_a   7.16645813
_cell_length_b   7.16645813
_cell_length_c   7.16645813
_cell_angle_alpha   60.00000000
_cell_angle_beta   60.00000000
_cell_angle_gamma   60.00000000
_symmetry_Int_Tables_number   1
_chemical_formula_structural   Li6CuS7
_chemical_formula_sum   'Li6 Cu1 S7'
_cell_volume   260.25477456
_cell_formula_units_Z   1
loop_
 _symmetry_equiv_pos_site_id
 _symmetry_equiv_pos_as_xyz
  1  'x, y, z'
loop_
 _atom_site_type_symbol
 _atom_site_label
 _atom_site_symmetry_multiplicity
 _atom_site_fract_x
 _atom_site_fract_y
 _atom_site_fract_z
 _atom_site_occupancy
  Li  Li0  1  0.87364698  0.87364598  0.37906099  1
  Li  Li1  1  0.87364698  0.87364598  0.87364598  1
  Li  Li2  1  0.87364698  0.37906099  0.87364598  1
  Li  Li3  1  0.37906199  0.87364598  0.87364598  1
  Li  Li4  1  0.24999999  0.24999999  0.24999999  1
  Li  Li5  1  0.49999999  0.49999999  0.49999999  1
  Cu  Cu6  1  0.10868200  0.10868300  0.67395198  1
  S  S7  1  0.10868200  0.10868300  0.10868300  1
  S  S8  1  0.10868200  0.67395198  0.10868300  1
  S  S9  1  0.67395098  0.10868300  0.10868300  1
  S  S10  1  0.63200498  0.63200398  0.10398700  1
  S  S11  1  0.63200498  0.63200398  0.63200398  1
  S  S12  1  0.63200498  0.10398700  0.63200398  1
  S  S13  1  0.10398800  0.63200398  0.63200398  1
