# generated using pymatgen
data_CeSn
_symmetry_space_group_name_H-M   'P 1'
_cell_length_a   4.58857393
_cell_length_b   6.78457117
_cell_length_c   7.30508280
_cell_angle_alpha   90.00000000
_cell_angle_beta   108.30451202
_cell_angle_gamma   90.00000000
_symmetry_Int_Tables_number   1
_chemical_formula_structural   CeSn
_chemical_formula_sum   'Ce4 Sn4'
_cell_volume   215.91103956
_cell_formula_units_Z   4
loop_
 _symmetry_equiv_pos_site_id
 _symmetry_equiv_pos_as_xyz
  1  'x, y, z'
loop_
 _atom_site_type_symbol
 _atom_site_label
 _atom_site_symmetry_multiplicity
 _atom_site_fract_x
 _atom_site_fract_y
 _atom_site_fract_z
 _atom_site_occupancy
  Ce  Ce0  1  0.95198402  0.24999999  0.90396799  1
  Ce  Ce1  1  0.04801600  0.74999998  0.09603200  1
  Ce  Ce2  1  0.77445901  0.74999998  0.54891800  1
  Ce  Ce3  1  0.22554100  0.24999999  0.45108200  1
  Sn  Sn4  1  0.59812801  0.44450299  0.19625600  1
  Sn  Sn5  1  0.40187201  0.55549699  0.80374399  1
  Sn  Sn6  1  0.59812801  0.05549700  0.19625600  1
  Sn  Sn7  1  0.40187201  0.94450298  0.80374399  1
