# generated using pymatgen
data_TiGe9
_symmetry_space_group_name_H-M   'P 1'
_cell_length_a   3.30819798
_cell_length_b   6.94875097
_cell_length_c   8.22760201
_cell_angle_alpha   78.97329712
_cell_angle_beta   78.40206146
_cell_angle_gamma   76.22895813
_symmetry_Int_Tables_number   1
_chemical_formula_structural   TiGe9
_chemical_formula_sum   'Ti1 Ge9'
_cell_volume   177.89148586
_cell_formula_units_Z   1
loop_
 _symmetry_equiv_pos_site_id
 _symmetry_equiv_pos_as_xyz
  1  'x, y, z'
loop_
 _atom_site_type_symbol
 _atom_site_label
 _atom_site_symmetry_multiplicity
 _atom_site_fract_x
 _atom_site_fract_y
 _atom_site_fract_z
 _atom_site_occupancy
  Ti  Ti0  1  0.10607904  0.41854199  0.36929997  1
  Ge  Ge1  1  0.89392106  0.58145799  0.63069996  1
  Ge  Ge2  1  0.41603008  0.85468698  0.31325297  1
  Ge  Ge3  1  0.58397002  0.14531300  0.68674696  1
  Ge  Ge4  1  0.87507303  0.20305500  0.04679899  1
  Ge  Ge5  1  0.12492707  0.79694499  0.95320094  1
  Ge  Ge6  1  0.34726904  0.43431899  0.87114295  1
  Ge  Ge7  1  0.65273106  0.56568099  0.12885698  1
  Ge  Ge8  1  0.24723608  0.87790098  0.62762695  1
  Ge  Ge9  1  0.75276402  0.12209900  0.37237298  1
