# generated using pymatgen
data_Hf5Ni4
_symmetry_space_group_name_H-M   'P 1'
_cell_length_a   4.02431393
_cell_length_b   8.94162560
_cell_length_c   8.94162560
_cell_angle_alpha   120.00000000
_cell_angle_beta   90.00000000
_cell_angle_gamma   90.00000000
_symmetry_Int_Tables_number   1
_chemical_formula_structural   Hf5Ni4
_chemical_formula_sum   'Hf10 Ni8'
_cell_volume   278.64768895
_cell_formula_units_Z   2
loop_
 _symmetry_equiv_pos_site_id
 _symmetry_equiv_pos_as_xyz
  1  'x, y, z'
loop_
 _atom_site_type_symbol
 _atom_site_label
 _atom_site_symmetry_multiplicity
 _atom_site_fract_x
 _atom_site_fract_y
 _atom_site_fract_z
 _atom_site_occupancy
  Hf  Hf0  1  0.00000000  0.00000000  0.00000000  1
  Hf  Hf1  1  0.50000001  0.33333335  0.66666667  1
  Hf  Hf2  1  0.50000001  0.66666669  0.33333333  1
  Hf  Hf3  1  -0.00000000  0.50000002  -0.00000001  1
  Hf  Hf4  1  -0.00000000  0.50000002  0.50000000  1
  Hf  Hf5  1  0.00000000  0.00000000  0.50000001  1
  Hf  Hf6  1  0.50000001  0.29707701  1.00000001  1
  Hf  Hf7  1  0.50000001  0.70292303  0.70292300  1
  Hf  Hf8  1  0.50000001  0.00000000  0.29707701  1
  Hf  Hf9  1  0.50000001  0.70292303  1.00000001  1
  Ni  Ni10  1  0.50000001  0.29707701  0.29707700  1
  Ni  Ni11  1  0.50000001  0.00000000  0.70292301  1
  Ni  Ni12  1  -0.00000000  0.18286001  0.36572000  1
  Ni  Ni13  1  1.00000002  0.18286001  0.81714101  1
  Ni  Ni14  1  -0.00000000  0.63428102  0.81714101  1
  Ni  Ni15  1  -0.00000000  0.81714003  0.63428000  1
  Ni  Ni16  1  -0.00000000  0.36571901  0.18285900  1
  Ni  Ni17  1  -0.00000000  0.81714003  0.18285899  1
