# generated using pymatgen
data_U3(AlFe2)2
_symmetry_space_group_name_H-M   'P 1'
_cell_length_a   3.81106305
_cell_length_b   6.73195791
_cell_length_c   6.73195744
_cell_angle_alpha   120.00000000
_cell_angle_beta   90.00000000
_cell_angle_gamma   90.00000000
_symmetry_Int_Tables_number   1
_chemical_formula_structural   U3(AlFe2)2
_chemical_formula_sum   'U3 Al2 Fe4'
_cell_volume   149.57517483
_cell_formula_units_Z   1
loop_
 _symmetry_equiv_pos_site_id
 _symmetry_equiv_pos_as_xyz
  1  'x, y, z'
loop_
 _atom_site_type_symbol
 _atom_site_label
 _atom_site_symmetry_multiplicity
 _atom_site_fract_x
 _atom_site_fract_y
 _atom_site_fract_z
 _atom_site_occupancy
  U  U0  1  0.49999999  0.58302399  0.58302397  1
  U  U1  1  0.49999999  0.00000000  0.41697600  1
  U  U2  1  0.49999999  0.41697599  -0.00000002  1
  Fe  Fe3  1  0.99999999  0.66666666  0.33333330  1
  Fe  Fe4  1  -0.00000000  0.33333333  0.66666665  1
  Fe  Fe5  1  0.49999999  0.00000000  -0.00000000  1
  Fe  Fe6  1  -0.00000000  0.24648100  0.24648099  1
  Al  Al7  1  0.99999999  0.00000000  0.75351900  1
  Al  Al8  1  -0.00000000  0.75351899  -0.00000004  1
