# generated using pymatgen
data_CePd2
_symmetry_space_group_name_H-M   'P 1'
_cell_length_a   5.66148043
_cell_length_b   5.66148043
_cell_length_c   5.66148043
_cell_angle_alpha   106.02011871
_cell_angle_beta   106.02011871
_cell_angle_gamma   116.61865997
_symmetry_Int_Tables_number   1
_chemical_formula_structural   CePd2
_chemical_formula_sum   'Ce2 Pd4'
_cell_volume   138.04110549
_cell_formula_units_Z   2
loop_
 _symmetry_equiv_pos_site_id
 _symmetry_equiv_pos_as_xyz
  1  'x, y, z'
loop_
 _atom_site_type_symbol
 _atom_site_label
 _atom_site_symmetry_multiplicity
 _atom_site_fract_x
 _atom_site_fract_y
 _atom_site_fract_z
 _atom_site_occupancy
  Ce  Ce0  1  0.25000000  0.25000000  0.00000000  1
  Ce  Ce1  1  0.75000000  0.74999999  0.00000001  1
  Pd  Pd2  1  0.33275099  0.16724900  0.49999999  1
  Pd  Pd3  1  0.66724900  0.83275099  0.50000000  1
  Pd  Pd4  1  0.16724901  0.66724899  0.83449799  1
  Pd  Pd5  1  0.83275098  0.33275100  0.16550200  1
