# generated using pymatgen
data_Li3FeO6
_symmetry_space_group_name_H-M   'P 1'
_cell_length_a   3.12765098
_cell_length_b   3.12765050
_cell_length_c   10.17274666
_cell_angle_alpha   90.00000000
_cell_angle_beta   90.00000000
_cell_angle_gamma   119.99999237
_symmetry_Int_Tables_number   1
_chemical_formula_structural   Li3FeO6
_chemical_formula_sum   'Li3 Fe1 O6'
_cell_volume   86.17978249
_cell_formula_units_Z   1
loop_
 _symmetry_equiv_pos_site_id
 _symmetry_equiv_pos_as_xyz
  1  'x, y, z'
loop_
 _atom_site_type_symbol
 _atom_site_label
 _atom_site_symmetry_multiplicity
 _atom_site_fract_x
 _atom_site_fract_y
 _atom_site_fract_z
 _atom_site_occupancy
  Li  Li0  1  0.33333329  0.66666666  0.82084403  1
  Li  Li1  1  0.66666666  0.33333333  0.17915601  1
  Li  Li2  1  0.66666666  0.33333333  0.67915502  1
  Fe  Fe3  1  0.33333329  0.66666666  0.32084401  1
  O  O4  1  0.00000000  0.00000000  0.50000002  1
  O  O5  1  0.00000000  0.00000000  0.00000000  1
  O  O6  1  0.66666666  0.33333333  0.38303101  1
  O  O7  1  0.33333329  0.66666666  0.11696900  1
  O  O8  1  0.66666666  0.33333333  0.88303103  1
  O  O9  1  0.33333329  0.66666666  0.61696902  1
