# generated using pymatgen
data_Li3Ni4O7
_symmetry_space_group_name_H-M   'P 1'
_cell_length_a   6.05215740
_cell_length_b   6.05215740
_cell_length_c   6.05215740
_cell_angle_alpha   92.63739014
_cell_angle_beta   118.48916626
_cell_angle_gamma   118.48916626
_symmetry_Int_Tables_number   1
_chemical_formula_structural   Li3Ni4O7
_chemical_formula_sum   'Li3 Ni4 O7'
_cell_volume   160.14902141
_cell_formula_units_Z   1
loop_
 _symmetry_equiv_pos_site_id
 _symmetry_equiv_pos_as_xyz
  1  'x, y, z'
loop_
 _atom_site_type_symbol
 _atom_site_label
 _atom_site_symmetry_multiplicity
 _atom_site_fract_x
 _atom_site_fract_y
 _atom_site_fract_z
 _atom_site_occupancy
  Li  Li0  1  0.50000006  0.75000001  0.25000002  1
  Li  Li1  1  0.00000000  0.00000000  0.00000000  1
  Li  Li2  1  0.25000003  0.37500000  0.62500000  1
  Ni  Ni3  1  0.75000003  0.37500000  0.62500003  1
  Ni  Ni4  1  0.25000007  0.87500001  0.62500000  1
  Ni  Ni5  1  0.75000003  0.37500000  0.12500004  1
  O  O6  1  0.22129105  0.62196001  0.84325099  1
  Ni  Ni7  1  0.72129104  0.59325101  0.87196002  1
  O  O8  1  0.27870901  0.15066900  0.87196099  1
  O  O9  1  0.77870905  0.62196101  0.40066903  1
  O  O10  1  0.27870901  0.12804000  0.40674900  1
  O  O11  1  0.77870901  0.15674900  0.37804003  1
  O  O12  1  0.22129105  0.59933101  0.37803900  1
  O  O13  1  0.72129101  0.12803900  0.84933102  1
