# generated using pymatgen
data_Ba4LaEu(NiO3)2
_symmetry_space_group_name_H-M   'P 1'
_cell_length_a   5.70411301
_cell_length_b   8.25783157
_cell_length_c   8.25783157
_cell_angle_alpha   120.00000000
_cell_angle_beta   90.00000000
_cell_angle_gamma   90.00000000
_symmetry_Int_Tables_number   1
_chemical_formula_structural   Ba4LaEu(NiO3)2
_chemical_formula_sum   'Ba4 La1 Eu1 Ni2 O6'
_cell_volume   336.86104701
_cell_formula_units_Z   1
loop_
 _symmetry_equiv_pos_site_id
 _symmetry_equiv_pos_as_xyz
  1  'x, y, z'
loop_
 _atom_site_type_symbol
 _atom_site_label
 _atom_site_symmetry_multiplicity
 _atom_site_fract_x
 _atom_site_fract_y
 _atom_site_fract_z
 _atom_site_occupancy
  Ba  Ba0  1  0.75000000  0.64055503  0.73908600  1
  Ba  Ba1  1  0.75000000  0.09853100  0.35944601  1
  Ba  Ba2  1  0.75000000  0.26091501  0.90147001  1
  Ba  Ba3  1  0.25000000  0.35944502  0.26091400  1
  Eu  Eu4  1  0.25000000  0.90146904  0.64055400  1
  La  La5  1  0.25000000  0.73908503  0.09852999  1
  Ni  Ni6  1  0.25000000  0.33333335  0.66666667  1
  Ni  Ni7  1  0.75000000  0.66666669  0.33333333  1
  O  O8  1  0.25000000  0.56577802  0.68477400  1
  O  O9  1  0.25000000  0.11899600  0.43422201  1
  O  O10  1  0.25000000  0.31522601  0.88100401  1
  O  O11  1  0.75000000  0.43422202  0.31522600  1
  O  O12  1  0.75000000  0.88100404  0.56577799  1
  O  O13  1  0.75000000  0.68477403  0.11899599  1
