# generated using pymatgen
data_Li3VO6
_symmetry_space_group_name_H-M   'P 1'
_cell_length_a   2.84452200
_cell_length_b   5.87478495
_cell_length_c   6.49731922
_cell_angle_alpha   103.84717560
_cell_angle_beta   102.64441681
_cell_angle_gamma   90.00000000
_symmetry_Int_Tables_number   1
_chemical_formula_structural   Li3VO6
_chemical_formula_sum   'Li3 V1 O6'
_cell_volume   102.70677729
_cell_formula_units_Z   1
loop_
 _symmetry_equiv_pos_site_id
 _symmetry_equiv_pos_as_xyz
  1  'x, y, z'
loop_
 _atom_site_type_symbol
 _atom_site_label
 _atom_site_symmetry_multiplicity
 _atom_site_fract_x
 _atom_site_fract_y
 _atom_site_fract_z
 _atom_site_occupancy
  Li  Li0  1  0.00000000  0.00000000  0.00000000  1
  Li  Li1  1  0.32710701  0.17239100  0.65421400  1
  Li  Li2  1  0.67289305  0.82760898  0.34578604  1
  V  V3  1  0.00000002  0.49999999  0.00000002  1
  O  O4  1  0.83546303  0.38023699  0.67092602  1
  O  O5  1  0.52069704  0.74466398  0.04139404  1
  O  O6  1  0.17465300  0.04646500  0.34930600  1
  O  O7  1  0.47930302  0.25533599  0.95860600  1
  O  O8  1  0.16453703  0.61976299  0.32907402  1
  O  O9  1  0.82534706  0.95353498  0.65069404  1
