# generated using pymatgen
data_Mg
_symmetry_space_group_name_H-M   'P 1'
_cell_length_a   4.34057570
_cell_length_b   4.34057570
_cell_length_c   14.07137871
_cell_angle_alpha   81.12762451
_cell_angle_beta   81.12762451
_cell_angle_gamma   60.00000381
_symmetry_Int_Tables_number   1
_chemical_formula_structural   Mg
_chemical_formula_sum   Mg7
_cell_volume   225.92433147
_cell_formula_units_Z   7
loop_
 _symmetry_equiv_pos_site_id
 _symmetry_equiv_pos_as_xyz
  1  'x, y, z'
loop_
 _atom_site_type_symbol
 _atom_site_label
 _atom_site_symmetry_multiplicity
 _atom_site_fract_x
 _atom_site_fract_y
 _atom_site_fract_z
 _atom_site_occupancy
  Mg  Mg0  1  0.00000000  0.00000000  0.00000000  1
  Mg  Mg1  1  0.42663301  0.42663301  0.72010102  1
  Mg  Mg2  1  0.57336701  0.57336701  0.27989902  1
  Mg  Mg3  1  0.12876800  0.12876800  0.61369602  1
  Mg  Mg4  1  0.87123202  0.87123201  0.38630402  1
  Mg  Mg5  1  0.29060701  0.29060700  0.12817901  1
  Mg  Mg6  1  0.70939302  0.70939301  0.87182103  1
