# generated using pymatgen
data_Ba3CaO8
_symmetry_space_group_name_H-M   'P 1'
_cell_length_a   5.35950613
_cell_length_b   5.35950565
_cell_length_c   7.99425697
_cell_angle_alpha   90.00000000
_cell_angle_beta   90.00000000
_cell_angle_gamma   120.00000000
_symmetry_Int_Tables_number   1
_chemical_formula_structural   Ba3CaO8
_chemical_formula_sum   'Ba3 Ca1 O8'
_cell_volume   198.86494823
_cell_formula_units_Z   1
loop_
 _symmetry_equiv_pos_site_id
 _symmetry_equiv_pos_as_xyz
  1  'x, y, z'
loop_
 _atom_site_type_symbol
 _atom_site_label
 _atom_site_symmetry_multiplicity
 _atom_site_fract_x
 _atom_site_fract_y
 _atom_site_fract_z
 _atom_site_occupancy
  Ca  Ca0  1  0.49999999  0.00000000  0.66666667  1
  Ba  Ba1  1  -0.00000002  0.49999999  0.33333333  1
  Ba  Ba2  1  0.49999997  0.49999999  1.00000000  1
  Ba  Ba3  1  -0.00000002  0.49999999  0.83333300  1
  O  O4  1  0.49999999  0.00000000  0.16666700  1
  O  O5  1  0.49999997  0.49999999  0.50000000  1
  O  O6  1  0.69519095  0.84759599  0.33333333  1
  O  O7  1  0.84759495  0.69518999  0.66666667  1
  O  O8  1  0.15240496  0.84759599  -0.00000000  1
  O  O9  1  0.15240498  0.30481000  0.66666667  1
  O  O10  1  0.84759497  0.15240400  -0.00000000  1
  O  O11  1  0.30480899  0.15240400  0.33333333  1
