# generated using pymatgen
data_Ba2LiMn2SiGe2P3
_symmetry_space_group_name_H-M   'P 1'
_cell_length_a   6.40593290
_cell_length_b   6.40593290
_cell_length_c   6.40593290
_cell_angle_alpha   109.47122192
_cell_angle_beta   109.47122192
_cell_angle_gamma   109.47122192
_symmetry_Int_Tables_number   1
_chemical_formula_structural   Ba2LiMn2SiGe2P3
_chemical_formula_sum   'Ba2 Li1 Mn2 Si1 Ge2 P3'
_cell_volume   202.36026757
_cell_formula_units_Z   1
loop_
 _symmetry_equiv_pos_site_id
 _symmetry_equiv_pos_as_xyz
  1  'x, y, z'
loop_
 _atom_site_type_symbol
 _atom_site_label
 _atom_site_symmetry_multiplicity
 _atom_site_fract_x
 _atom_site_fract_y
 _atom_site_fract_z
 _atom_site_occupancy
  Li  Li0  1  0.00000003  0.50000001  0.50000002  1
  Ba  Ba1  1  0.50000006  1.00000002  0.50000006  1
  Ba  Ba2  1  0.50000002  0.50000001  1.00000002  1
  Mn  Mn3  1  1.00000002  0.61001701  0.00000006  1
  Ge  Ge4  1  0.38998302  0.38998301  0.38998302  1
  Mn  Mn5  1  0.61001699  0.00000000  0.00000001  1
  Ge  Ge6  1  1.00000005  1.00000002  0.61001706  1
  Si  Si7  1  0.00000000  0.00000000  0.24539399  1
  P  P8  1  0.75460604  0.75460601  0.75460604  1
  P  P9  1  0.00000002  0.24539400  0.00000001  1
  P  P10  1  0.24539400  0.00000000  0.99999998  1
