# generated using pymatgen
data_DyErNi3
_symmetry_space_group_name_H-M   'P 1'
_cell_length_a   4.14860582
_cell_length_b   5.69023800
_cell_length_c   8.96835423
_cell_angle_alpha   83.06143951
_cell_angle_beta   76.62688446
_cell_angle_gamma   68.62090302
_symmetry_Int_Tables_number   1
_chemical_formula_structural   DyErNi3
_chemical_formula_sum   'Dy2 Er2 Ni6'
_cell_volume   191.64250221
_cell_formula_units_Z   2
loop_
 _symmetry_equiv_pos_site_id
 _symmetry_equiv_pos_as_xyz
  1  'x, y, z'
loop_
 _atom_site_type_symbol
 _atom_site_label
 _atom_site_symmetry_multiplicity
 _atom_site_fract_x
 _atom_site_fract_y
 _atom_site_fract_z
 _atom_site_occupancy
  Dy  Dy0  1  0.18882408  0.73077096  0.89158095  1
  Dy  Dy1  1  0.81117607  0.26922899  0.10841897  1
  Er  Er2  1  0.99855809  0.33048898  0.67239495  1
  Er  Er3  1  0.00144207  0.66951096  0.32760497  1
  Ni  Ni4  1  0.72763513  0.92156695  0.62316294  1
  Ni  Ni5  1  0.27236502  0.07843300  0.37683698  1
  Ni  Ni6  1  0.50193304  0.12345399  0.87267997  1
  Ni  Ni7  1  0.49806711  0.87654595  0.12731996  1
  Ni  Ni8  1  0.34262909  0.75048896  0.56425296  1
  Ni  Ni9  1  0.65737106  0.24951099  0.43574697  1
