# generated using pymatgen
data_Li4CoH9
_symmetry_space_group_name_H-M   'P 1'
_cell_length_a   4.81599712
_cell_length_b   5.48604202
_cell_length_c   5.48604202
_cell_angle_alpha   100.73009491
_cell_angle_beta   90.00000000
_cell_angle_gamma   90.00000000
_symmetry_Int_Tables_number   1
_chemical_formula_structural   Li4CoH9
_chemical_formula_sum   'Li4 Co1 H9'
_cell_volume   142.41106344
_cell_formula_units_Z   1
loop_
 _symmetry_equiv_pos_site_id
 _symmetry_equiv_pos_as_xyz
  1  'x, y, z'
loop_
 _atom_site_type_symbol
 _atom_site_label
 _atom_site_symmetry_multiplicity
 _atom_site_fract_x
 _atom_site_fract_y
 _atom_site_fract_z
 _atom_site_occupancy
  Li  Li0  1  0.74999998  0.06916500  0.35196801  1
  Li  Li1  1  0.24999999  0.35196801  0.06916502  1
  Li  Li2  1  0.24999999  0.93083503  0.64803206  1
  Li  Li3  1  0.74999998  0.64803202  0.93083506  1
  H  H4  1  0.74999998  0.35373201  0.13039202  1
  H  H5  1  0.24999999  0.13039200  0.35373202  1
  Co  Co6  1  0.24999999  0.64626802  0.86960805  1
  H  H7  1  0.74999998  0.86960803  0.64626806  1
  H  H8  1  0.98470097  0.27801401  0.72198603  1
  H  H9  1  0.01529900  0.72198602  0.27801404  1
  H  H10  1  0.51529899  0.27801401  0.72198603  1
  H  H11  1  0.48470099  0.72198602  0.27801404  1
  H  H12  1  0.74999998  0.13187800  0.86812203  1
  H  H13  1  0.24999999  0.86812203  0.13187805  1
