# generated using pymatgen
data_SrCaBCO6
_symmetry_space_group_name_H-M   'P 1'
_cell_length_a   6.53724003
_cell_length_b   6.53724003
_cell_length_c   7.11083746
_cell_angle_alpha   103.95448303
_cell_angle_beta   103.95448303
_cell_angle_gamma   96.41363525
_symmetry_Int_Tables_number   1
_chemical_formula_structural   SrCaBCO6
_chemical_formula_sum   'Sr2 Ca2 B2 C2 O12'
_cell_volume   281.52013456
_cell_formula_units_Z   2
loop_
 _symmetry_equiv_pos_site_id
 _symmetry_equiv_pos_as_xyz
  1  'x, y, z'
loop_
 _atom_site_type_symbol
 _atom_site_label
 _atom_site_symmetry_multiplicity
 _atom_site_fract_x
 _atom_site_fract_y
 _atom_site_fract_z
 _atom_site_occupancy
  Ca  Ca0  1  0.37985501  0.62014501  0.74999999  1
  Sr  Sr1  1  0.62014501  0.37985500  0.24999997  1
  Sr  Sr2  1  0.90281301  0.09718700  0.74999998  1
  Ca  Ca3  1  0.09718702  0.90281301  0.24999998  1
  B  B4  1  0.35449601  0.11021000  0.75797900  1
  B  B5  1  0.64550402  0.88979001  0.24202096  1
  C  C6  1  0.88979002  0.64550401  0.74202097  1
  C  C7  1  0.11021001  0.35449600  0.25797899  1
  O  O8  1  0.55292001  0.10429600  0.77949200  1
  O  O9  1  0.44708002  0.89570401  0.22050796  1
  O  O10  1  0.89570402  0.44708001  0.72050797  1
  O  O11  1  0.10429601  0.55292001  0.27949199  1
  O  O12  1  0.28790901  0.24941600  0.88184100  1
  O  O13  1  0.71209102  0.75058401  0.11815896  1
  O  O14  1  0.75058402  0.71209101  0.61815897  1
  O  O15  1  0.24941601  0.28790900  0.38184099  1
  O  O16  1  0.20543802  0.96904301  0.61038698  1
  O  O17  1  0.79456201  0.03095700  0.38961298  1
  O  O18  1  0.03095701  0.79456201  0.88961300  1
  O  O19  1  0.96904301  0.20543800  0.11038696  1
