# generated using pymatgen
data_Cu
_symmetry_space_group_name_H-M   'P 1'
_cell_length_a   4.08103418
_cell_length_b   4.08103418
_cell_length_c   7.56254530
_cell_angle_alpha   105.65348816
_cell_angle_beta   105.65348816
_cell_angle_gamma   90.00000000
_symmetry_Int_Tables_number   1
_chemical_formula_structural   Cu
_chemical_formula_sum   Cu5
_cell_volume   116.42277518
_cell_formula_units_Z   5
loop_
 _symmetry_equiv_pos_site_id
 _symmetry_equiv_pos_as_xyz
  1  'x, y, z'
loop_
 _atom_site_type_symbol
 _atom_site_label
 _atom_site_symmetry_multiplicity
 _atom_site_fract_x
 _atom_site_fract_y
 _atom_site_fract_z
 _atom_site_occupancy
  Cu  Cu0  1  0.00000000  0.00000000  0.00000000  1
  Cu  Cu1  1  0.32851900  0.32851899  0.65703801  1
  Cu  Cu2  1  0.67148100  0.67148098  0.34296204  1
  Cu  Cu3  1  0.74999998  0.24999999  0.50000002  1
  Cu  Cu4  1  0.25000001  0.74999998  0.50000003  1
