# generated using pymatgen
data_Al
_symmetry_space_group_name_H-M   'P 1'
_cell_length_a   5.01456785
_cell_length_b   6.52859640
_cell_length_c   6.52859735
_cell_angle_alpha   81.81588745
_cell_angle_beta   67.41544342
_cell_angle_gamma   67.41545868
_symmetry_Int_Tables_number   1
_chemical_formula_structural   Al
_chemical_formula_sum   Al13
_cell_volume   182.20655732
_cell_formula_units_Z   13
loop_
 _symmetry_equiv_pos_site_id
 _symmetry_equiv_pos_as_xyz
  1  'x, y, z'
loop_
 _atom_site_type_symbol
 _atom_site_label
 _atom_site_symmetry_multiplicity
 _atom_site_fract_x
 _atom_site_fract_y
 _atom_site_fract_z
 _atom_site_occupancy
  Al  Al0  1  0.00000000  0.00028100  0.99971899  1
  Al  Al1  1  0.00000002  0.34045500  0.65954499  1
  Al  Al2  1  1.00000004  0.65412801  0.34587202  1
  Al  Al3  1  0.65989202  0.33507900  0.34513702  1
  Al  Al4  1  0.34010803  0.65486301  0.66492100  1
  Al  Al5  1  0.50000004  0.80119801  0.19880201  1
  Al  Al6  1  0.00209404  0.99696701  0.50001798  1
  Al  Al7  1  0.50092105  0.99696701  0.50001800  1
  Al  Al8  1  0.49907903  0.49998201  0.00303301  1
  Al  Al9  1  0.99790603  0.49998201  0.00303303  1
  Al  Al10  1  0.50000002  0.21791400  0.78208601  1
  Al  Al11  1  0.72041404  0.78067801  0.77849401  1
  Al  Al12  1  0.27958601  0.22150600  0.21932201  1
