# generated using pymatgen
data_CaSn
_symmetry_space_group_name_H-M   'P 1'
_cell_length_a   5.15280724
_cell_length_b   7.40620518
_cell_length_c   9.42382622
_cell_angle_alpha   90.00000000
_cell_angle_beta   90.00000000
_cell_angle_gamma   90.00000000
_symmetry_Int_Tables_number   1
_chemical_formula_structural   CaSn
_chemical_formula_sum   'Ca6 Sn6'
_cell_volume   359.63910162
_cell_formula_units_Z   6
loop_
 _symmetry_equiv_pos_site_id
 _symmetry_equiv_pos_as_xyz
  1  'x, y, z'
loop_
 _atom_site_type_symbol
 _atom_site_label
 _atom_site_symmetry_multiplicity
 _atom_site_fract_x
 _atom_site_fract_y
 _atom_site_fract_z
 _atom_site_occupancy
  Ca  Ca0  1  0.24999999  0.49300399  0.17448600  1
  Ca  Ca1  1  0.74999997  0.50699599  0.82551398  1
  Ca  Ca2  1  0.24999999  0.99300398  0.32551399  1
  Ca  Ca3  1  0.74999997  0.00699600  0.67448598  1
  Ca  Ca4  1  0.74999997  0.64992198  0.41370999  1
  Ca  Ca5  1  0.24999999  0.35007799  0.58628999  1
  Sn  Sn6  1  0.74999997  0.14992200  0.08629000  1
  Sn  Sn7  1  0.24999999  0.85007798  0.91370998  1
  Sn  Sn8  1  0.24999999  0.25914399  0.90372498  1
  Sn  Sn9  1  0.74999997  0.74085598  0.09627500  1
  Sn  Sn10  1  0.24999999  0.75914398  0.59627499  1
  Sn  Sn11  1  0.74999997  0.24085599  0.40372499  1
