# generated using pymatgen
data_TlS
_symmetry_space_group_name_H-M   'P 1'
_cell_length_a   4.38139009
_cell_length_b   7.59144878
_cell_length_c   9.80162430
_cell_angle_alpha   75.03575897
_cell_angle_beta   77.08512115
_cell_angle_gamma   73.22739410
_symmetry_Int_Tables_number   1
_chemical_formula_structural   TlS
_chemical_formula_sum   'Tl5 S5'
_cell_volume   297.62025266
_cell_formula_units_Z   5
loop_
 _symmetry_equiv_pos_site_id
 _symmetry_equiv_pos_as_xyz
  1  'x, y, z'
loop_
 _atom_site_type_symbol
 _atom_site_label
 _atom_site_symmetry_multiplicity
 _atom_site_fract_x
 _atom_site_fract_y
 _atom_site_fract_z
 _atom_site_occupancy
  Tl  Tl0  1  0.00000000  0.00000000  0.00000000  1
  Tl  Tl1  1  0.60005398  0.20021400  0.59967801  1
  Tl  Tl2  1  0.19986898  0.39993999  0.20032200  1
  Tl  Tl3  1  0.80013096  0.60005999  0.79967801  1
  Tl  Tl4  1  0.39994597  0.79978598  0.40032201  1
  S  S5  1  0.20094797  0.89958298  0.69852101  1
  S  S6  1  0.79905198  0.10041700  0.30147901  1
  S  S7  1  0.39898698  0.30302599  0.89900001  1
  S  S8  1  -0.00000001  0.49999999  0.50000000  1
  S  S9  1  0.60101296  0.69697398  0.10100001  1
