# generated using pymatgen
data_LiNi4
_symmetry_space_group_name_H-M   'P 1'
_cell_length_a   3.93008208
_cell_length_b   3.93008208
_cell_length_c   4.87154007
_cell_angle_alpha   90.00000000
_cell_angle_beta   90.00000000
_cell_angle_gamma   120.00000000
_symmetry_Int_Tables_number   1
_chemical_formula_structural   LiNi4
_chemical_formula_sum   'Li1 Ni4'
_cell_volume   65.16286234
_cell_formula_units_Z   1
loop_
 _symmetry_equiv_pos_site_id
 _symmetry_equiv_pos_as_xyz
  1  'x, y, z'
loop_
 _atom_site_type_symbol
 _atom_site_label
 _atom_site_symmetry_multiplicity
 _atom_site_fract_x
 _atom_site_fract_y
 _atom_site_fract_z
 _atom_site_occupancy
  Li  Li0  1  0.00000000  0.00000000  0.75814799  1
  Ni  Ni1  1  0.00000000  0.00000000  0.24185200  1
  Ni  Ni2  1  0.66666666  0.33333334  0.49999999  1
  Ni  Ni3  1  0.66666666  0.33333334  0.99999999  1
  Ni  Ni4  1  0.33333334  0.66666668  0.49999999  1
