# generated using pymatgen
data_Li7SbO6
_symmetry_space_group_name_H-M   'P 1'
_cell_length_a   7.48182774
_cell_length_b   7.48182774
_cell_length_c   7.48182774
_cell_angle_alpha   89.78433990
_cell_angle_beta   60.11826706
_cell_angle_gamma   119.86940002
_symmetry_Int_Tables_number   1
_chemical_formula_structural   Li7SbO6
_chemical_formula_sum   'Li7 Sb1 O6'
_cell_volume   296.70225017
_cell_formula_units_Z   1
loop_
 _symmetry_equiv_pos_site_id
 _symmetry_equiv_pos_as_xyz
  1  'x, y, z'
loop_
 _atom_site_type_symbol
 _atom_site_label
 _atom_site_symmetry_multiplicity
 _atom_site_fract_x
 _atom_site_fract_y
 _atom_site_fract_z
 _atom_site_occupancy
  Li  Li0  1  0.49999998  0.99999997  0.50000001  1
  Li  Li1  1  -0.00000000  0.49999999  0.49999999  1
  Li  Li2  1  0.24999999  0.37160099  0.87839898  1
  Li  Li3  1  0.74999997  0.62839898  0.12160102  1
  Li  Li4  1  0.00000000  0.00000000  0.49999999  1
  Li  Li5  1  0.49999998  0.99999997  0.00000002  1
  Li  Li6  1  0.00460300  0.75619698  0.24840700  1
  O  O7  1  0.49539698  0.24699099  0.24840600  1
  O  O8  1  0.49606098  0.75602498  0.24791301  1
  O  O9  1  0.00393900  0.75602598  0.74003499  1
  Sb  Sb10  1  0.99539696  0.24380299  0.75159300  1
  O  O11  1  0.50460298  0.75300898  0.75159400  1
  O  O12  1  0.50393898  0.24397499  0.75208699  1
  O  O13  1  0.99606096  0.24397399  0.25996501  1
