# generated using pymatgen
data_U7NbGe4Mo3
_symmetry_space_group_name_H-M   'P 1'
_cell_length_a   3.66438198
_cell_length_b   10.81750870
_cell_length_c   10.82107639
_cell_angle_alpha   119.98844910
_cell_angle_beta   90.00000000
_cell_angle_gamma   90.00000000
_symmetry_Int_Tables_number   1
_chemical_formula_structural   U7NbGe4Mo3
_chemical_formula_sum   'U7 Nb1 Ge4 Mo3'
_cell_volume   371.51779836
_cell_formula_units_Z   1
loop_
 _symmetry_equiv_pos_site_id
 _symmetry_equiv_pos_as_xyz
  1  'x, y, z'
loop_
 _atom_site_type_symbol
 _atom_site_label
 _atom_site_symmetry_multiplicity
 _atom_site_fract_x
 _atom_site_fract_y
 _atom_site_fract_z
 _atom_site_occupancy
  U  U0  1  0.25000000  0.48746101  0.38568101  1
  U  U1  1  0.25000000  0.89826202  0.51256002  1
  U  U2  1  0.25000000  0.61434301  0.10181800  1
  U  U3  1  0.75000000  0.50952801  0.61122302  1
  U  U4  1  0.75000000  0.10172800  0.49053702  1
  U  U5  1  0.75000000  0.38886801  0.89824403  1
  U  U6  1  0.25000000  0.99960702  0.99987903  1
  Nb  Nb7  1  0.25000000  0.33333334  0.66666669  1
  Mo  Mo8  1  0.75000000  0.66666668  0.33333334  1
  Mo  Mo9  1  0.25000000  0.33814001  0.06320700  1
  Ge  Ge10  1  0.25000000  0.72499902  0.66178102  1
  Ge  Ge11  1  0.25000000  0.93680002  0.27501101  1
  Ge  Ge12  1  0.75000000  0.66510101  0.93643403  1
  Mo  Mo13  1  0.75000000  0.27147301  0.33503201  1
  Ge  Ge14  1  0.75000000  0.06361500  0.72858703  1
