# generated using pymatgen
data_Li4Ti3WO12
_symmetry_space_group_name_H-M   'P 1'
_cell_length_a   5.36070919
_cell_length_b   5.67189121
_cell_length_c   7.73144674
_cell_angle_alpha   90.00000000
_cell_angle_beta   90.05492401
_cell_angle_gamma   90.00000000
_symmetry_Int_Tables_number   1
_chemical_formula_structural   Li4Ti3WO12
_chemical_formula_sum   'Li4 Ti3 W1 O12'
_cell_volume   235.07730850
_cell_formula_units_Z   1
loop_
 _symmetry_equiv_pos_site_id
 _symmetry_equiv_pos_as_xyz
  1  'x, y, z'
loop_
 _atom_site_type_symbol
 _atom_site_label
 _atom_site_symmetry_multiplicity
 _atom_site_fract_x
 _atom_site_fract_y
 _atom_site_fract_z
 _atom_site_occupancy
  Li  Li0  1  0.48022498  0.56957498  0.24966601  1
  Li  Li1  1  0.01977500  0.06957500  0.25033399  1
  Li  Li2  1  0.51977498  0.43042498  0.75033400  1
  Li  Li3  1  0.98022497  0.93042497  0.74966602  1
  Ti  Ti4  1  0.49999998  0.00000000  0.50000001  1
  Ti  Ti5  1  -0.00000000  0.49999998  -0.00000000  1
  Ti  Ti6  1  0.49999998  0.00000000  0.00000002  1
  W  W7  1  -0.00000000  0.49999998  0.49999999  1
  O  O8  1  0.61377398  0.95969196  0.24878802  1
  O  O9  1  0.88622597  0.45969198  0.25121203  1
  O  O10  1  0.38622599  0.04030800  0.75121200  1
  O  O11  1  0.11377400  0.54030798  0.74878799  1
  O  O12  1  0.19077699  0.80355097  0.05710601  1
  O  O13  1  0.30922299  0.30355099  0.44289400  1
  O  O14  1  0.81205397  0.19736699  0.55799802  1
  O  O15  1  0.68794598  0.69736697  0.94200200  1
  O  O16  1  0.80922297  0.19644899  0.94289401  1
  O  O17  1  0.69077698  0.69644897  0.55710601  1
  O  O18  1  0.18794599  0.80263297  0.44200200  1
  O  O19  1  0.31205399  0.30263299  0.05799801  1
