# generated using pymatgen
data_Ce7Sn(BiO)6
_symmetry_space_group_name_H-M   'P 1'
_cell_length_a   8.20843983
_cell_length_b   8.20843983
_cell_length_c   8.20843983
_cell_angle_alpha   109.47122192
_cell_angle_beta   109.47122192
_cell_angle_gamma   109.47122192
_symmetry_Int_Tables_number   1
_chemical_formula_structural   Ce7Sn(BiO)6
_chemical_formula_sum   'Ce7 Sn1 Bi6 O6'
_cell_volume   425.75518451
_cell_formula_units_Z   1
loop_
 _symmetry_equiv_pos_site_id
 _symmetry_equiv_pos_as_xyz
  1  'x, y, z'
loop_
 _atom_site_type_symbol
 _atom_site_label
 _atom_site_symmetry_multiplicity
 _atom_site_fract_x
 _atom_site_fract_y
 _atom_site_fract_z
 _atom_site_occupancy
  Ce  Ce0  1  0.50000003  0.25000001  0.75000003  1
  Ce  Ce1  1  0.50000006  0.75000004  0.25000006  1
  Ce  Ce2  1  0.75000003  0.25000001  0.50000004  1
  Ce  Ce3  1  0.25000005  0.75000004  0.50000005  1
  Bi  Bi4  1  0.75000005  0.50000003  0.25000005  1
  Ce  Ce5  1  0.25000004  0.50000003  0.75000004  1
  Ce  Ce6  1  0.67780206  0.67780203  0.67780206  1
  Ce  Ce7  1  0.00000000  0.00000000  0.67780201  1
  Bi  Bi8  1  1.00000006  0.67780203  0.00000006  1
  Bi  Bi9  1  0.67780201  0.00000000  0.00000002  1
  Sn  Sn10  1  1.00000004  0.32219802  1.00000005  1
  Bi  Bi11  1  0.32219801  0.00000000  0.00000001  1
  Bi  Bi12  1  0.00000000  0.00000000  0.32219800  1
  Bi  Bi13  1  0.32219803  0.32219802  0.32219803  1
  O  O14  1  0.65489605  0.65489603  0.00000005  1
  O  O15  1  0.65489601  0.00000000  0.65489602  1
  O  O16  1  0.34510401  0.00000000  0.34510401  1
  O  O17  1  0.00000002  0.34510402  0.34510402  1
  O  O18  1  0.00000004  0.65489603  0.65489604  1
  O  O19  1  0.34510403  0.34510402  0.00000003  1
