# generated using pymatgen
data_CeMgGa6
_symmetry_space_group_name_H-M   'P 1'
_cell_length_a   4.42459583
_cell_length_b   5.52957582
_cell_length_c   6.61152315
_cell_angle_alpha   90.00000000
_cell_angle_beta   90.00000000
_cell_angle_gamma   113.58346558
_symmetry_Int_Tables_number   1
_chemical_formula_structural   CeMgGa6
_chemical_formula_sum   'Ce1 Mg1 Ga6'
_cell_volume   148.24808675
_cell_formula_units_Z   1
loop_
 _symmetry_equiv_pos_site_id
 _symmetry_equiv_pos_as_xyz
  1  'x, y, z'
loop_
 _atom_site_type_symbol
 _atom_site_label
 _atom_site_symmetry_multiplicity
 _atom_site_fract_x
 _atom_site_fract_y
 _atom_site_fract_z
 _atom_site_occupancy
  Mg  Mg0  1  0.41239702  0.82479403  0.74999998  1
  Ce  Ce1  1  0.58760302  0.17520601  0.24999999  1
  Ga  Ga2  1  0.12794901  0.25589801  0.55300399  1
  Ga  Ga3  1  0.87205104  0.74410202  0.44699599  1
  Ga  Ga4  1  0.12794901  0.25589801  0.94699598  1
  Ga  Ga5  1  0.87205104  0.74410202  0.05300400  1
  Ga  Ga6  1  0.70020303  0.40040601  0.74999998  1
  Ga  Ga7  1  0.29979702  0.59959402  0.24999999  1
