# generated using pymatgen
data_CeFe4B2N10O
_symmetry_space_group_name_H-M   'P 1'
_cell_length_a   7.26243782
_cell_length_b   7.35592699
_cell_length_c   7.35592699
_cell_angle_alpha   62.20259094
_cell_angle_beta   60.41954041
_cell_angle_gamma   60.41954041
_symmetry_Int_Tables_number   1
_chemical_formula_structural   CeFe4B2N10O
_chemical_formula_sum   'Ce1 Fe4 B2 N10 O1'
_cell_volume   284.03557150
_cell_formula_units_Z   1
loop_
 _symmetry_equiv_pos_site_id
 _symmetry_equiv_pos_as_xyz
  1  'x, y, z'
loop_
 _atom_site_type_symbol
 _atom_site_label
 _atom_site_symmetry_multiplicity
 _atom_site_fract_x
 _atom_site_fract_y
 _atom_site_fract_z
 _atom_site_occupancy
  Fe  Fe0  1  0.38815203  0.82709101  0.89660499  1
  Ce  Ce1  1  0.61184901  0.10339500  0.17290801  1
  Fe  Fe2  1  1.00000003  0.50365201  0.49634801  1
  Fe  Fe3  1  0.50000002  0.50365201  0.49634800  1
  Fe  Fe4  1  0.98973704  0.98205601  0.53846999  1
  B  B5  1  0.01026302  0.46153001  0.01794398  1
  B  B6  1  0.06710901  0.18356400  0.18221800  1
  O  O7  1  0.67218703  0.58256701  0.57305900  1
  N  N8  1  0.06519901  0.18553700  0.55981800  1
  N  N9  1  0.69081103  0.56431401  0.17814800  1
  N  N10  1  0.06672702  0.56431401  0.17814798  1
  N  N11  1  0.68944601  0.18553800  0.55981802  1
  N  N12  1  0.93289104  0.81778201  0.81643600  1
  N  N13  1  0.32781302  0.42694101  0.41743300  1
  N  N14  1  0.93327304  0.82185201  0.43568600  1
  N  N15  1  0.31055502  0.44018101  0.81446200  1
  N  N16  1  0.93480202  0.44018201  0.81446202  1
  N  N17  1  0.30918903  0.82185201  0.43568598  1
