# generated using pymatgen
data_Ce4Al3Ge13
_symmetry_space_group_name_H-M   'P 1'
_cell_length_a   4.05138779
_cell_length_b   8.15661907
_cell_length_c   10.64669800
_cell_angle_alpha   90.00000000
_cell_angle_beta   90.00000000
_cell_angle_gamma   90.00000000
_symmetry_Int_Tables_number   1
_chemical_formula_structural   Ce4Al3Ge13
_chemical_formula_sum   'Ce4 Al3 Ge13'
_cell_volume   351.82680966
_cell_formula_units_Z   1
loop_
 _symmetry_equiv_pos_site_id
 _symmetry_equiv_pos_as_xyz
  1  'x, y, z'
loop_
 _atom_site_type_symbol
 _atom_site_label
 _atom_site_symmetry_multiplicity
 _atom_site_fract_x
 _atom_site_fract_y
 _atom_site_fract_z
 _atom_site_occupancy
  Ce  Ce0  1  0.25000001  0.18546800  0.99105600  1
  Ce  Ce1  1  0.75000004  0.31453200  0.49105600  1
  Ce  Ce2  1  0.25000001  0.68546799  0.50894400  1
  Ce  Ce3  1  0.75000004  0.81453199  0.00894400  1
  Ge  Ge4  1  0.75000004  0.44458700  0.91655900  1
  Al  Al5  1  0.25000001  0.55541300  0.08344100  1
  Al  Al6  1  0.75000004  0.94458699  0.58344100  1
  Al  Al7  1  0.25000001  0.05541300  0.41655900  1
  Ge  Ge8  1  0.75000004  0.61481499  0.28603700  1
  Ge  Ge9  1  0.25000001  0.88518499  0.78603700  1
  Ge  Ge10  1  0.75000004  0.11481500  0.21396300  1
  Ge  Ge11  1  0.25000001  0.35589900  0.27796900  1
  Ge  Ge12  1  0.75000004  0.64410099  0.72203100  1
  Ge  Ge13  1  0.25000001  0.85589899  0.22203100  1
  Ge  Ge14  1  0.25000001  0.38518500  0.71396300  1
  Ge  Ge15  1  0.75000004  0.14410100  0.77796900  1
  Ge  Ge16  1  0.75000004  0.89406099  0.35683600  1
  Ge  Ge17  1  0.75000004  0.39406100  0.14316400  1
  Ge  Ge18  1  0.25000001  0.60593899  0.85683600  1
  Ge  Ge19  1  0.25000001  0.10593900  0.64316400  1
