# generated using pymatgen
data_Fe3Ni7
_symmetry_space_group_name_H-M   'P 1'
_cell_length_a   3.40402603
_cell_length_b   5.75646019
_cell_length_c   5.75646019
_cell_angle_alpha   90.00000000
_cell_angle_beta   90.00000000
_cell_angle_gamma   90.00000000
_symmetry_Int_Tables_number   1
_chemical_formula_structural   Fe3Ni7
_chemical_formula_sum   'Fe3 Ni7'
_cell_volume   112.79864525
_cell_formula_units_Z   1
loop_
 _symmetry_equiv_pos_site_id
 _symmetry_equiv_pos_as_xyz
  1  'x, y, z'
loop_
 _atom_site_type_symbol
 _atom_site_label
 _atom_site_symmetry_multiplicity
 _atom_site_fract_x
 _atom_site_fract_y
 _atom_site_fract_z
 _atom_site_occupancy
  Fe  Fe0  1  0.50000000  0.67969898  0.17969899  1
  Fe  Fe1  1  0.50000000  0.32030099  0.82030097  1
  Fe  Fe2  1  0.50000000  0.17969899  0.32030099  1
  Ni  Ni3  1  0.50000000  0.82030097  0.67969898  1
  Ni  Ni4  1  -0.00000000  0.49999998  0.49999998  1
  Ni  Ni5  1  0.00000000  0.00000000  0.00000000  1
  Ni  Ni6  1  0.00000000  0.11466500  0.61466498  1
  Ni  Ni7  1  0.00000000  0.88533497  0.38533499  1
  Ni  Ni8  1  0.00000000  0.61466498  0.88533497  1
  Ni  Ni9  1  -0.00000000  0.38533499  0.11466500  1
