# generated using pymatgen
data_KLi6Br7
_symmetry_space_group_name_H-M   'P 1'
_cell_length_a   6.46951818
_cell_length_b   6.46951818
_cell_length_c   11.09066963
_cell_angle_alpha   90.00000000
_cell_angle_beta   90.00000000
_cell_angle_gamma   117.18815613
_symmetry_Int_Tables_number   1
_chemical_formula_structural   KLi6Br7
_chemical_formula_sum   'K1 Li6 Br7'
_cell_volume   412.90761378
_cell_formula_units_Z   1
loop_
 _symmetry_equiv_pos_site_id
 _symmetry_equiv_pos_as_xyz
  1  'x, y, z'
loop_
 _atom_site_type_symbol
 _atom_site_label
 _atom_site_symmetry_multiplicity
 _atom_site_fract_x
 _atom_site_fract_y
 _atom_site_fract_z
 _atom_site_occupancy
  Li  Li0  1  0.94957499  0.94957500  0.50000002  1
  Li  Li1  1  0.94957499  0.94957500  -0.00000000  1
  Li  Li2  1  0.67545700  0.25175100  0.25000001  1
  Li  Li3  1  0.25175100  0.67545700  0.75000002  1
  Li  Li4  1  0.33045400  0.67325400  0.25000001  1
  Li  Li5  1  0.67325400  0.33045400  0.75000002  1
  K  K6  1  0.46930699  0.99966000  0.41825201  1
  Br  Br7  1  0.99966000  0.46930700  0.58174802  1
  Br  Br8  1  0.75291600  0.64857500  0.25000001  1
  Br  Br9  1  0.64857499  0.75291600  0.75000002  1
  Br  Br10  1  0.46930699  0.99966000  0.08174800  1
  Br  Br11  1  0.99966000  0.46930700  0.91825203  1
  Br  Br12  1  0.05732200  0.25398700  0.25000001  1
  Br  Br13  1  0.25398700  0.05732200  0.75000002  1
