# generated using pymatgen
data_Ce2Al4Si5
_symmetry_space_group_name_H-M   'P 1'
_cell_length_a   4.14255190
_cell_length_b   6.54192400
_cell_length_c   7.87347221
_cell_angle_alpha   114.54708099
_cell_angle_beta   105.25231934
_cell_angle_gamma   90.00000000
_symmetry_Int_Tables_number   1
_chemical_formula_structural   Ce2Al4Si5
_chemical_formula_sum   'Ce2 Al4 Si5'
_cell_volume   185.79434259
_cell_formula_units_Z   1
loop_
 _symmetry_equiv_pos_site_id
 _symmetry_equiv_pos_as_xyz
  1  'x, y, z'
loop_
 _atom_site_type_symbol
 _atom_site_label
 _atom_site_symmetry_multiplicity
 _atom_site_fract_x
 _atom_site_fract_y
 _atom_site_fract_z
 _atom_site_occupancy
  Ce  Ce0  1  0.62975603  0.12975600  0.25951201  1
  Ce  Ce1  1  0.37024404  0.87024399  0.74048798  1
  Al  Al2  1  0.50000003  0.49999999  0.00000000  1
  Al  Al3  1  0.16849802  0.47831200  0.33699499  1
  Al  Al4  1  0.83150304  0.14131700  0.66300601  1
  Si  Si5  1  0.16849703  0.85868299  0.33699398  1
  Al  Al6  1  0.83150205  0.52168799  0.66300500  1
  Si  Si7  1  1.00000004  0.18433200  1.00000001  1
  Si  Si8  1  1.00000006  0.81566799  0.99999999  1
  Si  Si9  1  0.71619605  0.71619599  0.43239200  1
  Si  Si10  1  0.28380402  0.28380400  0.56760799  1
