# generated using pymatgen
data_Hf4Ni2Ru3Rh4
_symmetry_space_group_name_H-M   'P 1'
_cell_length_a   5.28785610
_cell_length_b   5.28785610
_cell_length_c   8.68160343
_cell_angle_alpha   90.00000000
_cell_angle_beta   90.00000000
_cell_angle_gamma   120.00000000
_symmetry_Int_Tables_number   1
_chemical_formula_structural   Hf4Ni2Ru3Rh4
_chemical_formula_sum   'Hf4 Ni2 Ru3 Rh4'
_cell_volume   210.22764818
_cell_formula_units_Z   1
loop_
 _symmetry_equiv_pos_site_id
 _symmetry_equiv_pos_as_xyz
  1  'x, y, z'
loop_
 _atom_site_type_symbol
 _atom_site_label
 _atom_site_symmetry_multiplicity
 _atom_site_fract_x
 _atom_site_fract_y
 _atom_site_fract_z
 _atom_site_occupancy
  Hf  Hf0  1  0.00000000  0.00000000  0.00000000  1
  Hf  Hf1  1  0.49999999  0.00000000  0.23243099  1
  Hf  Hf2  1  0.49999999  0.00000000  0.76756896  1
  Hf  Hf3  1  0.00000002  0.50000003  0.23243099  1
  Ni  Ni4  1  0.00000002  0.50000003  0.76756896  1
  Ni  Ni5  1  0.50000001  0.50000003  0.23243099  1
  Ru  Ru6  1  0.50000001  0.50000003  0.76756896  1
  Rh  Rh7  1  0.33333335  0.66666671  0.49999998  1
  Rh  Rh8  1  0.66666667  0.33333335  0.49999998  1
  Ru  Ru9  1  0.00000000  0.00000000  0.33714498  1
  Ru  Ru10  1  0.00000000  0.00000000  0.66285497  1
  Rh  Rh11  1  0.33333335  0.66666671  -0.00000000  1
  Rh  Rh12  1  0.66666667  0.33333335  -0.00000000  1
