# generated using pymatgen
data_Nd9Sn7
_symmetry_space_group_name_H-M   'P 1'
_cell_length_a   6.38433790
_cell_length_b   8.48770809
_cell_length_c   8.48770714
_cell_angle_alpha   120.00000000
_cell_angle_beta   90.00000000
_cell_angle_gamma   90.00000000
_symmetry_Int_Tables_number   1
_chemical_formula_structural   Nd9Sn7
_chemical_formula_sum   'Nd9 Sn7'
_cell_volume   398.31560153
_cell_formula_units_Z   1
loop_
 _symmetry_equiv_pos_site_id
 _symmetry_equiv_pos_as_xyz
  1  'x, y, z'
loop_
 _atom_site_type_symbol
 _atom_site_label
 _atom_site_symmetry_multiplicity
 _atom_site_fract_x
 _atom_site_fract_y
 _atom_site_fract_z
 _atom_site_occupancy
  Nd  Nd0  1  -0.00000000  0.33333332  0.66666667  1
  Nd  Nd1  1  1.00000002  0.66666664  0.33333331  1
  Nd  Nd2  1  0.50000001  0.66666664  0.33333331  1
  Nd  Nd3  1  0.50000001  0.33333332  0.66666667  1
  Nd  Nd4  1  0.25000000  0.24357699  -0.00000001  1
  Nd  Nd5  1  0.25000000  0.75642297  0.75642298  1
  Nd  Nd6  1  0.25000000  0.99999996  0.24357696  1
  Nd  Nd7  1  0.75000001  0.75642297  -0.00000004  1
  Sn  Sn8  1  0.75000001  0.24357699  0.24357699  1
  Nd  Nd9  1  0.75000001  0.99999996  0.75642297  1
  Sn  Sn10  1  0.25000000  0.60847798  -0.00000003  1
  Sn  Sn11  1  0.25000000  0.39152199  0.39152199  1
  Sn  Sn12  1  0.25000000  0.99999996  0.60847796  1
  Sn  Sn13  1  0.75000001  0.39152199  -0.00000002  1
  Sn  Sn14  1  0.75000001  0.60847798  0.60847798  1
  Sn  Sn15  1  0.75000001  0.99999996  0.39152196  1
