# generated using pymatgen
data_GaNi2
_symmetry_space_group_name_H-M   'P 1'
_cell_length_a   4.11713123
_cell_length_b   4.11713123
_cell_length_c   6.25998402
_cell_angle_alpha   90.00000000
_cell_angle_beta   90.00000000
_cell_angle_gamma   90.00000000
_symmetry_Int_Tables_number   1
_chemical_formula_structural   GaNi2
_chemical_formula_sum   'Ga2 Ni4'
_cell_volume   106.11154671
_cell_formula_units_Z   2
loop_
 _symmetry_equiv_pos_site_id
 _symmetry_equiv_pos_as_xyz
  1  'x, y, z'
loop_
 _atom_site_type_symbol
 _atom_site_label
 _atom_site_symmetry_multiplicity
 _atom_site_fract_x
 _atom_site_fract_y
 _atom_site_fract_z
 _atom_site_occupancy
  Ga  Ga0  1  0.00000000  0.00000000  0.00000000  1
  Ga  Ga1  1  0.49999997  0.49999997  0.50000000  1
  Ni  Ni2  1  0.49999997  0.00000000  0.71411600  1
  Ni  Ni3  1  0.00000000  0.49999997  0.28588400  1
  Ni  Ni4  1  0.49999997  0.00000000  0.28588400  1
  Ni  Ni5  1  0.00000000  0.49999997  0.71411600  1
