# generated using pymatgen
data_SmErLuNi2
_symmetry_space_group_name_H-M   'P 1'
_cell_length_a   4.10429192
_cell_length_b   5.49920416
_cell_length_c   5.49920416
_cell_angle_alpha   60.07125854
_cell_angle_beta   68.08865356
_cell_angle_gamma   68.08865356
_symmetry_Int_Tables_number   1
_chemical_formula_structural   SmErLuNi2
_chemical_formula_sum   'Sm1 Er1 Lu1 Ni2'
_cell_volume   97.06060359
_cell_formula_units_Z   1
loop_
 _symmetry_equiv_pos_site_id
 _symmetry_equiv_pos_as_xyz
  1  'x, y, z'
loop_
 _atom_site_type_symbol
 _atom_site_label
 _atom_site_symmetry_multiplicity
 _atom_site_fract_x
 _atom_site_fract_y
 _atom_site_fract_z
 _atom_site_occupancy
  Er  Er0  1  0.79351499  0.70648499  0.70648497  1
  Lu  Lu1  1  0.20648499  0.29351500  0.29351499  1
  Sm  Sm2  1  0.00000000  0.00000000  0.00000000  1
  Ni  Ni3  1  0.49999998  0.71368599  0.28631399  1
  Ni  Ni4  1  0.50000001  0.28631400  0.71368597  1
