# generated using pymatgen
data_TeH2IO8
_symmetry_space_group_name_H-M   'P 1'
_cell_length_a   4.84806681
_cell_length_b   4.88067722
_cell_length_c   6.60086489
_cell_angle_alpha   90.00000000
_cell_angle_beta   90.00000000
_cell_angle_gamma   90.00000000
_symmetry_Int_Tables_number   1
_chemical_formula_structural   TeH2IO8
_chemical_formula_sum   'Te1 H2 I1 O8'
_cell_volume   156.18866982
_cell_formula_units_Z   1
loop_
 _symmetry_equiv_pos_site_id
 _symmetry_equiv_pos_as_xyz
  1  'x, y, z'
loop_
 _atom_site_type_symbol
 _atom_site_label
 _atom_site_symmetry_multiplicity
 _atom_site_fract_x
 _atom_site_fract_y
 _atom_site_fract_z
 _atom_site_occupancy
  H  H0  1  0.87062503  0.76586596  0.50000001  1
  Te  Te1  1  0.12937501  0.26586599  0.00000000  1
  H  H2  1  0.32836801  0.22935299  0.50000001  1
  I  I3  1  0.67163203  0.72935297  0.00000000  1
  O  O4  1  0.81227503  0.60138197  0.81984301  1
  O  O5  1  0.18772501  0.10138200  0.68015701  1
  O  O6  1  0.18772501  0.10138200  0.31984301  1
  O  O7  1  0.81227503  0.60138197  0.18015700  1
  O  O8  1  0.37326401  0.66602897  0.00000000  1
  O  O9  1  0.62673602  0.16602899  0.50000001  1
  O  O10  1  0.70496903  0.03158900  0.00000000  1
  O  O11  1  0.29503101  0.53158898  0.50000001  1
