# generated using pymatgen
data_UGe2
_symmetry_space_group_name_H-M   'P 1'
_cell_length_a   3.91140103
_cell_length_b   6.64267206
_cell_length_c   6.64267159
_cell_angle_alpha   120.00000000
_cell_angle_beta   90.00000000
_cell_angle_gamma   90.00000000
_symmetry_Int_Tables_number   1
_chemical_formula_structural   UGe2
_chemical_formula_sum   'U3 Ge6'
_cell_volume   149.46811992
_cell_formula_units_Z   3
loop_
 _symmetry_equiv_pos_site_id
 _symmetry_equiv_pos_as_xyz
  1  'x, y, z'
loop_
 _atom_site_type_symbol
 _atom_site_label
 _atom_site_symmetry_multiplicity
 _atom_site_fract_x
 _atom_site_fract_y
 _atom_site_fract_z
 _atom_site_occupancy
  U  U0  1  0.50000000  0.57819398  -0.00000004  1
  U  U1  1  0.50000000  0.42180598  0.42180596  1
  U  U2  1  0.50000000  0.00000000  0.57819398  1
  Ge  Ge3  1  0.99999999  0.33333332  0.66666663  1
  Ge  Ge4  1  -0.00000000  0.66666664  0.33333328  1
  Ge  Ge5  1  0.50000000  0.00000000  -0.00000000  1
  Ge  Ge6  1  -0.00000000  0.24860599  -0.00000002  1
  Ge  Ge7  1  0.99999999  0.75139397  0.75139393  1
  Ge  Ge8  1  -0.00000000  0.99999996  0.24860593  1
