# generated using pymatgen
data_Li2MnO4
_symmetry_space_group_name_H-M   'P 1'
_cell_length_a   5.40832806
_cell_length_b   5.44929028
_cell_length_c   7.15836191
_cell_angle_alpha   90.00000000
_cell_angle_beta   90.00000000
_cell_angle_gamma   116.71965027
_symmetry_Int_Tables_number   1
_chemical_formula_structural   Li2MnO4
_chemical_formula_sum   'Li4 Mn2 O8'
_cell_volume   188.44026941
_cell_formula_units_Z   2
loop_
 _symmetry_equiv_pos_site_id
 _symmetry_equiv_pos_as_xyz
  1  'x, y, z'
loop_
 _atom_site_type_symbol
 _atom_site_label
 _atom_site_symmetry_multiplicity
 _atom_site_fract_x
 _atom_site_fract_y
 _atom_site_fract_z
 _atom_site_occupancy
  Li  Li0  1  0.28062201  0.65862200  0.25000000  1
  Li  Li1  1  0.71937800  0.34137800  0.75000001  1
  Li  Li2  1  0.00000000  0.00000000  0.50000001  1
  Li  Li3  1  0.00000000  0.00000000  0.00000000  1
  Mn  Mn4  1  0.37716401  0.66785300  0.75000001  1
  Mn  Mn5  1  0.62283600  0.33214700  0.25000000  1
  O  O6  1  0.71057001  0.76662600  0.75000001  1
  O  O7  1  0.28943000  0.23337400  0.25000000  1
  O  O8  1  0.80407501  0.66725500  0.25000000  1
  O  O9  1  0.19592501  0.33274500  0.75000001  1
  O  O10  1  0.28825602  0.78442900  0.55972101  1
  O  O11  1  0.71174400  0.21557100  0.05972100  1
  O  O12  1  0.71174400  0.21557100  0.44027901  1
  O  O13  1  0.28825602  0.78442900  0.94027901  1
