# generated using pymatgen
data_Y3LuGe5
_symmetry_space_group_name_H-M   'P 1'
_cell_length_a   3.90944695
_cell_length_b   7.24622822
_cell_length_c   7.24622774
_cell_angle_alpha   120.00000000
_cell_angle_beta   90.00000000
_cell_angle_gamma   90.00000000
_symmetry_Int_Tables_number   1
_chemical_formula_structural   Y3LuGe5
_chemical_formula_sum   'Y3 Lu1 Ge5'
_cell_volume   177.77469562
_cell_formula_units_Z   1
loop_
 _symmetry_equiv_pos_site_id
 _symmetry_equiv_pos_as_xyz
  1  'x, y, z'
loop_
 _atom_site_type_symbol
 _atom_site_label
 _atom_site_symmetry_multiplicity
 _atom_site_fract_x
 _atom_site_fract_y
 _atom_site_fract_z
 _atom_site_occupancy
  Y  Y0  1  0.50000001  0.59417597  -0.00000003  1
  Y  Y1  1  0.50000001  0.40582398  0.40582397  1
  Lu  Lu2  1  0.50000001  0.99999995  0.59417594  1
  Y  Y3  1  0.50000001  0.00000000  -0.00000000  1
  Ge  Ge4  1  -0.00000000  0.33333332  0.66666663  1
  Ge  Ge5  1  -0.00000000  0.66666663  0.33333330  1
  Ge  Ge6  1  -0.00000000  0.25973799  0.99999996  1
  Ge  Ge7  1  -0.00000000  0.74026196  0.74026195  1
  Ge  Ge8  1  1.00000001  0.99999995  0.25973795  1
