# generated using pymatgen
data_CeMg2SnPd2
_symmetry_space_group_name_H-M   'P 1'
_cell_length_a   4.90069580
_cell_length_b   4.90069580
_cell_length_c   6.17185783
_cell_angle_alpha   90.00000000
_cell_angle_beta   90.00000000
_cell_angle_gamma   120.00000000
_symmetry_Int_Tables_number   1
_chemical_formula_structural   CeMg2SnPd2
_chemical_formula_sum   'Ce1 Mg2 Sn1 Pd2'
_cell_volume   128.36955523
_cell_formula_units_Z   1
loop_
 _symmetry_equiv_pos_site_id
 _symmetry_equiv_pos_as_xyz
  1  'x, y, z'
loop_
 _atom_site_type_symbol
 _atom_site_label
 _atom_site_symmetry_multiplicity
 _atom_site_fract_x
 _atom_site_fract_y
 _atom_site_fract_z
 _atom_site_occupancy
  Ce  Ce0  1  0.00000000  0.00000000  0.50000001  1
  Mg  Mg1  1  0.00000000  0.00000000  0.00000000  1
  Mg  Mg2  1  0.66666668  0.33333333  0.25000001  1
  Sn  Sn3  1  0.33333333  0.66666666  0.75000002  1
  Pd  Pd4  1  0.66666668  0.33333333  0.75000002  1
  Pd  Pd5  1  0.33333333  0.66666666  0.25000001  1
