# generated using pymatgen
data_Li3CoO4
_symmetry_space_group_name_H-M   'P 1'
_cell_length_a   4.99063778
_cell_length_b   5.79947758
_cell_length_c   5.90917683
_cell_angle_alpha   60.70973206
_cell_angle_beta   88.16382599
_cell_angle_gamma   73.02309418
_symmetry_Int_Tables_number   1
_chemical_formula_structural   Li3CoO4
_chemical_formula_sum   'Li6 Co2 O8'
_cell_volume   141.39953794
_cell_formula_units_Z   2
loop_
 _symmetry_equiv_pos_site_id
 _symmetry_equiv_pos_as_xyz
  1  'x, y, z'
loop_
 _atom_site_type_symbol
 _atom_site_label
 _atom_site_symmetry_multiplicity
 _atom_site_fract_x
 _atom_site_fract_y
 _atom_site_fract_z
 _atom_site_occupancy
  Li  Li0  1  0.49999997  0.50000000  0.25000001  1
  Li  Li1  1  0.98966797  0.50363400  0.99986100  1
  Li  Li2  1  0.01033196  0.49636600  0.50013900  1
  Li  Li3  1  0.49999997  0.50000000  0.75000000  1
  Li  Li4  1  0.50000000  0.00000000  0.74999999  1
  Li  Li5  1  0.00117900  0.00500600  0.99095699  1
  Co  Co6  1  0.99882094  0.99499400  0.50904301  1
  Co  Co7  1  0.50000000  0.00000000  0.25000000  1
  O  O8  1  0.22505895  0.76665600  0.88086300  1
  O  O9  1  0.76532295  0.78079900  0.60002001  1
  O  O10  1  0.76148095  0.78236600  0.12005601  1
  O  O11  1  0.24710795  0.76095800  0.38518401  1
  O  O12  1  0.77494099  0.23334400  0.61913700  1
  O  O13  1  0.23851899  0.21763400  0.37994400  1
  O  O14  1  0.23467699  0.21920100  0.89997999  1
  O  O15  1  0.75289199  0.23904200  0.11481600  1
