# generated using pymatgen
data_Li3FeO4
_symmetry_space_group_name_H-M   'P 1'
_cell_length_a   5.38113785
_cell_length_b   6.36848593
_cell_length_c   8.21624374
_cell_angle_alpha   107.65119171
_cell_angle_beta   90.00000000
_cell_angle_gamma   114.99137115
_symmetry_Int_Tables_number   1
_chemical_formula_structural   Li3FeO4
_chemical_formula_sum   'Li6 Fe2 O8'
_cell_volume   240.50045312
_cell_formula_units_Z   2
loop_
 _symmetry_equiv_pos_site_id
 _symmetry_equiv_pos_as_xyz
  1  'x, y, z'
loop_
 _atom_site_type_symbol
 _atom_site_label
 _atom_site_symmetry_multiplicity
 _atom_site_fract_x
 _atom_site_fract_y
 _atom_site_fract_z
 _atom_site_occupancy
  Li  Li0  1  0.00000000  0.00000000  0.49999999  1
  Li  Li1  1  0.00000000  0.00000000  0.00000000  1
  Li  Li2  1  0.37146406  0.66770606  0.68233803  1
  Li  Li3  1  0.70375805  0.33229403  0.81766200  1
  Li  Li4  1  0.29624206  0.66770606  0.18233804  1
  Li  Li5  1  0.62853604  0.33229403  0.31766201  1
  O  O6  1  0.85813404  0.22544902  0.47913000  1
  O  O7  1  0.14186606  0.77455107  0.52087004  1
  O  O8  1  0.38223303  0.31091203  0.62541001  1
  O  O9  1  0.80612002  0.00000000  0.74999999  1
  Fe  Fe10  1  0.07132106  0.68908806  0.87459002  1
  Fe  Fe11  1  0.36731503  0.22544902  0.97913000  1
  O  O12  1  0.63268508  0.77455107  0.02087005  1
  O  O13  1  0.92867905  0.31091203  0.12541002  1
  O  O14  1  0.19388001  0.00000000  0.25000000  1
  O  O15  1  0.61776707  0.68908806  0.37459003  1
