# generated using pymatgen
data_Ce2SiGe5
_symmetry_space_group_name_H-M   'P 1'
_cell_length_a   4.13202190
_cell_length_b   4.18946695
_cell_length_c   8.50526524
_cell_angle_alpha   90.00000000
_cell_angle_beta   104.05833435
_cell_angle_gamma   90.00000000
_symmetry_Int_Tables_number   1
_chemical_formula_structural   Ce2SiGe5
_chemical_formula_sum   'Ce2 Si1 Ge5'
_cell_volume   142.82455531
_cell_formula_units_Z   1
loop_
 _symmetry_equiv_pos_site_id
 _symmetry_equiv_pos_as_xyz
  1  'x, y, z'
loop_
 _atom_site_type_symbol
 _atom_site_label
 _atom_site_symmetry_multiplicity
 _atom_site_fract_x
 _atom_site_fract_y
 _atom_site_fract_z
 _atom_site_occupancy
  Ce  Ce0  1  0.89183002  0.25000000  0.78365997  1
  Ce  Ce1  1  0.10817000  0.75000001  0.21633999  1
  Si  Si2  1  0.68130201  0.25000000  0.36260398  1
  Ge  Ge3  1  0.31869801  0.75000001  0.63739597  1
  Ge  Ge4  1  0.54458201  0.25000000  0.08916400  1
  Ge  Ge5  1  0.45541801  0.75000001  0.91083596  1
  Ge  Ge6  1  0.25166601  0.25000000  0.50333198  1
  Ge  Ge7  1  0.74833402  0.75000001  0.49666798  1
