# generated using pymatgen
data_Ta(TiNi2)5
_symmetry_space_group_name_H-M   'P 1'
_cell_length_a   4.04134512
_cell_length_b   5.49922180
_cell_length_c   10.49367714
_cell_angle_alpha   90.00000000
_cell_angle_beta   90.00000000
_cell_angle_gamma   90.00000000
_symmetry_Int_Tables_number   1
_chemical_formula_structural   Ta(TiNi2)5
_chemical_formula_sum   'Ta1 Ti5 Ni10'
_cell_volume   233.21413763
_cell_formula_units_Z   1
loop_
 _symmetry_equiv_pos_site_id
 _symmetry_equiv_pos_as_xyz
  1  'x, y, z'
loop_
 _atom_site_type_symbol
 _atom_site_label
 _atom_site_symmetry_multiplicity
 _atom_site_fract_x
 _atom_site_fract_y
 _atom_site_fract_z
 _atom_site_occupancy
  Ta  Ta0  1  0.49999999  0.89200803  0.34862700  1
  Ti  Ti1  1  -0.00000000  0.50000002  0.49999999  1
  Ti  Ti2  1  0.49999999  0.39200801  0.15137300  1
  Ti  Ti3  1  0.49999999  0.10799200  0.65137299  1
  Ti  Ti4  1  0.49999999  0.60799202  0.84862699  1
  Ti  Ti5  1  0.00000000  0.00000000  0.00000000  1
  Ni  Ni6  1  0.00000000  0.34980601  0.71779099  1
  Ni  Ni7  1  0.00000000  0.15019401  0.21779100  1
  Ni  Ni8  1  0.00000000  0.84980603  0.78220899  1
  Ni  Ni9  1  0.49999999  0.82881003  0.10670100  1
  Ni  Ni10  1  0.49999999  0.17119001  0.89329899  1
  Ni  Ni11  1  0.49999999  0.67119002  0.60670099  1
  Ni  Ni12  1  0.00000000  0.00000000  0.49999999  1
  Ni  Ni13  1  0.49999999  0.32881001  0.39329899  1
  Ni  Ni14  1  -0.00000000  0.50000002  0.00000000  1
  Ni  Ni15  1  0.00000000  0.65019402  0.28220900  1
