# generated using pymatgen
data_MgGe2
_symmetry_space_group_name_H-M   'P 1'
_cell_length_a   3.78984499
_cell_length_b   3.80088091
_cell_length_c   16.83063316
_cell_angle_alpha   90.00000000
_cell_angle_beta   90.00000000
_cell_angle_gamma   90.00000000
_symmetry_Int_Tables_number   1
_chemical_formula_structural   MgGe2
_chemical_formula_sum   'Mg4 Ge8'
_cell_volume   242.44105413
_cell_formula_units_Z   4
loop_
 _symmetry_equiv_pos_site_id
 _symmetry_equiv_pos_as_xyz
  1  'x, y, z'
loop_
 _atom_site_type_symbol
 _atom_site_label
 _atom_site_symmetry_multiplicity
 _atom_site_fract_x
 _atom_site_fract_y
 _atom_site_fract_z
 _atom_site_occupancy
  Mg  Mg0  1  0.25000000  0.22059901  0.85419404  1
  Mg  Mg1  1  0.25000000  0.27940101  0.35419402  1
  Mg  Mg2  1  0.75000000  0.77940102  0.14580601  1
  Mg  Mg3  1  0.75000000  0.72059902  0.64580603  1
  Ge  Ge4  1  0.75000000  0.22352201  0.50142602  1
  Ge  Ge5  1  0.75000000  0.27647801  0.00142600  1
  Ge  Ge6  1  0.25000000  0.77647802  0.49857402  1
  Ge  Ge7  1  0.25000000  0.72352202  0.99857405  1
  Ge  Ge8  1  0.25000000  0.22044501  0.68741103  1
  Ge  Ge9  1  0.25000000  0.27955501  0.18741101  1
  Ge  Ge10  1  0.75000000  0.77955502  0.31258902  1
  Ge  Ge11  1  0.75000000  0.72044502  0.81258904  1
