# generated using pymatgen
data_Li2FeS4
_symmetry_space_group_name_H-M   'P 1'
_cell_length_a   5.85529947
_cell_length_b   5.90182209
_cell_length_c   6.91194725
_cell_angle_alpha   89.99919891
_cell_angle_beta   89.99816132
_cell_angle_gamma   87.37438202
_symmetry_Int_Tables_number   1
_chemical_formula_structural   Li2FeS4
_chemical_formula_sum   'Li4 Fe2 S8'
_cell_volume   238.60496330
_cell_formula_units_Z   2
loop_
 _symmetry_equiv_pos_site_id
 _symmetry_equiv_pos_as_xyz
  1  'x, y, z'
loop_
 _atom_site_type_symbol
 _atom_site_label
 _atom_site_symmetry_multiplicity
 _atom_site_fract_x
 _atom_site_fract_y
 _atom_site_fract_z
 _atom_site_occupancy
  Li  Li0  1  0.49999799  0.49998999  0.74998401  1
  Li  Li1  1  0.49999799  0.49999099  0.24997402  1
  Li  Li2  1  0.00003497  0.49991199  0.99999298  1
  Li  Li3  1  0.00000697  0.50006299  0.50007499  1
  Fe  Fe4  1  0.99999097  0.99998497  0.99997403  1
  Fe  Fe5  1  0.00000200  0.00001000  0.49998299  1
  S  S6  1  0.67779801  0.26263799  0.99997901  1
  S  S7  1  0.67785801  0.26270499  0.49998002  1
  S  S8  1  0.17119799  0.26196699  0.74998299  1
  S  S9  1  0.17120399  0.26194999  0.25006100  1
  S  S10  1  0.82878398  0.73805498  0.75002703  1
  S  S11  1  0.82877798  0.73806898  0.25001603  1
  S  S12  1  0.32217597  0.73733898  0.49998700  1
  S  S13  1  0.32217197  0.73732798  0.99998299  1
