# generated using pymatgen
data_Na2CuN5
_symmetry_space_group_name_H-M   'P 1'
_cell_length_a   4.64482689
_cell_length_b   6.53080463
_cell_length_c   6.53080463
_cell_angle_alpha   91.14794159
_cell_angle_beta   90.00000000
_cell_angle_gamma   90.00000000
_symmetry_Int_Tables_number   1
_chemical_formula_structural   Na2CuN5
_chemical_formula_sum   'Na4 Cu2 N10'
_cell_volume   198.06865158
_cell_formula_units_Z   2
loop_
 _symmetry_equiv_pos_site_id
 _symmetry_equiv_pos_as_xyz
  1  'x, y, z'
loop_
 _atom_site_type_symbol
 _atom_site_label
 _atom_site_symmetry_multiplicity
 _atom_site_fract_x
 _atom_site_fract_y
 _atom_site_fract_z
 _atom_site_occupancy
  Na  Na0  1  0.00000000  0.00000000  0.50000000  1
  Na  Na1  1  -0.00000000  0.50000000  0.00000003  1
  Na  Na2  1  0.38545401  0.25000000  0.75000001  1
  Na  Na3  1  0.61454601  0.75000000  0.25000004  1
  Cu  Cu4  1  0.50000001  0.25000000  0.25000001  1
  Cu  Cu5  1  0.50000001  0.75000000  0.75000004  1
  N  N6  1  0.72604202  0.03147800  0.25721800  1
  N  N7  1  0.73664702  0.25000000  0.75000001  1
  N  N8  1  0.27395801  0.24278200  0.46852201  1
  N  N9  1  0.27395801  0.25721800  0.03147801  1
  N  N10  1  0.72604202  0.46852200  0.24278203  1
  N  N11  1  0.27395801  0.53147800  0.75721803  1
  N  N12  1  0.72604202  0.74278200  0.96852204  1
  N  N13  1  0.72604202  0.75721800  0.53147804  1
  N  N14  1  0.26335301  0.75000000  0.25000004  1
  N  N15  1  0.27395801  0.96852199  0.74278205  1
