# generated using pymatgen
data_Nd8Si3P7
_symmetry_space_group_name_H-M   'P 1'
_cell_length_a   7.23267984
_cell_length_b   7.43211699
_cell_length_c   7.41370726
_cell_angle_alpha   90.00000000
_cell_angle_beta   70.51924896
_cell_angle_gamma   90.00000000
_symmetry_Int_Tables_number   1
_chemical_formula_structural   Nd8Si3P7
_chemical_formula_sum   'Nd8 Si3 P7'
_cell_volume   375.70364037
_cell_formula_units_Z   1
loop_
 _symmetry_equiv_pos_site_id
 _symmetry_equiv_pos_as_xyz
  1  'x, y, z'
loop_
 _atom_site_type_symbol
 _atom_site_label
 _atom_site_symmetry_multiplicity
 _atom_site_fract_x
 _atom_site_fract_y
 _atom_site_fract_z
 _atom_site_occupancy
  Nd  Nd0  1  0.25046501  0.32910900  0.74797197  1
  Nd  Nd1  1  0.74953503  0.67089100  0.25202796  1
  Nd  Nd2  1  0.24953501  0.82910900  0.25202798  1
  Nd  Nd3  1  0.75046503  0.17089100  0.74797195  1
  Nd  Nd4  1  0.00000000  0.00000000  0.00000000  1
  Nd  Nd5  1  0.50000002  0.50000000  -0.00000002  1
  Nd  Nd6  1  0.06177600  0.33091000  0.31694899  1
  Nd  Nd7  1  0.93822403  0.66909000  0.68305094  1
  Si  Si8  1  0.43822402  0.83091000  0.68305096  1
  Si  Si9  1  0.56177602  0.16909000  0.31694897  1
  P  P10  1  0.14416501  0.03721600  0.58470098  1
  Si  Si11  1  0.85583503  0.96278400  0.41529895  1
  P  P12  1  0.35583501  0.53721600  0.41529897  1
  P  P13  1  0.64416502  0.46278400  0.58470096  1
  P  P14  1  0.36369301  0.13389200  0.01049698  1
  P  P15  1  0.63630702  0.86610800  0.98950295  1
  P  P16  1  0.13630701  0.63389200  0.98950297  1
  P  P17  1  0.86369303  0.36610800  0.01049696  1
