# generated using pymatgen
data_Be11Re
_symmetry_space_group_name_H-M   'P 1'
_cell_length_a   4.33088684
_cell_length_b   4.33169794
_cell_length_c   7.00148916
_cell_angle_alpha   90.00507355
_cell_angle_beta   90.00000000
_cell_angle_gamma   119.99379730
_symmetry_Int_Tables_number   1
_chemical_formula_structural   Be11Re
_chemical_formula_sum   'Be11 Re1'
_cell_volume   113.75832598
_cell_formula_units_Z   1
loop_
 _symmetry_equiv_pos_site_id
 _symmetry_equiv_pos_as_xyz
  1  'x, y, z'
loop_
 _atom_site_type_symbol
 _atom_site_label
 _atom_site_symmetry_multiplicity
 _atom_site_fract_x
 _atom_site_fract_y
 _atom_site_fract_z
 _atom_site_occupancy
  Be  Be0  1  0.00000000  0.00000000  0.49999999  1
  Be  Be1  1  0.00000000  0.00000000  0.00000000  1
  Be  Be2  1  0.83145903  0.16850700  0.24150600  1
  Be  Be3  1  0.83147001  0.66294002  0.24149202  1
  Be  Be4  1  0.33704801  0.16850700  0.24150600  1
  Be  Be5  1  0.16854099  0.83149302  0.75849402  1
  Be  Be6  1  0.16853000  0.33706001  0.75850800  1
  Be  Be7  1  0.66295200  0.83149302  0.75849402  1
  Be  Be8  1  0.33333333  0.66666668  0.42392402  1
  Be  Be9  1  0.66666668  0.33333334  0.57607600  1
  Re  Re10  1  0.66679402  0.33358901  0.94770999  1
  Be  Be11  1  0.33320600  0.66641102  0.05229003  1
