# generated using pymatgen
data_NdZnNi10
_symmetry_space_group_name_H-M   'P 1'
_cell_length_a   5.03489828
_cell_length_b   5.03489828
_cell_length_c   8.37987518
_cell_angle_alpha   98.79386902
_cell_angle_beta   98.79386902
_cell_angle_gamma   119.41326904
_symmetry_Int_Tables_number   1
_chemical_formula_structural   NdZnNi10
_chemical_formula_sum   'Nd1 Zn1 Ni10'
_cell_volume   176.34556758
_cell_formula_units_Z   1
loop_
 _symmetry_equiv_pos_site_id
 _symmetry_equiv_pos_as_xyz
  1  'x, y, z'
loop_
 _atom_site_type_symbol
 _atom_site_label
 _atom_site_symmetry_multiplicity
 _atom_site_fract_x
 _atom_site_fract_y
 _atom_site_fract_z
 _atom_site_occupancy
  Nd  Nd0  1  0.08532600  0.08532600  0.17065199  1
  Ni  Ni1  1  0.91467404  0.91467404  0.82934795  1
  Ni  Ni2  1  0.16467402  0.66467403  0.32934798  1
  Zn  Zn3  1  0.33532602  0.83532603  0.67065196  1
  Ni  Ni4  1  0.37176402  0.37176401  0.74352796  1
  Ni  Ni5  1  0.62823603  0.62823602  0.25647198  1
  Ni  Ni6  1  0.87823603  0.37823601  0.75647195  1
  Ni  Ni7  1  0.62176402  0.12176400  0.24352798  1
  Ni  Ni8  1  0.33770502  0.66229503  -0.00000001  1
  Ni  Ni9  1  0.66229503  0.33770501  -0.00000001  1
  Ni  Ni10  1  0.91229503  0.08770500  0.49999997  1
  Ni  Ni11  1  0.58770502  0.41229502  0.49999997  1
