# generated using pymatgen
data_Fe4CoPd
_symmetry_space_group_name_H-M   'P 1'
_cell_length_a   4.00882006
_cell_length_b   4.00882101
_cell_length_c   5.09322691
_cell_angle_alpha   90.00000000
_cell_angle_beta   90.00000000
_cell_angle_gamma   119.99999237
_symmetry_Int_Tables_number   1
_chemical_formula_structural   Fe4CoPd
_chemical_formula_sum   'Fe4 Co1 Pd1'
_cell_volume   70.88542027
_cell_formula_units_Z   1
loop_
 _symmetry_equiv_pos_site_id
 _symmetry_equiv_pos_as_xyz
  1  'x, y, z'
loop_
 _atom_site_type_symbol
 _atom_site_label
 _atom_site_symmetry_multiplicity
 _atom_site_fract_x
 _atom_site_fract_y
 _atom_site_fract_z
 _atom_site_occupancy
  Fe  Fe0  1  0.00000000  0.00000000  0.50000001  1
  Fe  Fe1  1  0.00000000  0.00000000  0.00000000  1
  Fe  Fe2  1  0.66666666  0.33333332  0.75000001  1
  Fe  Fe3  1  0.33333333  0.66666665  0.25000000  1
  Pd  Pd4  1  0.66666666  0.33333332  0.25000000  1
  Co  Co5  1  0.33333333  0.66666665  0.75000001  1
