# generated using pymatgen
data_CsNaZnCuBr4
_symmetry_space_group_name_H-M   'P 1'
_cell_length_a   6.46666479
_cell_length_b   6.91518641
_cell_length_c   6.50319338
_cell_angle_alpha   63.04540253
_cell_angle_beta   87.92536163
_cell_angle_gamma   116.77881622
_symmetry_Int_Tables_number   1
_chemical_formula_structural   CsNaZnCuBr4
_chemical_formula_sum   'Cs1 Na1 Zn1 Cu1 Br4'
_cell_volume   220.60337462
_cell_formula_units_Z   1
loop_
 _symmetry_equiv_pos_site_id
 _symmetry_equiv_pos_as_xyz
  1  'x, y, z'
loop_
 _atom_site_type_symbol
 _atom_site_label
 _atom_site_symmetry_multiplicity
 _atom_site_fract_x
 _atom_site_fract_y
 _atom_site_fract_z
 _atom_site_occupancy
  Cs  Cs0  1  0.97601996  0.95203999  0.52398006  1
  Na  Na1  1  0.22229798  0.44459599  0.77770201  1
  Zn  Zn2  1  0.48875595  0.97751198  0.01124404  1
  Cu  Cu3  1  0.73865999  0.47731999  0.26134004  1
  Br  Br4  1  0.10391596  0.72863999  0.92413501  1
  Br  Br5  1  0.82708100  0.23267500  0.61326504  1
  Br  Br6  1  0.40559399  0.23267500  0.15406002  1
  Br  Br7  1  0.62472397  0.72863999  0.34722504  1
