# generated using pymatgen
data_Ce4IrRu7
_symmetry_space_group_name_H-M   'P 1'
_cell_length_a   5.52877617
_cell_length_b   5.52877569
_cell_length_c   8.68538284
_cell_angle_alpha   90.00000000
_cell_angle_beta   90.00000000
_cell_angle_gamma   120.00000000
_symmetry_Int_Tables_number   1
_chemical_formula_structural   Ce4IrRu7
_chemical_formula_sum   'Ce4 Ru7 Ir1'
_cell_volume   229.92043724
_cell_formula_units_Z   1
loop_
 _symmetry_equiv_pos_site_id
 _symmetry_equiv_pos_as_xyz
  1  'x, y, z'
loop_
 _atom_site_type_symbol
 _atom_site_label
 _atom_site_symmetry_multiplicity
 _atom_site_fract_x
 _atom_site_fract_y
 _atom_site_fract_z
 _atom_site_occupancy
  Ce  Ce0  1  0.66666663  0.33333332  0.55861001  1
  Ce  Ce1  1  0.33333329  0.66666664  0.44139001  1
  Ce  Ce2  1  0.33333329  0.66666664  0.05861000  1
  Ce  Ce3  1  0.66666663  0.33333332  0.94139002  1
  Ru  Ru4  1  0.00000000  0.00000000  0.50000001  1
  Ir  Ir5  1  0.00000000  0.00000000  0.00000000  1
  Ru  Ru6  1  0.16971398  0.33942799  0.75000001  1
  Ru  Ru7  1  0.16971395  0.83028696  0.75000001  1
  Ru  Ru8  1  0.66057294  0.83028696  0.75000001  1
  Ru  Ru9  1  0.83028594  0.66057197  0.25000000  1
  Ru  Ru10  1  0.83028597  0.16971299  0.25000000  1
  Ru  Ru11  1  0.33942698  0.16971299  0.25000000  1
