# generated using pymatgen
data_MgPO3
_symmetry_space_group_name_H-M   'P 1'
_cell_length_a   5.35774708
_cell_length_b   7.08408308
_cell_length_c   7.08408308
_cell_angle_alpha   84.99782562
_cell_angle_beta   74.47177124
_cell_angle_gamma   74.47177124
_symmetry_Int_Tables_number   1
_chemical_formula_structural   MgPO3
_chemical_formula_sum   'Mg4 P4 O12'
_cell_volume   249.56921586
_cell_formula_units_Z   4
loop_
 _symmetry_equiv_pos_site_id
 _symmetry_equiv_pos_as_xyz
  1  'x, y, z'
loop_
 _atom_site_type_symbol
 _atom_site_label
 _atom_site_symmetry_multiplicity
 _atom_site_fract_x
 _atom_site_fract_y
 _atom_site_fract_z
 _atom_site_occupancy
  Mg  Mg0  1  0.24999997  0.78841602  0.21158406  1
  Mg  Mg1  1  0.24999999  0.11484500  0.88515503  1
  Mg  Mg2  1  0.74999997  0.21158401  0.78841603  1
  Mg  Mg3  1  0.74999995  0.88515502  0.11484506  1
  P  P4  1  0.73287996  0.38644901  0.19578903  1
  P  P5  1  0.26711997  0.61355101  0.80421106  1
  P  P6  1  0.76711995  0.80421102  0.61355107  1
  P  P7  1  0.23287999  0.19578900  0.38644902  1
  O  O8  1  0.46919497  0.33143201  0.39164103  1
  O  O9  1  0.64135695  0.96626702  0.79560108  1
  O  O10  1  0.12733499  0.12628900  0.61967502  1
  O  O11  1  0.53080496  0.66856802  0.60835906  1
  O  O12  1  0.85864297  0.20439900  0.03373301  1
  O  O13  1  0.87266495  0.87371102  0.38032507  1
  O  O14  1  0.14135697  0.79560102  0.96626708  1
  O  O15  1  0.03080498  0.60835901  0.66856806  1
  O  O16  1  0.62733496  0.61967501  0.12628904  1
  O  O17  1  0.96919496  0.39164101  0.33143203  1
  O  O18  1  0.35864299  0.03373300  0.20439901  1
  O  O19  1  0.37266498  0.38032501  0.87371105  1
