# generated using pymatgen
data_LiMgCu3
_symmetry_space_group_name_H-M   'P 1'
_cell_length_a   4.14857388
_cell_length_b   4.14857435
_cell_length_c   7.05170822
_cell_angle_alpha   90.00000000
_cell_angle_beta   90.00000000
_cell_angle_gamma   120.00000000
_symmetry_Int_Tables_number   1
_chemical_formula_structural   LiMgCu3
_chemical_formula_sum   'Li1 Mg1 Cu3'
_cell_volume   105.10482952
_cell_formula_units_Z   1
loop_
 _symmetry_equiv_pos_site_id
 _symmetry_equiv_pos_as_xyz
  1  'x, y, z'
loop_
 _atom_site_type_symbol
 _atom_site_label
 _atom_site_symmetry_multiplicity
 _atom_site_fract_x
 _atom_site_fract_y
 _atom_site_fract_z
 _atom_site_occupancy
  Li  Li0  1  0.00000000  0.00000000  0.00000000  1
  Mg  Mg1  1  0.33333339  0.66666671  0.63164998  1
  Cu  Cu2  1  0.66666671  0.33333335  0.36834999  1
  Cu  Cu3  1  0.33333339  0.66666671  0.26165999  1
  Cu  Cu4  1  0.66666671  0.33333335  0.73833998  1
