# generated using pymatgen
data_Li2Ga
_symmetry_space_group_name_H-M   'P 1'
_cell_length_a   4.22927999
_cell_length_b   5.97923422
_cell_length_c   7.41138840
_cell_angle_alpha   113.78974152
_cell_angle_beta   106.57816315
_cell_angle_gamma   90.00000000
_symmetry_Int_Tables_number   1
_chemical_formula_structural   Li2Ga
_chemical_formula_sum   'Li4 Ga2'
_cell_volume   162.94322717
_cell_formula_units_Z   2
loop_
 _symmetry_equiv_pos_site_id
 _symmetry_equiv_pos_as_xyz
  1  'x, y, z'
loop_
 _atom_site_type_symbol
 _atom_site_label
 _atom_site_symmetry_multiplicity
 _atom_site_fract_x
 _atom_site_fract_y
 _atom_site_fract_z
 _atom_site_occupancy
  Li  Li0  1  0.00000000  0.00000000  0.00000000  1
  Li  Li1  1  0.33506302  0.33506299  0.67012603  1
  Li  Li2  1  0.66493703  0.66493697  0.32987402  1
  Li  Li3  1  1.00000003  0.49999998  1.00000006  1
  Ga  Ga4  1  0.32983903  0.82983896  0.65967802  1
  Ga  Ga5  1  0.67016102  0.17016099  0.34032203  1
