# generated using pymatgen
data_Ca7MgPb4
_symmetry_space_group_name_H-M   'P 1'
_cell_length_a   4.85545206
_cell_length_b   7.67813778
_cell_length_c   9.10063076
_cell_angle_alpha   90.00000000
_cell_angle_beta   90.00000000
_cell_angle_gamma   90.00000000
_symmetry_Int_Tables_number   1
_chemical_formula_structural   Ca7MgPb4
_chemical_formula_sum   'Ca7 Mg1 Pb4'
_cell_volume   339.27906738
_cell_formula_units_Z   1
loop_
 _symmetry_equiv_pos_site_id
 _symmetry_equiv_pos_as_xyz
  1  'x, y, z'
loop_
 _atom_site_type_symbol
 _atom_site_label
 _atom_site_symmetry_multiplicity
 _atom_site_fract_x
 _atom_site_fract_y
 _atom_site_fract_z
 _atom_site_occupancy
  Ca  Ca0  1  0.74999999  0.34654401  0.07411500  1
  Ca  Ca1  1  0.25000000  0.65345602  0.92588502  1
  Ca  Ca2  1  0.74999999  0.84654402  0.42588501  1
  Ca  Ca3  1  0.25000000  0.15345600  0.57411502  1
  Ca  Ca4  1  0.74999999  0.48017101  0.67720202  1
  Ca  Ca5  1  0.25000000  0.51982901  0.32279801  1
  Ca  Ca6  1  0.74999999  0.98017103  0.82279802  1
  Mg  Mg7  1  0.25000000  0.01982900  0.17720200  1
  Pb  Pb8  1  0.74999999  0.74766702  0.10555800  1
  Pb  Pb9  1  0.25000000  0.25233301  0.89444202  1
  Pb  Pb10  1  0.74999999  0.24766701  0.39444201  1
  Pb  Pb11  1  0.25000000  0.75233302  0.60555802  1
