# generated using pymatgen
data_CeAl4
_symmetry_space_group_name_H-M   'P 1'
_cell_length_a   6.39771605
_cell_length_b   6.39771605
_cell_length_c   6.39771605
_cell_angle_alpha   90.00000000
_cell_angle_beta   90.00000000
_cell_angle_gamma   90.00000000
_symmetry_Int_Tables_number   1
_chemical_formula_structural   CeAl4
_chemical_formula_sum   'Ce3 Al12'
_cell_volume   261.86344780
_cell_formula_units_Z   3
loop_
 _symmetry_equiv_pos_site_id
 _symmetry_equiv_pos_as_xyz
  1  'x, y, z'
loop_
 _atom_site_type_symbol
 _atom_site_label
 _atom_site_symmetry_multiplicity
 _atom_site_fract_x
 _atom_site_fract_y
 _atom_site_fract_z
 _atom_site_occupancy
  Ce  Ce0  1  0.50000000  0.00000000  -0.00000000  1
  Ce  Ce1  1  -0.00000000  0.50000000  -0.00000000  1
  Ce  Ce2  1  0.00000000  0.00000000  0.50000000  1
  Al  Al3  1  0.28642900  0.28642900  0.28642900  1
  Al  Al4  1  0.71357099  0.71357099  0.71357099  1
  Al  Al5  1  0.71357099  0.71357099  0.28642900  1
  Al  Al6  1  0.71357099  0.28642900  0.71357099  1
  Al  Al7  1  0.28642900  0.28642900  0.71357099  1
  Al  Al8  1  0.28642900  0.71357099  0.28642900  1
  Al  Al9  1  0.28642900  0.71357099  0.71357099  1
  Al  Al10  1  0.71357099  0.28642900  0.28642900  1
  Al  Al11  1  0.00000000  0.00000000  0.00000000  1
  Al  Al12  1  -0.00000000  0.50000000  0.50000000  1
  Al  Al13  1  0.50000000  0.00000000  0.50000000  1
  Al  Al14  1  0.50000000  0.50000000  -0.00000000  1
