# generated using pymatgen
data_CaMgAl2(NiO3)4
_symmetry_space_group_name_H-M   'P 1'
_cell_length_a   5.32036304
_cell_length_b   6.71329594
_cell_length_c   6.71329641
_cell_angle_alpha   84.62683868
_cell_angle_beta   78.39627075
_cell_angle_gamma   78.39627075
_symmetry_Int_Tables_number   1
_chemical_formula_structural   CaMgAl2(NiO3)4
_chemical_formula_sum   'Ca1 Mg1 Al2 Ni4 O12'
_cell_volume   229.72526513
_cell_formula_units_Z   1
loop_
 _symmetry_equiv_pos_site_id
 _symmetry_equiv_pos_as_xyz
  1  'x, y, z'
loop_
 _atom_site_type_symbol
 _atom_site_label
 _atom_site_symmetry_multiplicity
 _atom_site_fract_x
 _atom_site_fract_y
 _atom_site_fract_z
 _atom_site_occupancy
  Mg  Mg0  1  0.75000005  0.29655501  0.70344497  1
  Ca  Ca1  1  0.25000106  0.70343902  0.29656097  1
  Al  Al2  1  0.25000001  0.09384500  0.90615601  1
  Al  Al3  1  0.74999909  0.90615802  0.09384094  1
  Ni  Ni4  1  0.26887102  0.19461400  0.37958299  1
  Ni  Ni5  1  0.23112905  0.62041602  0.80538599  1
  Ni  Ni6  1  0.76886805  0.37958301  0.19461595  1
  Ni  Ni7  1  0.73113208  0.80538402  0.62041795  1
  O  O8  1  0.50454304  0.33153901  0.36841697  1
  O  O9  1  0.99545608  0.63158302  0.66846095  1
  O  O10  1  0.49546006  0.66845702  0.63158097  1
  O  O11  1  0.00454003  0.36841901  0.33154200  1
  O  O12  1  0.17686901  0.11380900  0.61053800  1
  O  O13  1  0.32313104  0.38946201  0.88619099  1
  O  O14  1  0.82313309  0.88619102  0.38946294  1
  O  O15  1  0.67686707  0.61053701  0.11380895  1
  O  O16  1  0.85364704  0.20608200  0.02845095  1
  O  O17  1  0.64635409  0.97154802  0.79391696  1
  O  O18  1  0.35365201  0.02845500  0.20607799  1
  O  O19  1  0.14634806  0.79392202  0.97154599  1
