# generated using pymatgen
data_K3Tl3(BrO)2
_symmetry_space_group_name_H-M   'P 1'
_cell_length_a   6.22114182
_cell_length_b   6.75724792
_cell_length_c   7.45616388
_cell_angle_alpha   116.94478607
_cell_angle_beta   114.65674591
_cell_angle_gamma   90.00000000
_symmetry_Int_Tables_number   1
_chemical_formula_structural   K3Tl3(BrO)2
_chemical_formula_sum   'K3 Tl3 Br2 O2'
_cell_volume   246.92914555
_cell_formula_units_Z   1
loop_
 _symmetry_equiv_pos_site_id
 _symmetry_equiv_pos_as_xyz
  1  'x, y, z'
loop_
 _atom_site_type_symbol
 _atom_site_label
 _atom_site_symmetry_multiplicity
 _atom_site_fract_x
 _atom_site_fract_y
 _atom_site_fract_z
 _atom_site_occupancy
  K  K0  1  0.86033899  0.51523700  0.72067796  1
  K  K1  1  0.13966098  0.48476300  0.27932199  1
  K  K2  1  0.63965998  0.79455800  0.27932096  1
  Tl  Tl3  1  0.36034000  0.20544200  0.72067899  1
  Tl  Tl4  1  0.25000000  0.00000000  -0.00000001  1
  Tl  Tl5  1  0.75000001  0.00000000  -0.00000003  1
  Br  Br6  1  0.38676198  0.67183000  0.77352398  1
  O  O7  1  0.61323799  0.32817000  0.22647597  1
  Br  Br8  1  0.11323797  0.89830600  0.22647598  1
  O  O9  1  0.88676200  0.10169400  0.77352397  1
