# generated using pymatgen
data_Nd2MgNiSn
_symmetry_space_group_name_H-M   'P 1'
_cell_length_a   4.13979912
_cell_length_b   8.01774025
_cell_length_c   8.01774025
_cell_angle_alpha   90.00000000
_cell_angle_beta   90.00000000
_cell_angle_gamma   90.00000000
_symmetry_Int_Tables_number   1
_chemical_formula_structural   Nd2MgNiSn
_chemical_formula_sum   'Nd4 Mg2 Ni2 Sn2'
_cell_volume   266.12350353
_cell_formula_units_Z   2
loop_
 _symmetry_equiv_pos_site_id
 _symmetry_equiv_pos_as_xyz
  1  'x, y, z'
loop_
 _atom_site_type_symbol
 _atom_site_label
 _atom_site_symmetry_multiplicity
 _atom_site_fract_x
 _atom_site_fract_y
 _atom_site_fract_z
 _atom_site_occupancy
  Nd  Nd0  1  0.49999999  0.82308497  0.67691498  1
  Nd  Nd1  1  0.49999999  0.32308499  0.82308497  1
  Nd  Nd2  1  0.49999999  0.17691499  0.32308499  1
  Nd  Nd3  1  0.49999999  0.67691498  0.17691499  1
  Mg  Mg4  1  0.99999997  0.49999998  0.49999998  1
  Mg  Mg5  1  0.00000000  0.00000000  0.00000000  1
  Sn  Sn6  1  0.99999997  0.12102900  0.62102898  1
  Ni  Ni7  1  0.00000000  0.62102898  0.87897097  1
  Sn  Sn8  1  0.00000000  0.37897099  0.12102900  1
  Ni  Ni9  1  0.99999997  0.87897097  0.37897099  1
