# generated using pymatgen
data_Li2Ni3O8
_symmetry_space_group_name_H-M   'P 1'
_cell_length_a   5.22895622
_cell_length_b   5.22895622
_cell_length_c   5.22895575
_cell_angle_alpha   64.64423370
_cell_angle_beta   64.64423370
_cell_angle_gamma   64.64424133
_symmetry_Int_Tables_number   1
_chemical_formula_structural   Li2Ni3O8
_chemical_formula_sum   'Li2 Ni3 O8'
_cell_volume   111.37947393
_cell_formula_units_Z   1
loop_
 _symmetry_equiv_pos_site_id
 _symmetry_equiv_pos_as_xyz
  1  'x, y, z'
loop_
 _atom_site_type_symbol
 _atom_site_label
 _atom_site_symmetry_multiplicity
 _atom_site_fract_x
 _atom_site_fract_y
 _atom_site_fract_z
 _atom_site_occupancy
  Li  Li0  1  0.49601198  0.17190899  0.49601204  1
  Li  Li1  1  0.49601200  0.49601197  0.17190904  1
  Ni  Ni2  1  0.17190901  0.49601197  0.49601203  1
  O  O3  1  0.50529601  0.83378794  0.50529606  1
  Ni  Ni4  1  0.50529600  0.50529597  0.83378806  1
  Ni  Ni5  1  0.83378798  0.50529597  0.50529607  1
  O  O6  1  0.69940897  0.17905999  0.69940905  1
  O  O7  1  0.69940900  0.69940895  0.17906006  1
  O  O8  1  0.17906002  0.69940895  0.69940904  1
  O  O9  1  0.31380102  0.79905095  0.31380105  1
  O  O10  1  0.31380100  0.31380098  0.79905104  1
  O  O11  1  0.79905097  0.31380098  0.31380105  1
  O  O12  1  0.08635500  0.08635499  0.08635501  1
