# generated using pymatgen
data_BeNi3
_symmetry_space_group_name_H-M   'P 1'
_cell_length_a   3.18654203
_cell_length_b   3.20414948
_cell_length_c   7.67950010
_cell_angle_alpha   90.50942993
_cell_angle_beta   90.00000000
_cell_angle_gamma   119.81838989
_symmetry_Int_Tables_number   1
_chemical_formula_structural   BeNi3
_chemical_formula_sum   'Be1 Ni3'
_cell_volume   68.02445349
_cell_formula_units_Z   1
loop_
 _symmetry_equiv_pos_site_id
 _symmetry_equiv_pos_as_xyz
  1  'x, y, z'
loop_
 _atom_site_type_symbol
 _atom_site_label
 _atom_site_symmetry_multiplicity
 _atom_site_fract_x
 _atom_site_fract_y
 _atom_site_fract_z
 _atom_site_occupancy
  Ni  Ni0  1  0.50000006  1.00000000  0.50000003  1
  Be  Be1  1  0.00000000  0.00000000  0.00000000  1
  Ni  Ni2  1  0.33239704  0.66479400  0.87713603  1
  Ni  Ni3  1  0.66760301  0.33520600  0.12286401  1
