# generated using pymatgen
data_Ca3Eu(Mg3Sn)2
_symmetry_space_group_name_H-M   'P 1'
_cell_length_a   4.94864702
_cell_length_b   8.23367786
_cell_length_c   8.69123840
_cell_angle_alpha   90.00000000
_cell_angle_beta   90.00000000
_cell_angle_gamma   90.00000000
_symmetry_Int_Tables_number   1
_chemical_formula_structural   Ca3Eu(Mg3Sn)2
_chemical_formula_sum   'Ca3 Eu1 Mg6 Sn2'
_cell_volume   354.12942315
_cell_formula_units_Z   1
loop_
 _symmetry_equiv_pos_site_id
 _symmetry_equiv_pos_as_xyz
  1  'x, y, z'
loop_
 _atom_site_type_symbol
 _atom_site_label
 _atom_site_symmetry_multiplicity
 _atom_site_fract_x
 _atom_site_fract_y
 _atom_site_fract_z
 _atom_site_occupancy
  Ca  Ca0  1  0.75000000  0.49688301  0.70859097  1
  Ca  Ca1  1  0.25000000  0.50311701  0.29140899  1
  Ca  Ca2  1  0.75000000  0.99688302  0.79140896  1
  Eu  Eu3  1  0.25000000  0.00311700  0.20859099  1
  Mg  Mg4  1  0.75000000  0.33708501  0.07490700  1
  Mg  Mg5  1  0.25000000  0.66291501  0.92509296  1
  Mg  Mg6  1  0.75000000  0.83708501  0.42509298  1
  Mg  Mg7  1  0.25000000  0.16291500  0.57490697  1
  Mg  Mg8  1  0.75000000  0.72377301  0.09381300  1
  Mg  Mg9  1  0.25000000  0.27622700  0.90618696  1
  Sn  Sn10  1  0.75000000  0.22377300  0.40618698  1
  Sn  Sn11  1  0.25000000  0.77622701  0.59381297  1
