# generated using pymatgen
data_LaMgGa2
_symmetry_space_group_name_H-M   'P 1'
_cell_length_a   3.46730995
_cell_length_b   5.51728582
_cell_length_c   6.08662462
_cell_angle_alpha   106.10897064
_cell_angle_beta   106.54870605
_cell_angle_gamma   90.00000000
_symmetry_Int_Tables_number   1
_chemical_formula_structural   LaMgGa2
_chemical_formula_sum   'La1 Mg1 Ga2'
_cell_volume   106.83683355
_cell_formula_units_Z   1
loop_
 _symmetry_equiv_pos_site_id
 _symmetry_equiv_pos_as_xyz
  1  'x, y, z'
loop_
 _atom_site_type_symbol
 _atom_site_label
 _atom_site_symmetry_multiplicity
 _atom_site_fract_x
 _atom_site_fract_y
 _atom_site_fract_z
 _atom_site_occupancy
  La  La0  1  0.87175205  0.69951301  0.74350403  1
  Mg  Mg1  1  0.12824802  0.30048700  0.25649601  1
  Ga  Ga2  1  0.61837105  0.78868001  0.23674205  1
  Ga  Ga3  1  0.38162902  0.21132000  0.76325799  1
