# generated using pymatgen
data_Li2FeSbO4
_symmetry_space_group_name_H-M   'P 1'
_cell_length_a   3.10737300
_cell_length_b   5.08584213
_cell_length_c   5.12107468
_cell_angle_alpha   106.00504303
_cell_angle_beta   93.29512787
_cell_angle_gamma   95.15660858
_symmetry_Int_Tables_number   1
_chemical_formula_structural   Li2FeSbO4
_chemical_formula_sum   'Li2 Fe1 Sb1 O4'
_cell_volume   77.19294188
_cell_formula_units_Z   1
loop_
 _symmetry_equiv_pos_site_id
 _symmetry_equiv_pos_as_xyz
  1  'x, y, z'
loop_
 _atom_site_type_symbol
 _atom_site_label
 _atom_site_symmetry_multiplicity
 _atom_site_fract_x
 _atom_site_fract_y
 _atom_site_fract_z
 _atom_site_occupancy
  Li  Li0  1  0.99999902  0.50000100  0.50000003  1
  Li  Li1  1  0.49999900  0.00000100  0.49999999  1
  Fe  Fe2  1  0.50000003  0.49999800  0.00000004  1
  Sb  Sb3  1  0.00000306  0.99999900  0.99999903  1
  O  O4  1  0.52453704  0.74778500  0.76827003  1
  O  O5  1  0.02453601  0.24778600  0.76826699  1
  O  O6  1  0.47546301  0.25221600  0.23173101  1
  O  O7  1  0.97546304  0.75221500  0.23173405  1
