# generated using pymatgen
data_LiTiCrNiO6
_symmetry_space_group_name_H-M   'P 1'
_cell_length_a   5.05952263
_cell_length_b   5.05952263
_cell_length_c   5.39991188
_cell_angle_alpha   62.06419754
_cell_angle_beta   62.06419754
_cell_angle_gamma   59.99998856
_symmetry_Int_Tables_number   1
_chemical_formula_structural   LiTiCrNiO6
_chemical_formula_sum   'Li1 Ti1 Cr1 Ni1 O6'
_cell_volume   100.68354596
_cell_formula_units_Z   1
loop_
 _symmetry_equiv_pos_site_id
 _symmetry_equiv_pos_as_xyz
  1  'x, y, z'
loop_
 _atom_site_type_symbol
 _atom_site_label
 _atom_site_symmetry_multiplicity
 _atom_site_fract_x
 _atom_site_fract_y
 _atom_site_fract_z
 _atom_site_occupancy
  Li  Li0  1  0.85591104  0.85591104  0.43226694  1
  Ti  Ti1  1  0.64408903  0.64408903  0.06773296  1
  Cr  Cr2  1  0.14408901  0.14408901  0.56773298  1
  Ni  Ni3  1  0.35591102  0.35591102  0.93226695  1
  O  O4  1  0.75000004  0.44687102  0.74999994  1
  O  O5  1  0.44687102  0.05312900  0.74999996  1
  O  O6  1  0.05312900  0.75000004  0.74999996  1
  O  O7  1  0.25000001  0.55312903  0.24999997  1
  O  O8  1  0.94687105  0.25000001  0.24999996  1
  O  O9  1  0.55312903  0.94687105  0.24999995  1
