# generated using pymatgen
data_CeFe2BC2
_symmetry_space_group_name_H-M   'P 1'
_cell_length_a   3.72570992
_cell_length_b   3.72570992
_cell_length_c   5.63293219
_cell_angle_alpha   109.31174469
_cell_angle_beta   109.31174469
_cell_angle_gamma   90.00000000
_symmetry_Int_Tables_number   1
_chemical_formula_structural   CeFe2BC2
_chemical_formula_sum   'Ce1 Fe2 B1 C2'
_cell_volume   69.11171681
_cell_formula_units_Z   1
loop_
 _symmetry_equiv_pos_site_id
 _symmetry_equiv_pos_as_xyz
  1  'x, y, z'
loop_
 _atom_site_type_symbol
 _atom_site_label
 _atom_site_symmetry_multiplicity
 _atom_site_fract_x
 _atom_site_fract_y
 _atom_site_fract_z
 _atom_site_occupancy
  Ce  Ce0  1  0.00000000  0.00000000  0.00000000  1
  Fe  Fe1  1  0.75000000  0.25000000  0.49999996  1
  Fe  Fe2  1  0.24999998  0.75000001  0.49999995  1
  B  B3  1  0.65036599  0.65036600  0.30073195  1
  C  C4  1  0.34963399  0.34963400  0.69926795  1
  C  C5  1  0.49999999  0.50000000  -0.00000003  1
