# generated using pymatgen
data_Hf6Ni13
_symmetry_space_group_name_H-M   'P 1'
_cell_length_a   6.42949915
_cell_length_b   6.42949915
_cell_length_c   6.42949915
_cell_angle_alpha   82.51619720
_cell_angle_beta   82.51619720
_cell_angle_gamma   82.51620483
_symmetry_Int_Tables_number   1
_chemical_formula_structural   Hf6Ni13
_chemical_formula_sum   'Hf6 Ni13'
_cell_volume   259.53619411
_cell_formula_units_Z   1
loop_
 _symmetry_equiv_pos_site_id
 _symmetry_equiv_pos_as_xyz
  1  'x, y, z'
loop_
 _atom_site_type_symbol
 _atom_site_label
 _atom_site_symmetry_multiplicity
 _atom_site_fract_x
 _atom_site_fract_y
 _atom_site_fract_z
 _atom_site_occupancy
  Hf  Hf0  1  0.34288302  0.34288301  0.34288297  1
  Hf  Hf1  1  0.65945304  0.65945302  0.65945293  1
  Hf  Hf2  1  0.15664002  0.65622702  0.65622697  1
  Hf  Hf3  1  0.65622704  0.65622702  0.15663992  1
  Ni  Ni4  1  0.65622703  0.15664001  0.65622697  1
  Hf  Hf5  1  0.84443504  0.34391901  0.34391893  1
  Ni  Ni6  1  0.34391902  0.34391901  0.84443498  1
  Hf  Hf7  1  0.34391903  0.84443503  0.34391893  1
  Ni  Ni8  1  0.70672703  0.29253601  0.99993696  1
  Ni  Ni9  1  0.29253603  0.99993703  0.70672694  1
  Ni  Ni10  1  0.99993705  0.70672702  0.29253590  1
  Ni  Ni11  1  0.70672704  0.99993703  0.29253590  1
  Ni  Ni12  1  0.99993704  0.29253601  0.70672694  1
  Ni  Ni13  1  0.29253602  0.70672702  0.99993696  1
  Ni  Ni14  1  0.99861205  0.99861203  0.50025189  1
  Ni  Ni15  1  0.99861204  0.50025202  0.99861193  1
  Ni  Ni16  1  0.50025204  0.99861203  0.99861193  1
  Ni  Ni17  1  0.09715301  0.09715300  0.09715299  1
  Ni  Ni18  1  0.90326805  0.90326803  0.90326791  1
