# generated using pymatgen
data_Nd4ThRu3
_symmetry_space_group_name_H-M   'P 1'
_cell_length_a   8.53903961
_cell_length_b   9.73425388
_cell_length_c   8.53903961
_cell_angle_alpha   63.98490906
_cell_angle_beta   90.00000000
_cell_angle_gamma   116.01509094
_symmetry_Int_Tables_number   1
_chemical_formula_structural   Nd4ThRu3
_chemical_formula_sum   'Nd8 Th2 Ru6'
_cell_volume   556.73077149
_cell_formula_units_Z   2
loop_
 _symmetry_equiv_pos_site_id
 _symmetry_equiv_pos_as_xyz
  1  'x, y, z'
loop_
 _atom_site_type_symbol
 _atom_site_label
 _atom_site_symmetry_multiplicity
 _atom_site_fract_x
 _atom_site_fract_y
 _atom_site_fract_z
 _atom_site_occupancy
  Nd  Nd0  1  0.25000004  0.50000002  0.75000001  1
  Nd  Nd1  1  0.75000006  0.50000002  0.24999999  1
  Nd  Nd2  1  0.17922401  0.00000000  0.32077601  1
  Nd  Nd3  1  0.32077601  0.00000100  0.82077504  1
  Nd  Nd4  1  0.82077604  0.00000000  0.67922403  1
  Nd  Nd5  1  0.67922408  0.99999904  0.17922496  1
  Nd  Nd6  1  0.47043703  0.26258701  0.02956299  1
  Nd  Nd7  1  0.29215003  0.26258601  0.52956401  1
  Th  Th8  1  0.52956306  0.73741303  0.97043701  1
  Th  Th9  1  0.79215005  0.26258701  0.70785002  1
  Ru  Ru10  1  0.97043706  0.26258801  0.20784900  1
  Ru  Ru11  1  0.70785007  0.73741403  0.47043598  1
  Ru  Ru12  1  0.20785005  0.73741303  0.29214997  1
  Ru  Ru13  1  0.00000000  0.00000000  0.00000000  1
  Ru  Ru14  1  0.02956304  0.73741203  0.79215100  1
  Ru  Ru15  1  0.50000002  0.00000000  0.50000002  1
