# generated using pymatgen
data_Li4VO7
_symmetry_space_group_name_H-M   'P 1'
_cell_length_a   3.08241510
_cell_length_b   6.11145401
_cell_length_c   6.47553158
_cell_angle_alpha   102.92234039
_cell_angle_beta   103.31569672
_cell_angle_gamma   94.88433075
_symmetry_Int_Tables_number   1
_chemical_formula_structural   Li4VO7
_chemical_formula_sum   'Li4 V1 O7'
_cell_volume   114.49333286
_cell_formula_units_Z   1
loop_
 _symmetry_equiv_pos_site_id
 _symmetry_equiv_pos_as_xyz
  1  'x, y, z'
loop_
 _atom_site_type_symbol
 _atom_site_label
 _atom_site_symmetry_multiplicity
 _atom_site_fract_x
 _atom_site_fract_y
 _atom_site_fract_z
 _atom_site_occupancy
  Li  Li0  1  0.00000005  0.50000000  0.00000001  1
  Li  Li1  1  0.66043906  0.83437601  0.32857402  1
  Li  Li2  1  0.33956100  0.16562400  0.67142602  1
  Li  Li3  1  0.67770800  0.32936600  0.33318300  1
  V  V4  1  0.32229205  0.67063400  0.66681703  1
  O  O5  1  0.00000000  0.00000000  0.00000000  1
  O  O6  1  0.46660706  0.76176100  0.98512504  1
  O  O7  1  0.19991100  0.08437700  0.31771501  1
  O  O8  1  0.85765701  0.42244000  0.65317301  1
  O  O9  1  0.53339300  0.23823900  0.01487500  1
  O  O10  1  0.14234305  0.57756000  0.34682702  1
  O  O11  1  0.80008906  0.91562301  0.68228502  1
