# generated using pymatgen
data_Li4V2O7
_symmetry_space_group_name_H-M   'P 1'
_cell_length_a   5.46561480
_cell_length_b   5.46964169
_cell_length_c   5.47295952
_cell_angle_alpha   99.79910278
_cell_angle_beta   99.84097290
_cell_angle_gamma   99.69275665
_symmetry_Int_Tables_number   1
_chemical_formula_structural   Li4V2O7
_chemical_formula_sum   'Li4 V2 O7'
_cell_volume   155.53481882
_cell_formula_units_Z   1
loop_
 _symmetry_equiv_pos_site_id
 _symmetry_equiv_pos_as_xyz
  1  'x, y, z'
loop_
 _atom_site_type_symbol
 _atom_site_label
 _atom_site_symmetry_multiplicity
 _atom_site_fract_x
 _atom_site_fract_y
 _atom_site_fract_z
 _atom_site_occupancy
  Li  Li0  1  0.15422400  0.57403697  0.27623100  1
  Li  Li1  1  0.71808102  0.85245996  0.43161502  1
  Li  Li2  1  0.43382601  0.72601096  0.85993202  1
  Li  Li3  1  0.56312202  0.27058699  0.14881501  1
  V  V4  1  0.27848401  0.14191699  0.55625102  1
  V  V5  1  0.85229803  0.43568998  0.72341703  1
  O  O6  1  0.37515000  0.92220295  0.22359700  1
  O  O7  1  0.50161301  0.49942398  0.50086302  1
  O  O8  1  0.07607199  0.77215496  0.62409700  1
  O  O9  1  0.77638602  0.62212897  0.07575501  1
  O  O10  1  0.22229200  0.37701698  0.92054502  1
  O  O11  1  0.92196704  0.22601199  0.38050003  1
  O  O12  1  0.62648303  0.08035800  0.77838404  1
