# generated using pymatgen
data_Li2CuO5
_symmetry_space_group_name_H-M   'P 1'
_cell_length_a   5.48671722
_cell_length_b   5.48671722
_cell_length_c   7.10512304
_cell_angle_alpha   104.24465942
_cell_angle_beta   104.24465942
_cell_angle_gamma   105.44754028
_symmetry_Int_Tables_number   1
_chemical_formula_structural   Li2CuO5
_chemical_formula_sum   'Li4 Cu2 O10'
_cell_volume   188.38462754
_cell_formula_units_Z   2
loop_
 _symmetry_equiv_pos_site_id
 _symmetry_equiv_pos_as_xyz
  1  'x, y, z'
loop_
 _atom_site_type_symbol
 _atom_site_label
 _atom_site_symmetry_multiplicity
 _atom_site_fract_x
 _atom_site_fract_y
 _atom_site_fract_z
 _atom_site_occupancy
  Li  Li0  1  0.83008901  0.16991100  0.50000002  1
  Li  Li1  1  0.17039403  0.82960601  0.00000003  1
  Li  Li2  1  0.49091102  0.48718701  0.74444602  1
  Li  Li3  1  0.51281302  0.50908901  0.25555403  1
  Cu  Cu4  1  0.82029601  0.17970400  0.00000003  1
  Cu  Cu5  1  0.18041803  0.81958201  0.50000003  1
  O  O6  1  0.42387602  0.57612401  0.00000003  1
  O  O7  1  0.56559302  0.43440701  0.50000003  1
  O  O8  1  0.82402802  0.40702301  0.88354803  1
  O  O9  1  0.59297701  0.17597200  0.11645202  1
  O  O10  1  0.19426902  0.62835001  0.64728702  1
  O  O11  1  0.37165003  0.80573101  0.35271304  1
  O  O12  1  0.12271701  0.23794000  0.15637101  1
  O  O13  1  0.76206003  0.87728301  0.84362904  1
  O  O14  1  0.87935003  0.74143901  0.33588905  1
  O  O15  1  0.25856100  0.12065000  0.66411100  1
