# generated using pymatgen
data_Ca
_symmetry_space_group_name_H-M   'P 1'
_cell_length_a   7.58187199
_cell_length_b   9.77769756
_cell_length_c   9.77769852
_cell_angle_alpha   60.00000381
_cell_angle_beta   90.00000000
_cell_angle_gamma   90.00000000
_symmetry_Int_Tables_number   1
_chemical_formula_structural   Ca
_chemical_formula_sum   Ca16
_cell_volume   627.74077306
_cell_formula_units_Z   16
loop_
 _symmetry_equiv_pos_site_id
 _symmetry_equiv_pos_as_xyz
  1  'x, y, z'
loop_
 _atom_site_type_symbol
 _atom_site_label
 _atom_site_symmetry_multiplicity
 _atom_site_fract_x
 _atom_site_fract_y
 _atom_site_fract_z
 _atom_site_occupancy
  Ca  Ca0  1  1.00000000  0.33333335  0.33333335  1
  Ca  Ca1  1  0.50000000  0.66666669  0.66666671  1
  Ca  Ca2  1  1.00000000  0.66666669  0.66666671  1
  Ca  Ca3  1  0.50000000  0.33333335  0.33333335  1
  Ca  Ca4  1  0.75000000  0.00000000  0.25121801  1
  Ca  Ca5  1  0.25000000  0.25121801  1.00000005  1
  Ca  Ca6  1  0.25000000  0.74878203  0.25121802  1
  Ca  Ca7  1  0.75000000  0.25121801  0.74878204  1
  Ca  Ca8  1  0.75000000  0.74878203  1.00000006  1
  Ca  Ca9  1  0.25000000  0.00000000  0.74878204  1
  Ca  Ca10  1  0.75000000  0.00000000  0.60871203  1
  Ca  Ca11  1  0.25000000  0.60871202  0.00000001  1
  Ca  Ca12  1  0.25000000  0.39128802  0.60871203  1
  Ca  Ca13  1  0.75000000  0.60871202  0.39128802  1
  Ca  Ca14  1  0.75000000  0.39128802  1.00000005  1
  Ca  Ca15  1  0.25000000  0.00000000  0.39128802  1
