# generated using pymatgen
data_Tl3CrO3
_symmetry_space_group_name_H-M   'P 1'
_cell_length_a   3.96537399
_cell_length_b   6.74207306
_cell_length_c   12.78693295
_cell_angle_alpha   99.42001343
_cell_angle_beta   90.00000000
_cell_angle_gamma   90.00000000
_symmetry_Int_Tables_number   1
_chemical_formula_structural   Tl3CrO3
_chemical_formula_sum   'Tl6 Cr2 O6'
_cell_volume   337.24670241
_cell_formula_units_Z   2
loop_
 _symmetry_equiv_pos_site_id
 _symmetry_equiv_pos_as_xyz
  1  'x, y, z'
loop_
 _atom_site_type_symbol
 _atom_site_label
 _atom_site_symmetry_multiplicity
 _atom_site_fract_x
 _atom_site_fract_y
 _atom_site_fract_z
 _atom_site_occupancy
  Tl  Tl0  1  -0.00000000  0.23731300  0.69820901  1
  Tl  Tl1  1  -0.00000000  0.76268700  0.30179102  1
  Tl  Tl2  1  0.00000000  0.00000000  0.00000000  1
  Tl  Tl3  1  0.50000000  0.72270400  0.68649102  1
  Tl  Tl4  1  0.50000000  0.50000000  1.00000002  1
  Tl  Tl5  1  0.50000000  0.27729600  0.31350901  1
  Cr  Cr6  1  -0.00000000  0.10921300  0.37634701  1
  Cr  Cr7  1  0.50000000  0.64235100  0.36985802  1
  O  O8  1  0.50000000  0.79891400  0.89010902  1
  O  O9  1  1.00000000  0.70307200  0.11022202  1
  O  O10  1  -0.00000000  0.29692800  0.88977801  1
  O  O11  1  0.50000000  0.20108600  0.10989101  1
  O  O12  1  0.50000000  0.35764900  0.63014201  1
  O  O13  1  -0.00000000  0.89078700  0.62365302  1
