# generated using pymatgen
data_CeMgGa4
_symmetry_space_group_name_H-M   'P 1'
_cell_length_a   4.66192389
_cell_length_b   4.66192341
_cell_length_c   7.45599508
_cell_angle_alpha   90.00000000
_cell_angle_beta   90.00000000
_cell_angle_gamma   120.00000000
_symmetry_Int_Tables_number   1
_chemical_formula_structural   CeMgGa4
_chemical_formula_sum   'Ce1 Mg1 Ga4'
_cell_volume   140.33518043
_cell_formula_units_Z   1
loop_
 _symmetry_equiv_pos_site_id
 _symmetry_equiv_pos_as_xyz
  1  'x, y, z'
loop_
 _atom_site_type_symbol
 _atom_site_label
 _atom_site_symmetry_multiplicity
 _atom_site_fract_x
 _atom_site_fract_y
 _atom_site_fract_z
 _atom_site_occupancy
  Ce  Ce0  1  0.00000000  0.00000000  0.74816899  1
  Mg  Mg1  1  0.00000000  0.00000000  0.24816900  1
  Ga  Ga2  1  0.33333329  0.66666665  0.43389400  1
  Ga  Ga3  1  0.66666666  0.33333333  0.93389399  1
  Ga  Ga4  1  0.33333329  0.66666665  0.02823700  1
  Ga  Ga5  1  0.66666666  0.33333333  0.52823699  1
