# generated using pymatgen
data_BaCa2CuNi4O7
_symmetry_space_group_name_H-M   'P 1'
_cell_length_a   3.88992190
_cell_length_b   3.89960408
_cell_length_c   13.88942719
_cell_angle_alpha   81.93014526
_cell_angle_beta   90.00000000
_cell_angle_gamma   90.00000000
_symmetry_Int_Tables_number   1
_chemical_formula_structural   BaCa2CuNi4O7
_chemical_formula_sum   'Ba1 Ca2 Cu1 Ni4 O7'
_cell_volume   208.60454442
_cell_formula_units_Z   1
loop_
 _symmetry_equiv_pos_site_id
 _symmetry_equiv_pos_as_xyz
  1  'x, y, z'
loop_
 _atom_site_type_symbol
 _atom_site_label
 _atom_site_symmetry_multiplicity
 _atom_site_fract_x
 _atom_site_fract_y
 _atom_site_fract_z
 _atom_site_occupancy
  Ca  Ca0  1  0.50000001  0.36426999  0.27145999  1
  Ba  Ba1  1  0.50000001  0.63572999  0.72853998  1
  Ca  Ca2  1  0.50000001  0.49999999  -0.00000000  1
  Cu  Cu3  1  1.00000002  0.06155000  0.87689998  1
  Ni  Ni4  1  0.00000000  0.93844998  0.12309999  1
  Ni  Ni5  1  1.00000002  0.21265200  0.57469599  1
  Ni  Ni6  1  0.00000000  0.78734799  0.42530399  1
  Ni  Ni7  1  1.00000002  0.14540900  0.70918198  1
  O  O8  1  0.00000000  0.85459098  0.29081799  1
  O  O9  1  1.00000002  0.55209399  0.89581198  1
  O  O10  1  1.00000002  0.44790599  0.10418799  1
  O  O11  1  0.50000001  0.05227800  0.89544398  1
  O  O12  1  0.50000001  0.94772198  0.10455599  1
  O  O13  1  1.00000002  0.71848099  0.56303798  1
  O  O14  1  1.00000002  0.28151899  0.43696199  1
