# generated using pymatgen
data_NdMgGaPd
_symmetry_space_group_name_H-M   'P 1'
_cell_length_a   4.48742008
_cell_length_b   5.85618496
_cell_length_c   7.50635815
_cell_angle_alpha   90.00000000
_cell_angle_beta   90.00000000
_cell_angle_gamma   112.52801514
_symmetry_Int_Tables_number   1
_chemical_formula_structural   NdMgGaPd
_chemical_formula_sum   'Nd2 Mg2 Ga2 Pd2'
_cell_volume   182.20828492
_cell_formula_units_Z   2
loop_
 _symmetry_equiv_pos_site_id
 _symmetry_equiv_pos_as_xyz
  1  'x, y, z'
loop_
 _atom_site_type_symbol
 _atom_site_label
 _atom_site_symmetry_multiplicity
 _atom_site_fract_x
 _atom_site_fract_y
 _atom_site_fract_z
 _atom_site_occupancy
  Nd  Nd0  1  0.93200201  0.86400400  0.74999999  1
  Nd  Nd1  1  0.06799800  0.13599600  0.25000000  1
  Mg  Mg2  1  0.35775202  0.71550400  0.44997299  1
  Mg  Mg3  1  0.64224800  0.28449600  0.55002699  1
  Ga  Ga4  1  0.35775202  0.71550400  0.05002700  1
  Ga  Ga5  1  0.64224800  0.28449600  0.94997298  1
  Pd  Pd6  1  0.78702700  0.57405400  0.25000000  1
  Pd  Pd7  1  0.21297301  0.42594600  0.74999999  1
