# generated using pymatgen
data_LiMn6(Ni2Ge)2
_symmetry_space_group_name_H-M   'P 1'
_cell_length_a   5.16699982
_cell_length_b   5.16700077
_cell_length_c   8.13119602
_cell_angle_alpha   90.00000000
_cell_angle_beta   90.00000000
_cell_angle_gamma   119.99999237
_symmetry_Int_Tables_number   1
_chemical_formula_structural   LiMn6(Ni2Ge)2
_chemical_formula_sum   'Li1 Mn6 Ni4 Ge2'
_cell_volume   188.00182644
_cell_formula_units_Z   1
loop_
 _symmetry_equiv_pos_site_id
 _symmetry_equiv_pos_as_xyz
  1  'x, y, z'
loop_
 _atom_site_type_symbol
 _atom_site_label
 _atom_site_symmetry_multiplicity
 _atom_site_fract_x
 _atom_site_fract_y
 _atom_site_fract_z
 _atom_site_occupancy
  Li  Li0  1  0.00000000  0.00000000  0.00000000  1
  Mn  Mn1  1  -0.00000004  0.49999997  0.25040100  1
  Mn  Mn2  1  0.49999998  0.49999997  0.74959900  1
  Mn  Mn3  1  0.50000002  0.00000000  0.74959900  1
  Mn  Mn4  1  -0.00000004  0.49999997  0.74959900  1
  Mn  Mn5  1  0.49999998  0.49999997  0.25040100  1
  Mn  Mn6  1  0.50000002  0.00000000  0.25040100  1
  Ni  Ni7  1  0.00000000  0.00000000  0.34333700  1
  Ge  Ge8  1  0.66666667  0.33333331  0.50000000  1
  Ge  Ge9  1  0.33333330  0.66666663  0.50000000  1
  Ni  Ni10  1  0.66666667  0.33333331  -0.00000000  1
  Ni  Ni11  1  0.33333330  0.66666663  -0.00000000  1
  Ni  Ni12  1  0.00000000  0.00000000  0.65666300  1
