# generated using pymatgen
data_Ca4HfZr(RuO6)2
_symmetry_space_group_name_H-M   'P 1'
_cell_length_a   5.53555107
_cell_length_b   5.72741890
_cell_length_c   7.94457102
_cell_angle_alpha   90.00000000
_cell_angle_beta   90.02879333
_cell_angle_gamma   90.00000000
_symmetry_Int_Tables_number   1
_chemical_formula_structural   Ca4HfZr(RuO6)2
_chemical_formula_sum   'Ca4 Hf1 Zr1 Ru2 O12'
_cell_volume   251.87798308
_cell_formula_units_Z   1
loop_
 _symmetry_equiv_pos_site_id
 _symmetry_equiv_pos_as_xyz
  1  'x, y, z'
loop_
 _atom_site_type_symbol
 _atom_site_label
 _atom_site_symmetry_multiplicity
 _atom_site_fract_x
 _atom_site_fract_y
 _atom_site_fract_z
 _atom_site_occupancy
  Ca  Ca0  1  0.98650399  0.44722101  0.24920404  1
  Ca  Ca1  1  0.01349600  0.55277901  0.75079600  1
  Ca  Ca2  1  0.51349599  0.94722102  0.25079602  1
  Ca  Ca3  1  0.48650399  0.05277900  0.74920402  1
  Zr  Zr4  1  0.00000000  0.00000000  0.00000000  1
  Hf  Hf5  1  0.49999999  0.50000001  0.50000002  1
  Ru  Ru6  1  0.00000000  0.00000000  0.50000000  1
  Ru  Ru7  1  0.49999999  0.50000001  0.00000002  1
  O  O8  1  0.09911000  0.03336500  0.25647400  1
  O  O9  1  0.90088999  0.96663502  0.74352603  1
  O  O10  1  0.40088999  0.53336501  0.24352602  1
  O  O11  1  0.59910999  0.46663501  0.75647402  1
  O  O12  1  0.79299199  0.69654301  0.05108203  1
  O  O13  1  0.20700800  0.30345701  0.94891801  1
  O  O14  1  0.70700799  0.19654300  0.44891803  1
  O  O15  1  0.29299200  0.80345701  0.55108201  1
  O  O16  1  0.69436099  0.20913300  0.05425903  1
  O  O17  1  0.30563900  0.79086701  0.94574101  1
  O  O18  1  0.80563899  0.70913301  0.44574103  1
  O  O19  1  0.19436100  0.29086701  0.55425901  1
