# generated using pymatgen
data_Ce2Al17
_symmetry_space_group_name_H-M   'P 1'
_cell_length_a   6.32439184
_cell_length_b   6.32439184
_cell_length_c   6.32439184
_cell_angle_alpha   82.93962860
_cell_angle_beta   82.93962097
_cell_angle_gamma   82.93962097
_symmetry_Int_Tables_number   1
_chemical_formula_structural   Ce2Al17
_chemical_formula_sum   'Ce2 Al17'
_cell_volume   247.64374192
_cell_formula_units_Z   1
loop_
 _symmetry_equiv_pos_site_id
 _symmetry_equiv_pos_as_xyz
  1  'x, y, z'
loop_
 _atom_site_type_symbol
 _atom_site_label
 _atom_site_symmetry_multiplicity
 _atom_site_fract_x
 _atom_site_fract_y
 _atom_site_fract_z
 _atom_site_occupancy
  Ce  Ce0  1  0.34338401  0.34338401  0.34338400  1
  Ce  Ce1  1  0.64936503  0.64936502  0.64936500  1
  Al  Al2  1  0.90870004  0.90870002  0.90870000  1
  Al  Al3  1  0.14887203  0.65675402  0.65675398  1
  Al  Al4  1  0.65675400  0.14887200  0.65675404  1
  Al  Al5  1  0.65675403  0.65675402  0.14887199  1
  Al  Al6  1  0.85181501  0.34260901  0.34260903  1
  Al  Al7  1  0.34260904  0.85181502  0.34260897  1
  Al  Al8  1  0.34260901  0.34260901  0.85181501  1
  Al  Al9  1  0.00170401  0.28978601  0.71141600  1
  Al  Al10  1  0.71141599  0.00170400  0.28978604  1
  Al  Al11  1  0.28978603  0.71141602  0.00170397  1
  Al  Al12  1  0.28978600  0.00170400  0.71141603  1
  Al  Al13  1  0.71141601  0.28978601  0.00170402  1
  Al  Al14  1  0.00170403  0.71141602  0.28978596  1
  Al  Al15  1  0.50001904  0.99901002  0.99900998  1
  Al  Al16  1  0.99901002  0.50001901  0.99901004  1
  Al  Al17  1  0.99901004  0.99901002  0.50001899  1
  Al  Al18  1  0.09529000  0.09529000  0.09529000  1
