# generated using pymatgen
data_Fe3Co2Pd
_symmetry_space_group_name_H-M   'P 1'
_cell_length_a   4.10051203
_cell_length_b   4.10051155
_cell_length_c   5.10417795
_cell_angle_alpha   90.00000000
_cell_angle_beta   90.00000000
_cell_angle_gamma   120.00000763
_symmetry_Int_Tables_number   1
_chemical_formula_structural   Fe3Co2Pd
_chemical_formula_sum   'Fe3 Co2 Pd1'
_cell_volume   74.32459224
_cell_formula_units_Z   1
loop_
 _symmetry_equiv_pos_site_id
 _symmetry_equiv_pos_as_xyz
  1  'x, y, z'
loop_
 _atom_site_type_symbol
 _atom_site_label
 _atom_site_symmetry_multiplicity
 _atom_site_fract_x
 _atom_site_fract_y
 _atom_site_fract_z
 _atom_site_occupancy
  Fe  Fe0  1  0.00000000  0.00000000  0.50000000  1
  Fe  Fe1  1  0.00000000  0.00000000  0.00000000  1
  Fe  Fe2  1  0.66666669  0.33333334  0.75000001  1
  Co  Co3  1  0.33333338  0.66666668  0.25000000  1
  Pd  Pd4  1  0.33333338  0.66666668  0.75000001  1
  Co  Co5  1  0.66666669  0.33333334  0.25000000  1
