# generated using pymatgen
data_CeO2
_symmetry_space_group_name_H-M   'P 1'
_cell_length_a   3.80822897
_cell_length_b   6.31091022
_cell_length_c   7.26217699
_cell_angle_alpha   90.00000000
_cell_angle_beta   90.00000000
_cell_angle_gamma   90.00000000
_symmetry_Int_Tables_number   1
_chemical_formula_structural   CeO2
_chemical_formula_sum   'Ce4 O8'
_cell_volume   174.53474016
_cell_formula_units_Z   4
loop_
 _symmetry_equiv_pos_site_id
 _symmetry_equiv_pos_as_xyz
  1  'x, y, z'
loop_
 _atom_site_type_symbol
 _atom_site_label
 _atom_site_symmetry_multiplicity
 _atom_site_fract_x
 _atom_site_fract_y
 _atom_site_fract_z
 _atom_site_occupancy
  Ce  Ce0  1  0.25000000  0.85881097  0.07131800  1
  Ce  Ce1  1  0.75000001  0.14118899  0.92868200  1
  Ce  Ce2  1  0.25000000  0.35881099  0.42868200  1
  Ce  Ce3  1  0.75000001  0.64118898  0.57131800  1
  O  O4  1  0.75000001  0.02241400  0.33440500  1
  O  O5  1  0.25000000  0.97758597  0.66559500  1
  O  O6  1  0.75000001  0.52241398  0.16559500  1
  O  O7  1  0.25000000  0.47758598  0.83440500  1
  O  O8  1  0.25000000  0.24502499  0.11117200  1
  O  O9  1  0.75000001  0.75497497  0.88882800  1
  O  O10  1  0.25000000  0.74502497  0.38882800  1
  O  O11  1  0.75000001  0.25497499  0.61117200  1
