# generated using pymatgen
data_B
_symmetry_space_group_name_H-M   'P 1'
_cell_length_a   4.13491583
_cell_length_b   4.91315746
_cell_length_c   4.91315746
_cell_angle_alpha   72.01987457
_cell_angle_beta   65.11487579
_cell_angle_gamma   65.11487579
_symmetry_Int_Tables_number   1
_chemical_formula_structural   B
_chemical_formula_sum   B4
_cell_volume   81.08167966
_cell_formula_units_Z   4
loop_
 _symmetry_equiv_pos_site_id
 _symmetry_equiv_pos_as_xyz
  1  'x, y, z'
loop_
 _atom_site_type_symbol
 _atom_site_label
 _atom_site_symmetry_multiplicity
 _atom_site_fract_x
 _atom_site_fract_y
 _atom_site_fract_z
 _atom_site_occupancy
  B  B0  1  0.00931497  0.99068504  0.99068498  1
  B  B1  1  0.50839802  0.49160202  0.49160197  1
  B  B2  1  0.60997802  0.57641903  0.20362496  1
  B  B3  1  0.60997903  0.20362501  0.57641798  1
