# generated using pymatgen
data_Li3FeHO5
_symmetry_space_group_name_H-M   'P 1'
_cell_length_a   5.64112997
_cell_length_b   6.78329420
_cell_length_c   6.86333132
_cell_angle_alpha   119.61498260
_cell_angle_beta   114.26525116
_cell_angle_gamma   90.00000000
_symmetry_Int_Tables_number   1
_chemical_formula_structural   Li3FeHO5
_chemical_formula_sum   'Li6 Fe2 H2 O10'
_cell_volume   201.19932377
_cell_formula_units_Z   2
loop_
 _symmetry_equiv_pos_site_id
 _symmetry_equiv_pos_as_xyz
  1  'x, y, z'
loop_
 _atom_site_type_symbol
 _atom_site_label
 _atom_site_symmetry_multiplicity
 _atom_site_fract_x
 _atom_site_fract_y
 _atom_site_fract_z
 _atom_site_occupancy
  Li  Li0  1  0.50413901  0.00154400  0.50827800  1
  Li  Li1  1  0.49586102  0.49326599  0.49172201  1
  Li  Li2  1  0.50000002  0.99036398  1.00000000  1
  Li  Li3  1  0.00000002  0.99036398  0.00000001  1
  Li  Li4  1  0.21648401  0.65672498  0.93296899  1
  Fe  Fe5  1  0.78351502  0.72375598  0.06703002  1
  Li  Li6  1  0.78447902  0.32424599  0.06895902  1
  Fe  Fe7  1  0.21552001  0.25528699  0.93103999  1
  H  H8  1  0.99647602  0.23693399  0.49295201  1
  H  H9  1  0.00352401  0.74398198  0.50704800  1
  O  O10  1  0.88263302  0.62068499  0.26526602  1
  O  O11  1  0.11736601  0.35541799  0.73473299  1
  O  O12  1  0.13588800  0.17565300  0.36802700  1
  O  O13  1  0.86411203  0.80762598  0.63197301  1
  O  O14  1  0.26786102  0.80762598  0.63197300  1
  O  O15  1  0.73213901  0.17565300  0.36802701  1
  O  O16  1  0.27356401  0.19713900  0.04712801  1
  O  O17  1  0.72643601  0.15001100  0.95287200  1
  O  O18  1  0.72636702  0.78322798  0.95273400  1
  O  O19  1  0.27363302  0.83049398  0.04726601  1
