# generated using pymatgen
data_MgCu7S8
_symmetry_space_group_name_H-M   'P 1'
_cell_length_a   6.27232504
_cell_length_b   6.54621696
_cell_length_c   7.66311216
_cell_angle_alpha   90.00000000
_cell_angle_beta   90.00000000
_cell_angle_gamma   90.00000000
_symmetry_Int_Tables_number   1
_chemical_formula_structural   MgCu7S8
_chemical_formula_sum   'Mg1 Cu7 S8'
_cell_volume   314.64738986
_cell_formula_units_Z   1
loop_
 _symmetry_equiv_pos_site_id
 _symmetry_equiv_pos_as_xyz
  1  'x, y, z'
loop_
 _atom_site_type_symbol
 _atom_site_label
 _atom_site_symmetry_multiplicity
 _atom_site_fract_x
 _atom_site_fract_y
 _atom_site_fract_z
 _atom_site_occupancy
  Mg  Mg0  1  0.99741599  0.66019500  0.49999999  1
  Cu  Cu1  1  0.49741600  0.33980500  -0.00000000  1
  Cu  Cu2  1  0.00487400  0.17555400  0.75138898  1
  Cu  Cu3  1  0.00487400  0.17555400  0.24861099  1
  Cu  Cu4  1  0.50487400  0.82444600  0.74861098  1
  Cu  Cu5  1  0.50487400  0.82444600  0.25138899  1
  Cu  Cu6  1  0.49879200  0.32446100  0.49999999  1
  Cu  Cu7  1  0.99879199  0.67553900  -0.00000000  1
  S  S8  1  0.37102100  0.15641000  0.73656098  1
  S  S9  1  0.37102100  0.15641000  0.26343899  1
  S  S10  1  0.87102099  0.84359000  0.76343898  1
  S  S11  1  0.87102099  0.84359000  0.23656099  1
  S  S12  1  0.86042899  0.30973100  0.49999999  1
  S  S13  1  0.36042900  0.69026900  -0.00000000  1
  S  S14  1  0.39149300  0.65498600  0.49999999  1
  S  S15  1  0.89149299  0.34501400  0.00000000  1
