# generated using pymatgen
data_TaFeRu
_symmetry_space_group_name_H-M   'P 1'
_cell_length_a   3.66923308
_cell_length_b   4.21420050
_cell_length_c   4.21642590
_cell_angle_alpha   119.95357513
_cell_angle_beta   90.00000000
_cell_angle_gamma   90.00000000
_symmetry_Int_Tables_number   1
_chemical_formula_structural   TaFeRu
_chemical_formula_sum   'Ta1 Fe1 Ru1'
_cell_volume   56.48960976
_cell_formula_units_Z   1
loop_
 _symmetry_equiv_pos_site_id
 _symmetry_equiv_pos_as_xyz
  1  'x, y, z'
loop_
 _atom_site_type_symbol
 _atom_site_label
 _atom_site_symmetry_multiplicity
 _atom_site_fract_x
 _atom_site_fract_y
 _atom_site_fract_z
 _atom_site_occupancy
  Ta  Ta0  1  0.99999998  0.99980704  0.99972194  1
  Fe  Fe1  1  0.49999999  0.33327801  0.66694896  1
  Ru  Ru2  1  0.49999999  0.66681503  0.33333331  1
