# generated using pymatgen
data_Se
_symmetry_space_group_name_H-M   'P 1'
_cell_length_a   3.55956006
_cell_length_b   3.55956054
_cell_length_c   40.10774612
_cell_angle_alpha   90.00000000
_cell_angle_beta   90.00000000
_cell_angle_gamma   119.99999237
_symmetry_Int_Tables_number   1
_chemical_formula_structural   Se
_chemical_formula_sum   Se12
_cell_volume   440.10026585
_cell_formula_units_Z   12
loop_
 _symmetry_equiv_pos_site_id
 _symmetry_equiv_pos_as_xyz
  1  'x, y, z'
loop_
 _atom_site_type_symbol
 _atom_site_label
 _atom_site_symmetry_multiplicity
 _atom_site_fract_x
 _atom_site_fract_y
 _atom_site_fract_z
 _atom_site_occupancy
  Se  Se0  1  0.66666664  0.33333332  0.04863100  1
  Se  Se1  1  0.66666664  0.33333332  0.67307298  1
  Se  Se2  1  0.33333329  0.66666665  0.32692699  1
  Se  Se3  1  0.33333329  0.66666665  0.95136897  1
  Se  Se4  1  0.33333329  0.66666665  0.23666599  1
  Se  Se5  1  0.33333329  0.66666665  0.86076098  1
  Se  Se6  1  0.66666664  0.33333332  0.13923900  1
  Se  Se7  1  0.66666664  0.33333332  0.76333398  1
  Se  Se8  1  0.66666664  0.33333332  0.28181199  1
  Se  Se9  1  0.33333329  0.66666665  0.71818798  1
  Se  Se10  1  0.66666664  0.33333332  0.90607097  1
  Se  Se11  1  0.33333329  0.66666665  0.09392900  1
