# generated using pymatgen
data_Li2Mn2CoO8
_symmetry_space_group_name_H-M   'P 1'
_cell_length_a   2.97209692
_cell_length_b   7.29111910
_cell_length_c   7.31308603
_cell_angle_alpha   87.70807648
_cell_angle_beta   78.33343506
_cell_angle_gamma   78.31363678
_symmetry_Int_Tables_number   1
_chemical_formula_structural   Li2Mn2CoO8
_chemical_formula_sum   'Li2 Mn2 Co1 O8'
_cell_volume   151.98280787
_cell_formula_units_Z   1
loop_
 _symmetry_equiv_pos_site_id
 _symmetry_equiv_pos_as_xyz
  1  'x, y, z'
loop_
 _atom_site_type_symbol
 _atom_site_label
 _atom_site_symmetry_multiplicity
 _atom_site_fract_x
 _atom_site_fract_y
 _atom_site_fract_z
 _atom_site_occupancy
  Li  Li0  1  0.15583614  0.99447999  0.99544604  1
  Li  Li1  1  0.83979808  0.48768999  0.83085605  1
  Mn  Mn2  1  0.66745404  0.19534900  0.47630503  1
  Mn  Mn3  1  0.33163612  0.81478999  0.51074304  1
  Co  Co4  1  0.15927507  0.51617099  0.18403802  1
  O  O5  1  0.34354309  0.62626399  0.70931504  1
  O  O6  1  0.67300506  0.38044100  0.29276503  1
  O  O7  1  0.97524611  0.70069699  0.37138105  1
  O  O8  1  0.05093104  0.29137500  0.62700602  1
  O  O9  1  0.35432605  0.35669200  0.95721903  1
  O  O10  1  0.66772410  0.63803699  0.05285903  1
  O  O11  1  0.72176014  0.94737199  0.63792205  1
  O  O12  1  0.30946601  0.05064200  0.35414601  1
