# generated using pymatgen
data_Dy5Sn4
_symmetry_space_group_name_H-M   'P 1'
_cell_length_a   7.88181400
_cell_length_b   8.50986290
_cell_length_c   7.91174412
_cell_angle_alpha   90.00000000
_cell_angle_beta   90.00000000
_cell_angle_gamma   117.58724976
_symmetry_Int_Tables_number   1
_chemical_formula_structural   Dy5Sn4
_chemical_formula_sum   'Dy10 Sn8'
_cell_volume   470.33249957
_cell_formula_units_Z   2
loop_
 _symmetry_equiv_pos_site_id
 _symmetry_equiv_pos_as_xyz
  1  'x, y, z'
loop_
 _atom_site_type_symbol
 _atom_site_label
 _atom_site_symmetry_multiplicity
 _atom_site_fract_x
 _atom_site_fract_y
 _atom_site_fract_z
 _atom_site_occupancy
  Dy  Dy0  1  0.96335501  0.25599500  0.66388299  1
  Dy  Dy1  1  0.03664503  0.74400499  0.33611699  1
  Dy  Dy2  1  0.53664503  0.74400499  0.16388300  1
  Dy  Dy3  1  0.20736003  0.74400499  0.83611699  1
  Dy  Dy4  1  0.46335501  0.25599500  0.83611699  1
  Dy  Dy5  1  0.79264001  0.25599500  0.16388300  1
  Dy  Dy6  1  0.29264001  0.25599500  0.33611699  1
  Dy  Dy7  1  0.70736003  0.74400499  0.66388299  1
  Dy  Dy8  1  0.00000000  0.00000000  0.00000000  1
  Dy  Dy9  1  0.50000004  0.99999998  0.49999999  1
  Sn  Sn10  1  0.63858504  0.99999998  0.86256899  1
  Sn  Sn11  1  0.36141504  0.99999998  0.13743100  1
  Sn  Sn12  1  0.86141500  0.00000000  0.36256899  1
  Sn  Sn13  1  0.13858500  0.00000000  0.63743099  1
  Sn  Sn14  1  0.20495402  0.40990799  0.99999999  1
  Sn  Sn15  1  0.79504603  0.59009199  0.99999999  1
  Sn  Sn16  1  0.29504603  0.59009199  0.49999999  1
  Sn  Sn17  1  0.70495402  0.40990799  0.49999999  1
