# generated using pymatgen
data_Li5EuNiO11
_symmetry_space_group_name_H-M   'P 1'
_cell_length_a   4.94946194
_cell_length_b   4.94946146
_cell_length_c   10.96952820
_cell_angle_alpha   90.00000000
_cell_angle_beta   90.00000000
_cell_angle_gamma   120.00000763
_symmetry_Int_Tables_number   1
_chemical_formula_structural   Li5EuNiO11
_chemical_formula_sum   'Li5 Eu1 Ni1 O11'
_cell_volume   232.72041506
_cell_formula_units_Z   1
loop_
 _symmetry_equiv_pos_site_id
 _symmetry_equiv_pos_as_xyz
  1  'x, y, z'
loop_
 _atom_site_type_symbol
 _atom_site_label
 _atom_site_symmetry_multiplicity
 _atom_site_fract_x
 _atom_site_fract_y
 _atom_site_fract_z
 _atom_site_occupancy
  Li  Li0  1  0.00000000  0.00000000  0.74999999  1
  Eu  Eu1  1  0.00000000  0.00000000  0.25000000  1
  Li  Li2  1  0.33333338  0.66666666  -0.00000000  1
  Li  Li3  1  0.66666669  0.33333333  0.99999998  1
  Li  Li4  1  0.33333338  0.66666666  0.49999999  1
  Li  Li5  1  0.66666669  0.33333333  0.49999999  1
  Ni  Ni6  1  0.38399206  0.99999999  0.90325498  1
  O  O7  1  0.61600804  0.61600800  0.90325498  1
  O  O8  1  0.00000002  0.38399200  0.90325498  1
  O  O9  1  0.38399206  0.99999999  0.59674499  1
  O  O10  1  0.61600804  0.61600800  0.59674499  1
  O  O11  1  0.00000002  0.38399200  0.59674499  1
  O  O12  1  0.38399203  0.38399200  0.40325499  1
  O  O13  1  0.61600801  0.00000000  0.40325499  1
  O  O14  1  0.00000004  0.61600800  0.40325499  1
  O  O15  1  0.61600801  0.00000000  0.09674500  1
  O  O16  1  0.38399203  0.38399200  0.09674500  1
  O  O17  1  0.00000004  0.61600800  0.09674500  1
