# generated using pymatgen
data_KTl3(SnPd)2
_symmetry_space_group_name_H-M   'P 1'
_cell_length_a   5.08262014
_cell_length_b   5.08262014
_cell_length_c   10.07058525
_cell_angle_alpha   90.00000000
_cell_angle_beta   90.00000000
_cell_angle_gamma   120.00000000
_symmetry_Int_Tables_number   1
_chemical_formula_structural   KTl3(SnPd)2
_chemical_formula_sum   'K1 Tl3 Sn2 Pd2'
_cell_volume   225.29971828
_cell_formula_units_Z   1
loop_
 _symmetry_equiv_pos_site_id
 _symmetry_equiv_pos_as_xyz
  1  'x, y, z'
loop_
 _atom_site_type_symbol
 _atom_site_label
 _atom_site_symmetry_multiplicity
 _atom_site_fract_x
 _atom_site_fract_y
 _atom_site_fract_z
 _atom_site_occupancy
  K  K0  1  0.33333332  0.66666664  0.92034798  1
  Tl  Tl1  1  0.33333332  0.66666664  0.57965199  1
  Tl  Tl2  1  0.66666665  0.33333332  0.42034799  1
  Tl  Tl3  1  0.66666665  0.33333332  0.07965200  1
  Sn  Sn4  1  0.00000000  0.00000000  0.74999998  1
  Sn  Sn5  1  0.00000000  0.00000000  0.24999999  1
  Pd  Pd6  1  0.66666665  0.33333332  0.74999998  1
  Pd  Pd7  1  0.33333332  0.66666664  0.24999999  1
