# generated using pymatgen
data_Fe
_symmetry_space_group_name_H-M   'P 1'
_cell_length_a   4.72617579
_cell_length_b   6.27842331
_cell_length_c   6.27842331
_cell_angle_alpha   82.28488922
_cell_angle_beta   67.89022064
_cell_angle_gamma   67.89022064
_symmetry_Int_Tables_number   1
_chemical_formula_structural   Fe
_chemical_formula_sum   Fe13
_cell_volume   159.90142030
_cell_formula_units_Z   13
loop_
 _symmetry_equiv_pos_site_id
 _symmetry_equiv_pos_as_xyz
  1  'x, y, z'
loop_
 _atom_site_type_symbol
 _atom_site_label
 _atom_site_symmetry_multiplicity
 _atom_site_fract_x
 _atom_site_fract_y
 _atom_site_fract_z
 _atom_site_occupancy
  Fe  Fe0  1  0.00000000  0.00000000  0.00000000  1
  Fe  Fe1  1  0.00000000  0.36017101  0.63982900  1
  Fe  Fe2  1  0.00000000  0.63982902  0.36017098  1
  Fe  Fe3  1  0.64983803  0.35016201  0.35016198  1
  Fe  Fe4  1  0.35016202  0.64983802  0.64983798  1
  Fe  Fe5  1  0.69876904  0.80123102  0.80123097  1
  Fe  Fe6  1  0.30123102  0.19876901  0.19876899  1
  Fe  Fe7  1  0.00000000  0.00000000  0.50000001  1
  Fe  Fe8  1  0.50000003  0.00000000  0.50000001  1
  Fe  Fe9  1  0.50000003  0.50000001  -0.00000003  1
  Fe  Fe10  1  0.00000000  0.50000001  -0.00000002  1
  Fe  Fe11  1  0.50000003  0.76718202  0.23281796  1
  Fe  Fe12  1  0.50000003  0.23281801  0.76718200  1
