# generated using pymatgen
data_LiNb5Mo2
_symmetry_space_group_name_H-M   'P 1'
_cell_length_a   4.65949202
_cell_length_b   5.75272799
_cell_length_c   5.75272751
_cell_angle_alpha   120.00000000
_cell_angle_beta   90.00000000
_cell_angle_gamma   90.00000000
_symmetry_Int_Tables_number   1
_chemical_formula_structural   LiNb5Mo2
_chemical_formula_sum   'Li1 Nb5 Mo2'
_cell_volume   133.54168318
_cell_formula_units_Z   1
loop_
 _symmetry_equiv_pos_site_id
 _symmetry_equiv_pos_as_xyz
  1  'x, y, z'
loop_
 _atom_site_type_symbol
 _atom_site_label
 _atom_site_symmetry_multiplicity
 _atom_site_fract_x
 _atom_site_fract_y
 _atom_site_fract_z
 _atom_site_occupancy
  Nb  Nb0  1  0.25000000  0.66666665  0.33333329  1
  Li  Li1  1  0.75000000  0.33333332  0.66666664  1
  Nb  Nb2  1  0.75000000  0.83292098  0.16707895  1
  Nb  Nb3  1  0.75000000  0.33415799  0.16707898  1
  Nb  Nb4  1  0.75000000  0.83292098  0.66584195  1
  Nb  Nb5  1  0.25000000  0.16707900  0.83292099  1
  Mo  Mo6  1  0.25000000  0.66584198  0.83292096  1
  Mo  Mo7  1  0.25000000  0.16707900  0.33415799  1
