# generated using pymatgen
data_Ce4AlSiP10
_symmetry_space_group_name_H-M   'P 1'
_cell_length_a   6.60480881
_cell_length_b   7.84727716
_cell_length_c   8.25910378
_cell_angle_alpha   90.00000000
_cell_angle_beta   105.19624329
_cell_angle_gamma   90.00000000
_symmetry_Int_Tables_number   1
_chemical_formula_structural   Ce4AlSiP10
_chemical_formula_sum   'Ce4 Al1 Si1 P10'
_cell_volume   413.09946988
_cell_formula_units_Z   1
loop_
 _symmetry_equiv_pos_site_id
 _symmetry_equiv_pos_as_xyz
  1  'x, y, z'
loop_
 _atom_site_type_symbol
 _atom_site_label
 _atom_site_symmetry_multiplicity
 _atom_site_fract_x
 _atom_site_fract_y
 _atom_site_fract_z
 _atom_site_occupancy
  Ce  Ce0  1  0.68862202  0.11064600  0.30259398  1
  Ce  Ce1  1  0.31137801  0.61064599  0.19740599  1
  Ce  Ce2  1  0.31137801  0.88935398  0.69740597  1
  Ce  Ce3  1  0.68862202  0.38935399  0.80259396  1
  Al  Al4  1  0.96209203  0.63168499  0.44669998  1
  Si  Si5  1  0.03790800  0.13168500  0.05330000  1
  P  P6  1  0.03790800  0.36831499  0.55329998  1
  P  P7  1  0.96209203  0.86831498  0.94669996  1
  P  P8  1  0.81152002  0.54221499  0.18796599  1
  P  P9  1  0.18848001  0.04221500  0.31203399  1
  P  P10  1  0.18848001  0.45778499  0.81203397  1
  P  P11  1  0.81152002  0.95778498  0.68796597  1
  P  P12  1  0.69846402  0.77097598  0.04180700  1
  P  P13  1  0.30153601  0.27097599  0.45819298  1
  P  P14  1  0.30153601  0.22902400  0.95819296  1
  P  P15  1  0.69846402  0.72902398  0.54180698  1
