# generated using pymatgen
data_LaTh2Ir
_symmetry_space_group_name_H-M   'P 1'
_cell_length_a   3.78859806
_cell_length_b   4.60718203
_cell_length_c   6.30259943
_cell_angle_alpha   90.00000000
_cell_angle_beta   107.49114227
_cell_angle_gamma   90.00000000
_symmetry_Int_Tables_number   1
_chemical_formula_structural   LaTh2Ir
_chemical_formula_sum   'La1 Th2 Ir1'
_cell_volume   104.92386375
_cell_formula_units_Z   1
loop_
 _symmetry_equiv_pos_site_id
 _symmetry_equiv_pos_as_xyz
  1  'x, y, z'
loop_
 _atom_site_type_symbol
 _atom_site_label
 _atom_site_symmetry_multiplicity
 _atom_site_fract_x
 _atom_site_fract_y
 _atom_site_fract_z
 _atom_site_occupancy
  Th  Th0  1  0.84883198  0.75000000  0.69766402  1
  La  La1  1  0.15116800  0.25000000  0.30233601  1
  Th  Th2  1  0.57532399  0.75000000  0.15064800  1
  Ir  Ir3  1  0.42467599  0.25000000  0.84935202  1
