# generated using pymatgen
data_K5LiBi3
_symmetry_space_group_name_H-M   'P 1'
_cell_length_a   7.91269207
_cell_length_b   7.91269207
_cell_length_c   8.69195843
_cell_angle_alpha   62.92392349
_cell_angle_beta   62.92392349
_cell_angle_gamma   60.00000000
_symmetry_Int_Tables_number   1
_chemical_formula_structural   K5LiBi3
_chemical_formula_sum   'K5 Li1 Bi3'
_cell_volume   400.95261188
_cell_formula_units_Z   1
loop_
 _symmetry_equiv_pos_site_id
 _symmetry_equiv_pos_as_xyz
  1  'x, y, z'
loop_
 _atom_site_type_symbol
 _atom_site_label
 _atom_site_symmetry_multiplicity
 _atom_site_fract_x
 _atom_site_fract_y
 _atom_site_fract_z
 _atom_site_occupancy
  K  K0  1  0.32922699  0.32922700  0.01231902  1
  K  K1  1  0.67077297  0.67077299  0.98768103  1
  Li  Li2  1  0.00000000  0.00000000  0.00000000  1
  K  K3  1  0.61391098  0.23422800  0.24081702  1
  K  K4  1  0.91104397  0.61391099  0.24081704  1
  K  K5  1  0.23422798  0.91104399  0.24081703  1
  Bi  Bi6  1  0.38608898  0.76577199  0.75918303  1
  Bi  Bi7  1  0.08895599  0.38608899  0.75918301  1
  Bi  Bi8  1  0.76577198  0.08895600  0.75918302  1
