# generated using pymatgen
data_Li6MnO11
_symmetry_space_group_name_H-M   'P 1'
_cell_length_a   4.69671488
_cell_length_b   4.74576092
_cell_length_c   9.38205338
_cell_angle_alpha   90.97554779
_cell_angle_beta   90.00000000
_cell_angle_gamma   90.00000000
_symmetry_Int_Tables_number   1
_chemical_formula_structural   Li6MnO11
_chemical_formula_sum   'Li6 Mn1 O11'
_cell_volume   209.09083488
_cell_formula_units_Z   1
loop_
 _symmetry_equiv_pos_site_id
 _symmetry_equiv_pos_as_xyz
  1  'x, y, z'
loop_
 _atom_site_type_symbol
 _atom_site_label
 _atom_site_symmetry_multiplicity
 _atom_site_fract_x
 _atom_site_fract_y
 _atom_site_fract_z
 _atom_site_occupancy
  Li  Li0  1  0.50000001  0.50000001  0.50000003  1
  Li  Li1  1  0.00000000  0.00000000  0.00000000  1
  Li  Li2  1  0.49056601  0.49979701  0.83200804  1
  Li  Li3  1  0.00943400  0.99979703  0.33200803  1
  Li  Li4  1  0.50943401  0.50020301  0.16799202  1
  Li  Li5  1  0.99056603  0.00020300  0.66799203  1
  O  O6  1  0.30522001  0.31437401  0.33081602  1
  Mn  Mn7  1  0.19478001  0.81437402  0.83081605  1
  O  O8  1  0.69478002  0.68562602  0.66918404  1
  O  O9  1  0.80522002  0.18562600  0.16918401  1
  O  O10  1  0.22447401  0.81624502  0.17352902  1
  O  O11  1  0.27552601  0.31624501  0.67352903  1
  O  O12  1  0.77552602  0.18375500  0.82647104  1
  O  O13  1  0.72447402  0.68375502  0.32647103  1
  O  O14  1  0.20023001  0.81894802  0.50188204  1
  O  O15  1  0.29977001  0.31894801  0.00188201  1
  O  O16  1  0.79977002  0.18105200  0.49811802  1
  O  O17  1  0.70023002  0.68105202  0.99811805  1
