# generated using pymatgen
data_Li5MnCdBr5O2
_symmetry_space_group_name_H-M   'P 1'
_cell_length_a   7.56783295
_cell_length_b   7.56783295
_cell_length_c   7.56783295
_cell_angle_alpha   60.00000000
_cell_angle_beta   60.00000000
_cell_angle_gamma   60.00000000
_symmetry_Int_Tables_number   1
_chemical_formula_structural   Li5MnCdBr5O2
_chemical_formula_sum   'Li5 Mn1 Cd1 Br5 O2'
_cell_volume   306.47821720
_cell_formula_units_Z   1
loop_
 _symmetry_equiv_pos_site_id
 _symmetry_equiv_pos_as_xyz
  1  'x, y, z'
loop_
 _atom_site_type_symbol
 _atom_site_label
 _atom_site_symmetry_multiplicity
 _atom_site_fract_x
 _atom_site_fract_y
 _atom_site_fract_z
 _atom_site_occupancy
  Li  Li0  1  0.37500000  0.37500000  0.87500000  1
  Li  Li1  1  0.37500000  0.37500000  0.37500000  1
  Li  Li2  1  0.37500000  0.87500000  0.37500000  1
  Li  Li3  1  0.87500000  0.37500000  0.37500000  1
  Mn  Mn4  1  0.75000000  0.75000000  0.75000000  1
  Li  Li5  1  0.00000000  0.00000000  0.00000000  1
  Cd  Cd6  1  0.61597800  0.61597900  0.15206400  1
  Br  Br7  1  0.61597800  0.61597900  0.61597900  1
  Br  Br8  1  0.61597800  0.15206400  0.61597900  1
  O  O9  1  0.15206300  0.61597900  0.61597900  1
  Br  Br10  1  0.13402200  0.13402100  0.59793600  1
  Br  Br11  1  0.13402200  0.13402100  0.13402100  1
  Br  Br12  1  0.13402200  0.59793600  0.13402100  1
  O  O13  1  0.59793700  0.13402100  0.13402100  1
