# generated using pymatgen
data_MgMnGe3
_symmetry_space_group_name_H-M   'P 1'
_cell_length_a   4.05549717
_cell_length_b   4.05549717
_cell_length_c   14.17326546
_cell_angle_alpha   90.00000000
_cell_angle_beta   90.00000000
_cell_angle_gamma   90.00000000
_symmetry_Int_Tables_number   1
_chemical_formula_structural   MgMnGe3
_chemical_formula_sum   'Mg2 Mn2 Ge6'
_cell_volume   233.10850899
_cell_formula_units_Z   2
loop_
 _symmetry_equiv_pos_site_id
 _symmetry_equiv_pos_as_xyz
  1  'x, y, z'
loop_
 _atom_site_type_symbol
 _atom_site_label
 _atom_site_symmetry_multiplicity
 _atom_site_fract_x
 _atom_site_fract_y
 _atom_site_fract_z
 _atom_site_occupancy
  Mg  Mg0  1  0.49999998  0.00000000  0.58774198  1
  Mg  Mg1  1  -0.00000000  0.49999998  0.41225799  1
  Mn  Mn2  1  -0.00000000  0.49999998  0.86777497  1
  Mn  Mn3  1  0.49999998  0.00000000  0.13222500  1
  Ge  Ge4  1  0.49999998  0.00000000  0.89001997  1
  Ge  Ge5  1  -0.00000000  0.49999998  0.10998000  1
  Ge  Ge6  1  -0.00000000  0.49999998  0.69020098  1
  Ge  Ge7  1  0.49999998  0.00000000  0.30979899  1
  Ge  Ge8  1  0.00000000  0.00000000  0.49999998  1
  Ge  Ge9  1  0.49999998  0.49999998  0.49999998  1
