# generated using pymatgen
data_Hf2Ni11
_symmetry_space_group_name_H-M   'P 1'
_cell_length_a   5.13900805
_cell_length_b   6.73442554
_cell_length_c   6.73442554
_cell_angle_alpha   81.62921143
_cell_angle_beta   67.57041931
_cell_angle_gamma   67.57041931
_symmetry_Int_Tables_number   1
_chemical_formula_structural   Hf2Ni11
_chemical_formula_sum   'Hf2 Ni11'
_cell_volume   199.13725735
_cell_formula_units_Z   1
loop_
 _symmetry_equiv_pos_site_id
 _symmetry_equiv_pos_as_xyz
  1  'x, y, z'
loop_
 _atom_site_type_symbol
 _atom_site_label
 _atom_site_symmetry_multiplicity
 _atom_site_fract_x
 _atom_site_fract_y
 _atom_site_fract_z
 _atom_site_occupancy
  Hf  Hf0  1  0.00000000  0.00000000  0.00000000  1
  Hf  Hf1  1  -0.00000001  0.34807201  0.65192798  1
  Ni  Ni2  1  0.34807198  0.65192801  0.65192795  1
  Ni  Ni3  1  0.65192799  0.34807201  0.34807196  1
  Ni  Ni4  1  -0.00000002  0.65192801  0.34807196  1
  Ni  Ni5  1  0.49999998  0.78087702  0.21912294  1
  Ni  Ni6  1  0.28087700  0.21912300  0.21912298  1
  Ni  Ni7  1  0.71912298  0.78087702  0.78087694  1
  Ni  Ni8  1  0.50000000  0.21912300  0.78087697  1
  Ni  Ni9  1  0.50000000  0.00000000  0.49999999  1
  Ni  Ni10  1  0.49999999  0.50000001  -0.00000005  1
  Ni  Ni11  1  0.99999999  0.50000001  -0.00000006  1
  Ni  Ni12  1  -0.00000000  0.00000000  0.50000000  1
