# generated using pymatgen
data_Ce2Fe3Ir2Ru3
_symmetry_space_group_name_H-M   'P 1'
_cell_length_a   5.59793186
_cell_length_b   7.82224226
_cell_length_c   7.82224226
_cell_angle_alpha   75.91300201
_cell_angle_beta   69.03353882
_cell_angle_gamma   69.03353882
_symmetry_Int_Tables_number   1
_chemical_formula_structural   Ce2Fe3Ir2Ru3
_chemical_formula_sum   'Ce4 Fe6 Ru6 Ir4'
_cell_volume   296.04266099
_cell_formula_units_Z   2
loop_
 _symmetry_equiv_pos_site_id
 _symmetry_equiv_pos_as_xyz
  1  'x, y, z'
loop_
 _atom_site_type_symbol
 _atom_site_label
 _atom_site_symmetry_multiplicity
 _atom_site_fract_x
 _atom_site_fract_y
 _atom_site_fract_z
 _atom_site_occupancy
  Ce  Ce0  1  0.63018905  0.60665498  0.13296701  1
  Ce  Ce1  1  0.36981103  0.39334498  0.86703298  1
  Ce  Ce2  1  0.13019001  0.13296699  0.60665399  1
  Ce  Ce3  1  0.86981007  0.86703297  0.39334600  1
  Fe  Fe4  1  0.25000004  0.49999998  0.49999998  1
  Fe  Fe5  1  0.75000004  0.49999998  0.50000000  1
  Fe  Fe6  1  0.48637506  0.76362497  0.76362498  1
  Fe  Fe7  1  0.01362502  0.23637499  0.23637499  1
  Fe  Fe8  1  0.51362502  0.23637499  0.23637501  1
  Fe  Fe9  1  0.98637506  0.76362497  0.76362500  1
  Ru  Ru10  1  0.89114302  0.25997899  0.95773400  1
  Ru  Ru11  1  0.10885706  0.74002097  0.04226599  1
  Ru  Ru12  1  0.39114407  0.95773296  0.25997899  1
  Ir  Ir13  1  0.60885601  0.04226700  0.74002100  1
  Ir  Ir14  1  0.25000000  0.00000000  0.00000001  1
  Ir  Ir15  1  0.75000000  0.00000000  0.00000003  1
  Ru  Ru16  1  0.86640504  0.51732698  0.74986400  1
  Ru  Ru17  1  0.13359504  0.48267298  0.25013599  1
  Ru  Ru18  1  0.36640406  0.74986497  0.51732698  1
  Ir  Ir19  1  0.63359602  0.25013499  0.48267301  1
