# generated using pymatgen
data_Hf2Zr5TiO12
_symmetry_space_group_name_H-M   'P 1'
_cell_length_a   5.74405813
_cell_length_b   5.74405766
_cell_length_c   11.70018101
_cell_angle_alpha   90.00000000
_cell_angle_beta   90.00000000
_cell_angle_gamma   120.00000000
_symmetry_Int_Tables_number   1
_chemical_formula_structural   Hf2Zr5TiO12
_chemical_formula_sum   'Hf2 Zr5 Ti1 O12'
_cell_volume   334.31882300
_cell_formula_units_Z   1
loop_
 _symmetry_equiv_pos_site_id
 _symmetry_equiv_pos_as_xyz
  1  'x, y, z'
loop_
 _atom_site_type_symbol
 _atom_site_label
 _atom_site_symmetry_multiplicity
 _atom_site_fract_x
 _atom_site_fract_y
 _atom_site_fract_z
 _atom_site_occupancy
  Ti  Ti0  1  0.00000000  0.00000000  0.50000000  1
  Zr  Zr1  1  0.00000000  0.00000000  0.00000000  1
  Hf  Hf2  1  0.66666665  0.33333334  0.49559400  1
  Hf  Hf3  1  0.33333332  0.66666669  0.50440600  1
  Zr  Zr4  1  0.33333332  0.66666669  0.99559400  1
  Zr  Zr5  1  0.66666665  0.33333334  0.00440600  1
  Zr  Zr6  1  0.66666665  0.33333334  0.75000000  1
  Zr  Zr7  1  0.33333332  0.66666669  0.25000000  1
  O  O8  1  0.66757198  0.00476200  0.86493500  1
  O  O9  1  0.33718999  0.33242901  0.86493500  1
  O  O10  1  0.99523897  0.66281102  0.86493500  1
  O  O11  1  0.66280997  0.99523803  0.13506500  1
  O  O12  1  0.00476099  0.66757102  0.13506500  1
  O  O13  1  0.33242799  0.33718901  0.13506500  1
  O  O14  1  0.33242798  0.99523803  0.36493500  1
  O  O15  1  0.66280997  0.66757102  0.36493500  1
  O  O16  1  0.00476099  0.33718901  0.36493500  1
  O  O17  1  0.33718999  0.00476200  0.63506500  1
  O  O18  1  0.99523897  0.33242901  0.63506500  1
  O  O19  1  0.66757197  0.66281102  0.63506500  1
