# generated using pymatgen
data_Li3MnS3
_symmetry_space_group_name_H-M   'P 1'
_cell_length_a   7.21106529
_cell_length_b   7.21106529
_cell_length_c   7.21106529
_cell_angle_alpha   60.00000000
_cell_angle_beta   60.00000000
_cell_angle_gamma   60.00000000
_symmetry_Int_Tables_number   1
_chemical_formula_structural   Li3MnS3
_chemical_formula_sum   'Li6 Mn2 S6'
_cell_volume   265.14490479
_cell_formula_units_Z   2
loop_
 _symmetry_equiv_pos_site_id
 _symmetry_equiv_pos_as_xyz
  1  'x, y, z'
loop_
 _atom_site_type_symbol
 _atom_site_label
 _atom_site_symmetry_multiplicity
 _atom_site_fract_x
 _atom_site_fract_y
 _atom_site_fract_z
 _atom_site_occupancy
  Li  Li0  1  0.49999998  0.49999998  0.49999998  1
  Li  Li1  1  0.87490797  0.87490697  0.37527799  1
  Li  Li2  1  0.87490797  0.87490697  0.87490697  1
  Li  Li3  1  0.87490797  0.37527799  0.87490697  1
  Li  Li4  1  0.37527899  0.87490697  0.87490697  1
  Mn  Mn5  1  0.24999999  0.24999999  0.24999999  1
  Li  Li6  1  0.10892800  0.10892800  0.67321598  1
  Mn  Mn7  1  0.10892800  0.10892800  0.10892800  1
  S  S8  1  0.10892800  0.67321598  0.10892800  1
  S  S9  1  0.67321598  0.10892800  0.10892800  1
  S  S10  1  0.63589298  0.63589298  0.09232100  1
  S  S11  1  0.63589298  0.63589298  0.63589298  1
  S  S12  1  0.63589298  0.09232100  0.63589298  1
  S  S13  1  0.09232100  0.63589298  0.63589298  1
