# generated using pymatgen
data_CeSi2
_symmetry_space_group_name_H-M   'P 1'
_cell_length_a   3.95764399
_cell_length_b   6.78868580
_cell_length_c   7.69685984
_cell_angle_alpha   90.00000000
_cell_angle_beta   90.00000000
_cell_angle_gamma   90.00000000
_symmetry_Int_Tables_number   1
_chemical_formula_structural   CeSi2
_chemical_formula_sum   'Ce4 Si8'
_cell_volume   206.79308432
_cell_formula_units_Z   4
loop_
 _symmetry_equiv_pos_site_id
 _symmetry_equiv_pos_as_xyz
  1  'x, y, z'
loop_
 _atom_site_type_symbol
 _atom_site_label
 _atom_site_symmetry_multiplicity
 _atom_site_fract_x
 _atom_site_fract_y
 _atom_site_fract_z
 _atom_site_occupancy
  Ce  Ce0  1  0.25000000  0.53029502  0.18492700  1
  Ce  Ce1  1  0.75000000  0.46970501  0.81507302  1
  Ce  Ce2  1  0.75000000  0.96970503  0.68492701  1
  Ce  Ce3  1  0.25000000  0.03029500  0.31507301  1
  Si  Si4  1  0.25000000  0.75038702  0.87564402  1
  Si  Si5  1  0.75000000  0.24961301  0.12435600  1
  Si  Si6  1  0.75000000  0.74961302  0.37564401  1
  Si  Si7  1  0.25000000  0.25038701  0.62435601  1
  Si  Si8  1  0.25000000  0.64599502  0.56221901  1
  Si  Si9  1  0.75000000  0.35400501  0.43778101  1
  Si  Si10  1  0.75000000  0.85400503  0.06221900  1
  Si  Si11  1  0.25000000  0.14599500  0.93778102  1
