# generated using pymatgen
data_Ce2AlSi10
_symmetry_space_group_name_H-M   'P 1'
_cell_length_a   4.11636209
_cell_length_b   4.11636209
_cell_length_c   13.89276791
_cell_angle_alpha   98.51959229
_cell_angle_beta   98.51959229
_cell_angle_gamma   90.00000000
_symmetry_Int_Tables_number   1
_chemical_formula_structural   Ce2AlSi10
_chemical_formula_sum   'Ce2 Al1 Si10'
_cell_volume   230.18054836
_cell_formula_units_Z   1
loop_
 _symmetry_equiv_pos_site_id
 _symmetry_equiv_pos_as_xyz
  1  'x, y, z'
loop_
 _atom_site_type_symbol
 _atom_site_label
 _atom_site_symmetry_multiplicity
 _atom_site_fract_x
 _atom_site_fract_y
 _atom_site_fract_z
 _atom_site_occupancy
  Ce  Ce0  1  0.66455297  0.66455298  0.32910599  1
  Ce  Ce1  1  0.33544698  0.33544699  0.67089401  1
  Al  Al2  1  0.49999998  0.49999998  -0.00000002  1
  Si  Si3  1  0.88065996  0.88065997  0.76131999  1
  Si  Si4  1  0.11933999  0.11934000  0.23868000  1
  Si  Si5  1  0.24999998  0.74999998  0.50000000  1
  Si  Si6  1  0.42894697  0.92894697  0.85789400  1
  Si  Si7  1  0.92838096  0.42838099  0.85676200  1
  Si  Si8  1  0.57161898  0.07161900  0.14323799  1
  Si  Si9  1  0.07105399  0.57105398  0.14210699  1
  Si  Si10  1  0.79300296  0.79300297  0.58600599  1
  Si  Si11  1  0.20699699  0.20699699  0.41399400  1
  Si  Si12  1  0.00000000  0.00000000  0.00000000  1
