# generated using pymatgen
data_CaO2
_symmetry_space_group_name_H-M   'P 1'
_cell_length_a   3.90781212
_cell_length_b   5.28588057
_cell_length_c   9.88805199
_cell_angle_alpha   74.67259216
_cell_angle_beta   78.60319519
_cell_angle_gamma   68.30619812
_symmetry_Int_Tables_number   1
_chemical_formula_structural   CaO2
_chemical_formula_sum   'Ca4 O8'
_cell_volume   181.89223968
_cell_formula_units_Z   4
loop_
 _symmetry_equiv_pos_site_id
 _symmetry_equiv_pos_as_xyz
  1  'x, y, z'
loop_
 _atom_site_type_symbol
 _atom_site_label
 _atom_site_symmetry_multiplicity
 _atom_site_fract_x
 _atom_site_fract_y
 _atom_site_fract_z
 _atom_site_occupancy
  Ca  Ca0  1  0.27868299  0.23662399  0.20601001  1
  Ca  Ca1  1  0.72131699  0.76337596  0.79399002  1
  Ca  Ca2  1  0.88152398  0.80659496  0.43035704  1
  Ca  Ca3  1  0.11847600  0.19340499  0.56964300  1
  O  O4  1  0.61502999  0.67567197  0.09426803  1
  O  O5  1  0.38496999  0.32432798  0.90573200  1
  O  O6  1  0.84832397  0.05038300  0.25296902  1
  O  O7  1  0.15167601  0.94961695  0.74703102  1
  O  O8  1  0.66716598  0.10127300  0.56439501  1
  O  O9  1  0.33283401  0.89872696  0.43560503  1
  O  O10  1  0.92127697  0.53249197  0.62495403  1
  O  O11  1  0.07872301  0.46750798  0.37504601  1
