# generated using pymatgen
data_Nd2Ni17
_symmetry_space_group_name_H-M   'P 1'
_cell_length_a   6.38199425
_cell_length_b   6.38199425
_cell_length_c   6.38199425
_cell_angle_alpha   83.02223206
_cell_angle_beta   83.02223206
_cell_angle_gamma   83.02221680
_symmetry_Int_Tables_number   1
_chemical_formula_structural   Nd2Ni17
_chemical_formula_sum   'Nd2 Ni17'
_cell_volume   254.59439153
_cell_formula_units_Z   1
loop_
 _symmetry_equiv_pos_site_id
 _symmetry_equiv_pos_as_xyz
  1  'x, y, z'
loop_
 _atom_site_type_symbol
 _atom_site_label
 _atom_site_symmetry_multiplicity
 _atom_site_fract_x
 _atom_site_fract_y
 _atom_site_fract_z
 _atom_site_occupancy
  Nd  Nd0  1  0.35127098  0.35127100  0.35127103  1
  Nd  Nd1  1  0.64872896  0.64872899  0.64872906  1
  Ni  Ni2  1  0.10612999  0.10613000  0.10613001  1
  Ni  Ni3  1  0.89386994  0.89386999  0.89387008  1
  Ni  Ni4  1  0.00000000  0.00000000  0.50000000  1
  Ni  Ni5  1  -0.00000002  0.49999999  0.00000002  1
  Ni  Ni6  1  0.49999995  0.99999999  1.00000007  1
  Ni  Ni7  1  0.71415697  0.28584300  0.00000004  1
  Ni  Ni8  1  0.28584295  0.99999999  0.71415706  1
  Ni  Ni9  1  -0.00000003  0.71415699  0.28584303  1
  Ni  Ni10  1  0.71415694  0.99999999  0.28584308  1
  Ni  Ni11  1  -0.00000001  0.28584300  0.71415702  1
  Ni  Ni12  1  0.28584296  0.71415699  1.00000005  1
  Ni  Ni13  1  0.65211996  0.65211999  0.15067506  1
  Ni  Ni14  1  0.65211998  0.15067500  0.65212004  1
  Ni  Ni15  1  0.15067497  0.65211999  0.65212004  1
  Ni  Ni16  1  0.34787998  0.34788000  0.84932503  1
  Ni  Ni17  1  0.34787995  0.84932499  0.34788005  1
  Ni  Ni18  1  0.84932497  0.34788000  0.34788005  1
