# generated using pymatgen
data_Ce2Al3P7
_symmetry_space_group_name_H-M   'P 1'
_cell_length_a   4.06254911
_cell_length_b   7.00477600
_cell_length_c   7.70471811
_cell_angle_alpha   90.00000000
_cell_angle_beta   90.00000000
_cell_angle_gamma   90.00000000
_symmetry_Int_Tables_number   1
_chemical_formula_structural   Ce2Al3P7
_chemical_formula_sum   'Ce2 Al3 P7'
_cell_volume   219.25506285
_cell_formula_units_Z   1
loop_
 _symmetry_equiv_pos_site_id
 _symmetry_equiv_pos_as_xyz
  1  'x, y, z'
loop_
 _atom_site_type_symbol
 _atom_site_label
 _atom_site_symmetry_multiplicity
 _atom_site_fract_x
 _atom_site_fract_y
 _atom_site_fract_z
 _atom_site_occupancy
  Ce  Ce0  1  0.00000000  0.61282100  0.74999999  1
  Ce  Ce1  1  0.00000000  0.38717900  0.25000000  1
  Al  Al2  1  0.00000000  0.00000000  0.49999999  1
  Al  Al3  1  0.00000000  0.00000000  0.00000000  1
  P  P4  1  0.49999999  0.95566100  0.74999999  1
  Al  Al5  1  0.49999999  0.04433900  0.25000000  1
  P  P6  1  0.49999999  0.70833200  0.07119200  1
  P  P7  1  0.49999999  0.29166800  0.92880799  1
  P  P8  1  0.49999999  0.70833200  0.42880799  1
  P  P9  1  0.49999999  0.29166800  0.57119199  1
  P  P10  1  0.00000000  0.18132100  0.74999999  1
  P  P11  1  0.00000000  0.81867900  0.25000000  1
