# generated using pymatgen
data_TiNi12
_symmetry_space_group_name_H-M   'P 1'
_cell_length_a   3.95714593
_cell_length_b   7.69707108
_cell_length_c   7.69707108
_cell_angle_alpha   86.21128082
_cell_angle_beta   75.10459137
_cell_angle_gamma   75.10459137
_symmetry_Int_Tables_number   1
_chemical_formula_structural   TiNi12
_chemical_formula_sum   'Ti1 Ni12'
_cell_volume   218.94948089
_cell_formula_units_Z   1
loop_
 _symmetry_equiv_pos_site_id
 _symmetry_equiv_pos_as_xyz
  1  'x, y, z'
loop_
 _atom_site_type_symbol
 _atom_site_label
 _atom_site_symmetry_multiplicity
 _atom_site_fract_x
 _atom_site_fract_y
 _atom_site_fract_z
 _atom_site_occupancy
  Ti  Ti0  1  0.00000000  0.00000000  0.00000000  1
  Ni  Ni1  1  0.98211098  0.64384300  0.39193497  1
  Ni  Ni2  1  0.32822894  0.88620700  0.45733499  1
  Ni  Ni3  1  0.78556398  0.54266500  0.88620697  1
  Ni  Ni4  1  0.21443597  0.45733500  0.11379299  1
  Ni  Ni5  1  0.67177101  0.11379300  0.54266498  1
  Ni  Ni6  1  0.01788897  0.35615700  0.60806499  1
  Ni  Ni7  1  0.62595399  0.39193500  0.35615698  1
  Ni  Ni8  1  0.37404596  0.60806500  0.64384298  1
  Ni  Ni9  1  0.24325899  0.18575200  0.32772999  1
  Ni  Ni10  1  0.57098796  0.67227100  0.18575199  1
  Ni  Ni11  1  0.42901199  0.32772900  0.81424798  1
  Ni  Ni12  1  0.75674096  0.81424800  0.67226998  1
