# generated using pymatgen
data_TlAg3S4
_symmetry_space_group_name_H-M   'P 1'
_cell_length_a   4.38582420
_cell_length_b   4.40341187
_cell_length_c   13.17959976
_cell_angle_alpha   90.00000000
_cell_angle_beta   99.57781219
_cell_angle_gamma   90.00000000
_symmetry_Int_Tables_number   1
_chemical_formula_structural   TlAg3S4
_chemical_formula_sum   'Tl1 Ag3 S4'
_cell_volume   250.98417054
_cell_formula_units_Z   1
loop_
 _symmetry_equiv_pos_site_id
 _symmetry_equiv_pos_as_xyz
  1  'x, y, z'
loop_
 _atom_site_type_symbol
 _atom_site_label
 _atom_site_symmetry_multiplicity
 _atom_site_fract_x
 _atom_site_fract_y
 _atom_site_fract_z
 _atom_site_occupancy
  Tl  Tl0  1  0.83176297  0.00000000  0.66352599  1
  Ag  Ag1  1  0.16506899  0.50000002  0.33013799  1
  Ag  Ag2  1  0.42968898  0.00000000  0.85937798  1
  Ag  Ag3  1  0.57624398  0.50000002  0.15248801  1
  S  S4  1  0.70052597  0.00000000  0.40105200  1
  S  S5  1  0.29049999  0.50000002  0.58099999  1
  S  S6  1  0.07622500  0.00000000  0.15245000  1
  S  S7  1  0.92998397  0.50000002  0.85996799  1
