# generated using pymatgen
data_CsRb(Tl2S3)2
_symmetry_space_group_name_H-M   'P 1'
_cell_length_a   4.14654398
_cell_length_b   8.34407711
_cell_length_c   10.72699642
_cell_angle_alpha   90.00000000
_cell_angle_beta   90.00000000
_cell_angle_gamma   104.38713074
_symmetry_Int_Tables_number   1
_chemical_formula_structural   CsRb(Tl2S3)2
_chemical_formula_sum   'Cs1 Rb1 Tl4 S6'
_cell_volume   359.50478021
_cell_formula_units_Z   1
loop_
 _symmetry_equiv_pos_site_id
 _symmetry_equiv_pos_as_xyz
  1  'x, y, z'
loop_
 _atom_site_type_symbol
 _atom_site_label
 _atom_site_symmetry_multiplicity
 _atom_site_fract_x
 _atom_site_fract_y
 _atom_site_fract_z
 _atom_site_occupancy
  Cs  Cs0  1  0.74314805  0.48629603  0.24999999  1
  Rb  Rb1  1  0.25685205  0.51370403  0.74999997  1
  Tl  Tl2  1  0.00000000  0.00000000  0.00000000  1
  Tl  Tl3  1  0.00000000  0.00000000  0.49999998  1
  Tl  Tl4  1  0.46881309  0.93762606  0.24999999  1
  Tl  Tl5  1  0.53118701  0.06237400  0.74999997  1
  S  S6  1  0.38540007  0.77080005  0.44062798  1
  S  S7  1  0.61460002  0.22920002  0.55937198  1
  S  S8  1  0.94304509  0.88609006  0.74999997  1
  S  S9  1  0.05695501  0.11391001  0.24999999  1
  S  S10  1  0.38540007  0.77080005  0.05937200  1
  S  S11  1  0.61460002  0.22920002  0.94062796  1
