# generated using pymatgen
data_Tl5Sn(GeS)3
_symmetry_space_group_name_H-M   'P 1'
_cell_length_a   4.48094988
_cell_length_b   4.48094940
_cell_length_c   24.95750046
_cell_angle_alpha   90.00000000
_cell_angle_beta   90.00000000
_cell_angle_gamma   120.00000000
_symmetry_Int_Tables_number   1
_chemical_formula_structural   Tl5Sn(GeS)3
_chemical_formula_sum   'Tl5 Sn1 Ge3 S3'
_cell_volume   433.98212856
_cell_formula_units_Z   1
loop_
 _symmetry_equiv_pos_site_id
 _symmetry_equiv_pos_as_xyz
  1  'x, y, z'
loop_
 _atom_site_type_symbol
 _atom_site_label
 _atom_site_symmetry_multiplicity
 _atom_site_fract_x
 _atom_site_fract_y
 _atom_site_fract_z
 _atom_site_occupancy
  Tl  Tl0  1  0.66666666  0.33333333  0.70900099  1
  Tl  Tl1  1  0.33333330  0.66666666  0.29099899  1
  Tl  Tl2  1  0.00000000  0.00000000  0.12867700  1
  Tl  Tl3  1  0.00000000  0.00000000  0.87132298  1
  Tl  Tl4  1  0.33333330  0.66666666  0.53362899  1
  Ge  Ge5  1  0.66666666  0.33333333  0.46637099  1
  Ge  Ge6  1  0.66666666  0.33333333  0.93933398  1
  Sn  Sn7  1  0.33333330  0.66666666  0.06066600  1
  S  S8  1  0.00000000  0.00000000  0.36011099  1
  S  S9  1  0.00000000  0.00000000  0.63988899  1
  S  S10  1  0.33333330  0.66666666  0.78966999  1
  Ge  Ge11  1  0.66666666  0.33333333  0.21033000  1
