# generated using pymatgen
data_LiCr3(NiO6)2
_symmetry_space_group_name_H-M   'P 1'
_cell_length_a   3.59549904
_cell_length_b   7.54877329
_cell_length_c   9.69373226
_cell_angle_alpha   67.57664490
_cell_angle_beta   89.99581146
_cell_angle_gamma   76.25055695
_symmetry_Int_Tables_number   1
_chemical_formula_structural   LiCr3(NiO6)2
_chemical_formula_sum   'Li1 Cr3 Ni2 O12'
_cell_volume   235.03567607
_cell_formula_units_Z   1
loop_
 _symmetry_equiv_pos_site_id
 _symmetry_equiv_pos_as_xyz
  1  'x, y, z'
loop_
 _atom_site_type_symbol
 _atom_site_label
 _atom_site_symmetry_multiplicity
 _atom_site_fract_x
 _atom_site_fract_y
 _atom_site_fract_z
 _atom_site_occupancy
  Cr  Cr0  1  0.49988901  0.00032500  0.50019903  1
  Li  Li1  1  0.99972411  0.99999600  0.99954710  1
  Cr  Cr2  1  0.83571905  0.32920600  0.61693905  1
  Cr  Cr3  1  0.16506406  0.67103200  0.38295105  1
  Ni  Ni4  1  0.33498404  0.32890200  0.11702902  1
  Ni  Ni5  1  0.66436607  0.67071000  0.88311808  1
  O  O6  1  0.94115504  0.11871500  0.58110704  1
  O  O7  1  0.44093202  0.11858400  0.08108101  1
  O  O8  1  0.05916307  0.88140300  0.41887706  1
  O  O9  1  0.55882809  0.88128700  0.91890409  1
  O  O10  1  0.87045305  0.26046800  0.80407406  1
  O  O11  1  0.36982503  0.26040500  0.30413103  1
  O  O12  1  0.13016107  0.73960500  0.19580604  1
  O  O13  1  0.62957308  0.73955400  0.69596007  1
  O  O14  1  0.70776007  0.58600700  0.42551805  1
  O  O15  1  0.20685905  0.58575500  0.92549107  1
  O  O16  1  0.29321604  0.41417200  0.57454705  1
  O  O17  1  0.79233006  0.41387600  0.07472103  1
