# generated using pymatgen
data_Ti4Cr3S8
_symmetry_space_group_name_H-M   'P 1'
_cell_length_a   6.77849627
_cell_length_b   6.77849627
_cell_length_c   6.77849531
_cell_angle_alpha   89.37402344
_cell_angle_beta   89.37402344
_cell_angle_gamma   89.37402344
_symmetry_Int_Tables_number   1
_chemical_formula_structural   Ti4Cr3S8
_chemical_formula_sum   'Ti4 Cr3 S8'
_cell_volume   311.40301974
_cell_formula_units_Z   1
loop_
 _symmetry_equiv_pos_site_id
 _symmetry_equiv_pos_as_xyz
  1  'x, y, z'
loop_
 _atom_site_type_symbol
 _atom_site_label
 _atom_site_symmetry_multiplicity
 _atom_site_fract_x
 _atom_site_fract_y
 _atom_site_fract_z
 _atom_site_occupancy
  Ti  Ti0  1  0.00000000  0.00000000  0.00000000  1
  Ti  Ti1  1  0.42323097  0.23286099  0.55814904  1
  Ti  Ti2  1  0.23286096  0.55814898  0.42323105  1
  Ti  Ti3  1  0.55814896  0.42323099  0.23286105  1
  Cr  Cr4  1  0.57676894  0.76713897  0.44185107  1
  Cr  Cr5  1  0.76713895  0.44185099  0.57676907  1
  Cr  Cr6  1  0.44185095  0.57676898  0.76713906  1
  S  S7  1  0.23565798  0.23565799  0.23565803  1
  S  S8  1  0.76434193  0.76434197  0.76434209  1
  S  S9  1  0.36838094  0.75622897  0.12307706  1
  S  S10  1  0.75622897  0.12307700  0.36838105  1
  S  S11  1  0.12307697  0.36838099  0.75622903  1
  S  S12  1  0.63161896  0.24377099  0.87692305  1
  S  S13  1  0.24377094  0.87692297  0.63161906  1
  S  S14  1  0.87692293  0.63161898  0.24377108  1
