# generated using pymatgen
data_Li2Ti4NiTeO12
_symmetry_space_group_name_H-M   'P 1'
_cell_length_a   6.45692539
_cell_length_b   6.47687149
_cell_length_c   6.47721243
_cell_angle_alpha   70.45616150
_cell_angle_beta   70.59118652
_cell_angle_gamma   109.40058899
_symmetry_Int_Tables_number   1
_chemical_formula_structural   Li2Ti4NiTeO12
_chemical_formula_sum   'Li2 Ti4 Ni1 Te1 O12'
_cell_volume   208.67963891
_cell_formula_units_Z   1
loop_
 _symmetry_equiv_pos_site_id
 _symmetry_equiv_pos_as_xyz
  1  'x, y, z'
loop_
 _atom_site_type_symbol
 _atom_site_label
 _atom_site_symmetry_multiplicity
 _atom_site_fract_x
 _atom_site_fract_y
 _atom_site_fract_z
 _atom_site_occupancy
  Li  Li0  1  0.00000000  0.00000000  0.00000000  1
  Li  Li1  1  0.99999908  0.99999807  0.50000194  1
  Ti  Ti2  1  0.99999904  0.49999903  0.99999998  1
  Ti  Ti3  1  0.50000004  0.50000103  0.50000097  1
  Ti  Ti4  1  0.50000200  0.00000300  0.99999801  1
  Ti  Ti5  1  0.00000104  0.49999903  0.49999994  1
  Te  Te6  1  0.50000104  0.50000203  0.99999796  1
  Ni  Ni7  1  0.49999800  0.00000000  0.49999802  1
  O  O8  1  0.14487607  0.83026806  0.68398591  1
  O  O9  1  0.85512301  0.16973001  0.31601402  1
  O  O10  1  0.51486807  0.82833906  0.31671094  1
  O  O11  1  0.48513201  0.17166101  0.68328900  1
  O  O12  1  0.82884905  0.68398405  0.48574996  1
  O  O13  1  0.17115203  0.31601502  0.51425097  1
  O  O14  1  0.83157402  0.31671002  0.85496300  1
  O  O15  1  0.16842505  0.68329105  0.14503694  1
  O  O16  1  0.31459404  0.48574903  0.83027995  1
  O  O17  1  0.68540604  0.51425104  0.16971998  1
  O  O18  1  0.68650907  0.85493106  0.82835493  1
  O  O19  1  0.31348901  0.14506801  0.17164600  1
