# generated using pymatgen
data_Na4As4I2O3
_symmetry_space_group_name_H-M   'P 1'
_cell_length_a   7.13244867
_cell_length_b   7.13244867
_cell_length_c   8.01079273
_cell_angle_alpha   98.62660980
_cell_angle_beta   98.62660980
_cell_angle_gamma   119.81066895
_symmetry_Int_Tables_number   1
_chemical_formula_structural   Na4As4I2O3
_chemical_formula_sum   'Na4 As4 I2 O3'
_cell_volume   337.40645632
_cell_formula_units_Z   1
loop_
 _symmetry_equiv_pos_site_id
 _symmetry_equiv_pos_as_xyz
  1  'x, y, z'
loop_
 _atom_site_type_symbol
 _atom_site_label
 _atom_site_symmetry_multiplicity
 _atom_site_fract_x
 _atom_site_fract_y
 _atom_site_fract_z
 _atom_site_occupancy
  Na  Na0  1  0.17308596  0.82691396  -0.00000006  1
  Na  Na1  1  0.82698797  0.17301199  -0.00000005  1
  Na  Na2  1  0.49991297  0.50008698  -0.00000006  1
  Na  Na3  1  0.33408597  0.66591397  0.49999997  1
  As  As4  1  0.66596497  0.33403498  0.49999997  1
  As  As5  1  0.95022094  0.95011896  0.34602691  1
  As  As6  1  0.04988100  0.04977900  0.65397303  1
  I  I7  1  0.22638799  0.22551999  0.25488799  1
  I  I8  1  0.77447995  0.77361196  0.74511195  1
  O  O9  1  0.91794195  0.61013997  0.25421093  1
  O  O10  1  0.61119795  0.92000796  0.25378093  1
  As  As11  1  0.07999198  0.38880198  0.74621901  1
  O  O12  1  0.38985999  0.08205800  0.74578902  1
