# generated using pymatgen
data_BaLiCe3Fe5NO8
_symmetry_space_group_name_H-M   'P 1'
_cell_length_a   5.66012383
_cell_length_b   5.66012383
_cell_length_c   8.66207218
_cell_angle_alpha   109.06974030
_cell_angle_beta   109.06974030
_cell_angle_gamma   90.00000000
_symmetry_Int_Tables_number   1
_chemical_formula_structural   BaLiCe3Fe5NO8
_chemical_formula_sum   'Ba1 Li1 Ce3 Fe5 N1 O8'
_cell_volume   246.10797809
_cell_formula_units_Z   1
loop_
 _symmetry_equiv_pos_site_id
 _symmetry_equiv_pos_as_xyz
  1  'x, y, z'
loop_
 _atom_site_type_symbol
 _atom_site_label
 _atom_site_symmetry_multiplicity
 _atom_site_fract_x
 _atom_site_fract_y
 _atom_site_fract_z
 _atom_site_occupancy
  Li  Li0  1  0.75000000  0.25000000  0.49999995  1
  Ba  Ba1  1  0.24999998  0.75000001  0.49999994  1
  Ce  Ce2  1  -0.00000002  0.50000001  -0.00000002  1
  Ce  Ce3  1  0.50000001  0.00000000  -0.00000001  1
  Ce  Ce4  1  0.37480999  0.37481000  0.74961994  1
  Fe  Fe5  1  0.87911899  0.87911901  0.75823791  1
  Fe  Fe6  1  0.62518999  0.62519001  0.25037995  1
  Fe  Fe7  1  0.12088100  0.12088100  0.24176198  1
  Fe  Fe8  1  0.15785498  0.63229101  0.79014594  1
  Fe  Fe9  1  0.63229101  0.15785500  0.79014594  1
  O  O10  1  0.36770898  0.84214501  0.20985395  1
  N  N11  1  0.84214500  0.36770900  0.20985395  1
  O  O12  1  0.63229099  0.63229101  0.79014592  1
  O  O13  1  0.15785500  0.15785500  0.79014595  1
  O  O14  1  0.36770899  0.36770900  0.20985397  1
  O  O15  1  0.84214499  0.84214501  0.20985394  1
  O  O16  1  0.23895100  0.23895100  0.47790196  1
  O  O17  1  0.76104899  0.76104901  0.52209793  1
  O  O18  1  0.00000000  0.00000000  0.00000000  1
