# generated using pymatgen
data_Ce6AlGe9
_symmetry_space_group_name_H-M   'P 1'
_cell_length_a   7.82566977
_cell_length_b   7.94179106
_cell_length_c   7.94179106
_cell_angle_alpha   93.33154297
_cell_angle_beta   90.00000000
_cell_angle_gamma   90.00000000
_symmetry_Int_Tables_number   1
_chemical_formula_structural   Ce6AlGe9
_chemical_formula_sum   'Ce6 Al1 Ge9'
_cell_volume   492.74683280
_cell_formula_units_Z   1
loop_
 _symmetry_equiv_pos_site_id
 _symmetry_equiv_pos_as_xyz
  1  'x, y, z'
loop_
 _atom_site_type_symbol
 _atom_site_label
 _atom_site_symmetry_multiplicity
 _atom_site_fract_x
 _atom_site_fract_y
 _atom_site_fract_z
 _atom_site_occupancy
  Ce  Ce0  1  0.01959800  0.30450699  0.69549300  1
  Ce  Ce1  1  0.51959802  0.69549298  0.30450704  1
  Ce  Ce2  1  0.51369002  0.18244300  0.25645901  1
  Ce  Ce3  1  0.01369000  0.81755698  0.74354103  1
  Ce  Ce4  1  0.51369002  0.74354098  0.81755703  1
  Ce  Ce5  1  0.01369000  0.25645899  0.18244301  1
  Al  Al6  1  0.51813602  0.24190799  0.75809200  1
  Ge  Ge7  1  0.01813600  0.75809198  0.24190804  1
  Ge  Ge8  1  0.15575600  0.57474899  0.42525103  1
  Ge  Ge9  1  0.65575602  0.42525099  0.57474901  1
  Ge  Ge10  1  0.22654401  0.90757398  0.09242606  1
  Ge  Ge11  1  0.72654402  0.09242600  0.90757398  1
  Ge  Ge12  1  0.84519303  0.95213298  0.40268605  1
  Ge  Ge13  1  0.34519301  0.04786700  0.59731399  1
  Ge  Ge14  1  0.84519303  0.59731399  0.04786704  1
  Ge  Ge15  1  0.34519301  0.40268599  0.95213300  1
