# generated using pymatgen
data_Ce4Sn3Pd5
_symmetry_space_group_name_H-M   'P 1'
_cell_length_a   4.17248297
_cell_length_b   6.95092821
_cell_length_c   10.30264854
_cell_angle_alpha   90.00000000
_cell_angle_beta   96.05344391
_cell_angle_gamma   90.00000000
_symmetry_Int_Tables_number   1
_chemical_formula_structural   Ce4Sn3Pd5
_chemical_formula_sum   'Ce4 Sn3 Pd5'
_cell_volume   297.13775726
_cell_formula_units_Z   1
loop_
 _symmetry_equiv_pos_site_id
 _symmetry_equiv_pos_as_xyz
  1  'x, y, z'
loop_
 _atom_site_type_symbol
 _atom_site_label
 _atom_site_symmetry_multiplicity
 _atom_site_fract_x
 _atom_site_fract_y
 _atom_site_fract_z
 _atom_site_occupancy
  Ce  Ce0  1  0.77130201  0.68634798  0.86026303  1
  Ce  Ce1  1  0.72869801  0.18634799  0.63973703  1
  Ce  Ce2  1  0.22869800  0.31365199  0.13973701  1
  Ce  Ce3  1  0.27130200  0.81365198  0.36026301  1
  Sn  Sn4  1  0.82245601  0.62274998  0.55027802  1
  Sn  Sn5  1  0.67754401  0.12275000  0.94972204  1
  Sn  Sn6  1  0.17754400  0.37724999  0.44972202  1
  Pd  Pd7  1  0.32245600  0.87724997  0.05027800  1
  Pd  Pd8  1  0.28972400  0.35417799  0.82873603  1
  Pd  Pd9  1  0.21027600  0.85417797  0.67126403  1
  Pd  Pd10  1  0.71027601  0.64582198  0.17126401  1
  Pd  Pd11  1  0.78972401  0.14582200  0.32873601  1
