# generated using pymatgen
data_LiCa5SnRuO12
_symmetry_space_group_name_H-M   'P 1'
_cell_length_a   5.60291195
_cell_length_b   5.73731422
_cell_length_c   7.75655985
_cell_angle_alpha   90.00000000
_cell_angle_beta   90.00000000
_cell_angle_gamma   89.99996185
_symmetry_Int_Tables_number   1
_chemical_formula_structural   LiCa5SnRuO12
_chemical_formula_sum   'Li1 Ca5 Sn1 Ru1 O12'
_cell_volume   249.33978549
_cell_formula_units_Z   1
loop_
 _symmetry_equiv_pos_site_id
 _symmetry_equiv_pos_as_xyz
  1  'x, y, z'
loop_
 _atom_site_type_symbol
 _atom_site_label
 _atom_site_symmetry_multiplicity
 _atom_site_fract_x
 _atom_site_fract_y
 _atom_site_fract_z
 _atom_site_occupancy
  Ca  Ca0  1  0.50001105  0.99999396  0.99999102  1
  Li  Li1  1  0.99999703  0.50001498  0.50001301  1
  Ca  Ca2  1  0.50000205  0.99999396  0.50000301  1
  Ca  Ca3  1  0.00000202  0.50003098  0.00000100  1
  Ca  Ca4  1  0.50645102  0.45544998  0.25000000  1
  Ca  Ca5  1  0.99354805  0.95544996  0.25000000  1
  Sn  Sn6  1  0.49354803  0.54454498  0.75000001  1
  Ru  Ru7  1  0.00645100  0.04454500  0.75000001  1
  O  O8  1  0.39593201  0.03486300  0.24999900  1
  O  O9  1  0.10406602  0.53486298  0.25000000  1
  O  O10  1  0.60406604  0.96513296  0.75000001  1
  O  O11  1  0.89593203  0.46513298  0.75000001  1
  O  O12  1  0.67499204  0.71132797  0.04871400  1
  O  O13  1  0.82500702  0.21132799  0.45128501  1
  O  O14  1  0.32500701  0.28866799  0.54871401  1
  O  O15  1  0.17499203  0.78866797  0.95128502  1
  O  O16  1  0.32500601  0.28866699  0.95128502  1
  O  O17  1  0.17499203  0.78866797  0.54871401  1
  O  O18  1  0.67499204  0.71132797  0.45128501  1
  O  O19  1  0.82500702  0.21132799  0.04871400  1
