# generated using pymatgen
data_Li5MgMn2(Br2O)2
_symmetry_space_group_name_H-M   'P 1'
_cell_length_a   7.90948582
_cell_length_b   7.90948582
_cell_length_c   7.90948582
_cell_angle_alpha   60.00000000
_cell_angle_beta   60.00000000
_cell_angle_gamma   60.00000000
_symmetry_Int_Tables_number   1
_chemical_formula_structural   Li5MgMn2(Br2O)2
_chemical_formula_sum   'Li5 Mg1 Mn2 Br4 O2'
_cell_volume   349.88857134
_cell_formula_units_Z   1
loop_
 _symmetry_equiv_pos_site_id
 _symmetry_equiv_pos_as_xyz
  1  'x, y, z'
loop_
 _atom_site_type_symbol
 _atom_site_label
 _atom_site_symmetry_multiplicity
 _atom_site_fract_x
 _atom_site_fract_y
 _atom_site_fract_z
 _atom_site_occupancy
  Li  Li0  1  0.87499999  0.87499999  0.37500000  1
  Li  Li1  1  0.37500000  0.87499999  0.87499999  1
  Li  Li2  1  0.87499999  0.87499999  0.87499999  1
  Li  Li3  1  0.87499999  0.37500000  0.87499999  1
  Li  Li4  1  0.25000000  0.25000000  0.25000000  1
  Mn  Mn5  1  0.50000000  0.50000000  0.50000000  1
  Mn  Mn6  1  0.10018400  0.63327199  0.63327199  1
  Mg  Mg7  1  0.11672700  0.11672800  0.64981699  1
  O  O8  1  0.11672700  0.64981699  0.11672800  1
  Br  Br9  1  0.11672700  0.11672800  0.11672800  1
  Br  Br10  1  0.63327299  0.10018300  0.63327199  1
  Br  Br11  1  0.63327299  0.63327199  0.63327199  1
  O  O12  1  0.64981599  0.11672800  0.11672800  1
  Br  Br13  1  0.63327299  0.63327199  0.10018300  1
