# generated using pymatgen
data_Ce7GaSn4
_symmetry_space_group_name_H-M   'P 1'
_cell_length_a   6.92026615
_cell_length_b   6.92026615
_cell_length_c   9.57387924
_cell_angle_alpha   90.00000000
_cell_angle_beta   90.00000000
_cell_angle_gamma   90.00000000
_symmetry_Int_Tables_number   1
_chemical_formula_structural   Ce7GaSn4
_chemical_formula_sum   'Ce7 Ga1 Sn4'
_cell_volume   458.49387734
_cell_formula_units_Z   1
loop_
 _symmetry_equiv_pos_site_id
 _symmetry_equiv_pos_as_xyz
  1  'x, y, z'
loop_
 _atom_site_type_symbol
 _atom_site_label
 _atom_site_symmetry_multiplicity
 _atom_site_fract_x
 _atom_site_fract_y
 _atom_site_fract_z
 _atom_site_occupancy
  Ce  Ce0  1  0.49999999  0.49999999  0.00000000  1
  Ce  Ce1  1  0.00000000  0.00000000  0.00000000  1
  Ce  Ce2  1  0.49999999  0.49999999  0.49999999  1
  Ce  Ce3  1  0.00000000  0.00000000  0.49999999  1
  Ce  Ce4  1  0.35580499  0.85580498  0.30630499  1
  Ga  Ga5  1  0.85580498  0.64419499  0.30630499  1
  Ce  Ce6  1  0.14419500  0.35580499  0.30630499  1
  Ce  Ce7  1  0.64419499  0.14419500  0.30630499  1
  Sn  Sn8  1  0.14419500  0.64419499  0.69369498  1
  Sn  Sn9  1  0.64419499  0.85580498  0.69369498  1
  Sn  Sn10  1  0.35580499  0.14419500  0.69369498  1
  Sn  Sn11  1  0.85580498  0.35580499  0.69369498  1
