# generated using pymatgen
data_Li3Ti(FeO4)2
_symmetry_space_group_name_H-M   'P 1'
_cell_length_a   6.40296507
_cell_length_b   6.40296507
_cell_length_c   6.40296507
_cell_angle_alpha   60.00000000
_cell_angle_beta   60.00000000
_cell_angle_gamma   60.00000000
_symmetry_Int_Tables_number   1
_chemical_formula_structural   Li3Ti(FeO4)2
_chemical_formula_sum   'Li3 Ti1 Fe2 O8'
_cell_volume   185.62155212
_cell_formula_units_Z   1
loop_
 _symmetry_equiv_pos_site_id
 _symmetry_equiv_pos_as_xyz
  1  'x, y, z'
loop_
 _atom_site_type_symbol
 _atom_site_label
 _atom_site_symmetry_multiplicity
 _atom_site_fract_x
 _atom_site_fract_y
 _atom_site_fract_z
 _atom_site_occupancy
  Li  Li0  1  0.25000000  0.25000000  0.25000000  1
  Li  Li1  1  0.50000000  0.50000000  0.50000000  1
  Ti  Ti2  1  0.87500000  0.37500000  0.87500000  1
  Li  Li3  1  0.87500000  0.87500000  0.87500000  1
  Fe  Fe4  1  0.87500000  0.87500000  0.37500000  1
  Fe  Fe5  1  0.37500000  0.87500000  0.87500000  1
  O  O6  1  0.64331500  0.11889500  0.11889500  1
  O  O7  1  0.11889500  0.11889500  0.64331500  1
  O  O8  1  0.11889500  0.11889500  0.11889500  1
  O  O9  1  0.11889500  0.64331500  0.11889500  1
  O  O10  1  0.63110500  0.10668500  0.63110500  1
  O  O11  1  0.63110500  0.63110500  0.63110500  1
  O  O12  1  0.10668500  0.63110500  0.63110500  1
  O  O13  1  0.63110500  0.63110500  0.10668500  1
