# generated using pymatgen
data_CsNbTlS2
_symmetry_space_group_name_H-M   'P 1'
_cell_length_a   5.74042559
_cell_length_b   5.74307108
_cell_length_c   5.74307108
_cell_angle_alpha   89.97393799
_cell_angle_beta   90.06230164
_cell_angle_gamma   89.93769836
_symmetry_Int_Tables_number   1
_chemical_formula_structural   CsNbTlS2
_chemical_formula_sum   'Cs1 Nb1 Tl1 S2'
_cell_volume   189.33544103
_cell_formula_units_Z   1
loop_
 _symmetry_equiv_pos_site_id
 _symmetry_equiv_pos_as_xyz
  1  'x, y, z'
loop_
 _atom_site_type_symbol
 _atom_site_label
 _atom_site_symmetry_multiplicity
 _atom_site_fract_x
 _atom_site_fract_y
 _atom_site_fract_z
 _atom_site_occupancy
  Cs  Cs0  1  0.00189807  0.99836402  0.00163595  1
  Nb  Nb1  1  0.51698705  0.49514801  0.50485195  1
  Tl  Tl2  1  0.51418105  0.49560501  0.00153894  1
  S  S3  1  0.01604303  0.50770101  0.49229899  1
  S  S4  1  0.51418108  0.99846102  0.50439493  1
