# generated using pymatgen
data_Hf(TaNi3)2
_symmetry_space_group_name_H-M   'P 1'
_cell_length_a   3.61019611
_cell_length_b   6.54934978
_cell_length_c   6.54934978
_cell_angle_alpha   120.00000000
_cell_angle_beta   90.00000000
_cell_angle_gamma   90.00000000
_symmetry_Int_Tables_number   1
_chemical_formula_structural   Hf(TaNi3)2
_chemical_formula_sum   'Hf1 Ta2 Ni6'
_cell_volume   134.10896085
_cell_formula_units_Z   1
loop_
 _symmetry_equiv_pos_site_id
 _symmetry_equiv_pos_as_xyz
  1  'x, y, z'
loop_
 _atom_site_type_symbol
 _atom_site_label
 _atom_site_symmetry_multiplicity
 _atom_site_fract_x
 _atom_site_fract_y
 _atom_site_fract_z
 _atom_site_occupancy
  Ta  Ta0  1  0.49999998  0.40415700  0.40415697  1
  Ta  Ta1  1  0.49999998  0.59584301  -0.00000003  1
  Hf  Hf2  1  0.49999998  0.00000000  0.59584298  1
  Ni  Ni3  1  -0.00000000  0.66666667  0.33333330  1
  Ni  Ni4  1  -0.00000000  0.33333334  0.66666663  1
  Ni  Ni5  1  0.49999998  0.00000000  -0.00000000  1
  Ni  Ni6  1  0.99999997  0.00000000  0.25765899  1
  Ni  Ni7  1  -0.00000000  0.74234101  0.74234095  1
  Ni  Ni8  1  -0.00000000  0.25765900  -0.00000001  1
