# generated using pymatgen
data_Li4Mn2P
_symmetry_space_group_name_H-M   'P 1'
_cell_length_a   3.31109190
_cell_length_b   3.31109214
_cell_length_c   13.10691547
_cell_angle_alpha   90.00000000
_cell_angle_beta   90.00000000
_cell_angle_gamma   120.00000000
_symmetry_Int_Tables_number   1
_chemical_formula_structural   Li4Mn2P
_chemical_formula_sum   'Li4 Mn2 P1'
_cell_volume   124.44390519
_cell_formula_units_Z   1
loop_
 _symmetry_equiv_pos_site_id
 _symmetry_equiv_pos_as_xyz
  1  'x, y, z'
loop_
 _atom_site_type_symbol
 _atom_site_label
 _atom_site_symmetry_multiplicity
 _atom_site_fract_x
 _atom_site_fract_y
 _atom_site_fract_z
 _atom_site_occupancy
  Li  Li0  1  0.00000000  0.00000000  0.75470797  1
  Li  Li1  1  0.00000000  0.00000000  0.24529199  1
  Li  Li2  1  0.00000000  0.00000000  0.49999998  1
  Li  Li3  1  0.66666670  0.33333334  0.62867398  1
  Mn  Mn4  1  0.33333337  0.66666669  0.37132599  1
  Mn  Mn5  1  0.33333337  0.66666669  0.12462600  1
  P  P6  1  0.66666670  0.33333334  0.87537397  1
