# generated using pymatgen
data_Y2ErAlGe4
_symmetry_space_group_name_H-M   'P 1'
_cell_length_a   3.76850605
_cell_length_b   4.39215612
_cell_length_c   10.71218300
_cell_angle_alpha   90.00000000
_cell_angle_beta   90.00000000
_cell_angle_gamma   90.00000000
_symmetry_Int_Tables_number   1
_chemical_formula_structural   Y2ErAlGe4
_chemical_formula_sum   'Y2 Er1 Al1 Ge4'
_cell_volume   177.30662749
_cell_formula_units_Z   1
loop_
 _symmetry_equiv_pos_site_id
 _symmetry_equiv_pos_as_xyz
  1  'x, y, z'
loop_
 _atom_site_type_symbol
 _atom_site_label
 _atom_site_symmetry_multiplicity
 _atom_site_fract_x
 _atom_site_fract_y
 _atom_site_fract_z
 _atom_site_occupancy
  Er  Er0  1  0.00000000  0.49999999  0.85757100  1
  Y  Y1  1  0.00000000  0.00000000  0.14061100  1
  Y  Y2  1  0.49999999  0.00000000  0.64353400  1
  Al  Al3  1  0.49999999  0.49999999  0.35700400  1
  Ge  Ge4  1  0.49999999  0.49999999  0.09246000  1
  Ge  Ge5  1  0.00000000  0.49999999  0.59504300  1
  Ge  Ge6  1  0.00000000  0.00000000  0.40611100  1
  Ge  Ge7  1  0.49999999  0.00000000  0.90766600  1
