# generated using pymatgen
data_LiMnO3
_symmetry_space_group_name_H-M   'P 1'
_cell_length_a   3.68815899
_cell_length_b   6.85028839
_cell_length_c   9.95505238
_cell_angle_alpha   90.30528259
_cell_angle_beta   89.99961853
_cell_angle_gamma   90.00082397
_symmetry_Int_Tables_number   1
_chemical_formula_structural   LiMnO3
_chemical_formula_sum   'Li4 Mn4 O12'
_cell_volume   251.51035726
_cell_formula_units_Z   4
loop_
 _symmetry_equiv_pos_site_id
 _symmetry_equiv_pos_as_xyz
  1  'x, y, z'
loop_
 _atom_site_type_symbol
 _atom_site_label
 _atom_site_symmetry_multiplicity
 _atom_site_fract_x
 _atom_site_fract_y
 _atom_site_fract_z
 _atom_site_occupancy
  Li  Li0  1  0.74997298  0.55427801  0.21606503  1
  Li  Li1  1  0.74994902  0.05369500  0.28337803  1
  Li  Li2  1  0.25004993  0.94634502  0.71661303  1
  Li  Li3  1  0.25003297  0.44575301  0.78393903  1
  Mn  Mn4  1  0.74998897  0.66198802  0.52435604  1
  Mn  Mn5  1  0.75001201  0.16149200  0.97550604  1
  Mn  Mn6  1  0.24999994  0.83844702  0.02449001  1
  Mn  Mn7  1  0.24999798  0.33801001  0.47563102  1
  O  O8  1  0.74999795  0.90928602  0.06486803  1
  O  O9  1  0.74999799  0.40840901  0.43533003  1
  O  O10  1  0.24998896  0.59159201  0.56467103  1
  O  O11  1  0.25002000  0.09066500  0.93514903  1
  O  O12  1  0.75002895  0.88597002  0.63697704  1
  O  O13  1  0.75003199  0.38476901  0.86388004  1
  O  O14  1  0.74997396  0.78426002  0.34017303  1
  O  O15  1  0.74997600  0.28494501  0.16014202  1
  O  O16  1  0.25000395  0.71507902  0.83984403  1
  O  O17  1  0.25002599  0.21576901  0.65984103  1
  O  O18  1  0.24998796  0.61519402  0.13614502  1
  O  O19  1  0.24996300  0.11405400  0.36300202  1
