# generated using pymatgen
data_Ba3Bi4
_symmetry_space_group_name_H-M   'P 1'
_cell_length_a   8.68717575
_cell_length_b   8.68717575
_cell_length_c   10.60346031
_cell_angle_alpha   90.00000000
_cell_angle_beta   90.00000000
_cell_angle_gamma   120.00000000
_symmetry_Int_Tables_number   1
_chemical_formula_structural   Ba3Bi4
_chemical_formula_sum   'Ba6 Bi8'
_cell_volume   693.00355512
_cell_formula_units_Z   2
loop_
 _symmetry_equiv_pos_site_id
 _symmetry_equiv_pos_as_xyz
  1  'x, y, z'
loop_
 _atom_site_type_symbol
 _atom_site_label
 _atom_site_symmetry_multiplicity
 _atom_site_fract_x
 _atom_site_fract_y
 _atom_site_fract_z
 _atom_site_occupancy
  Ba  Ba0  1  0.00000000  0.00000000  0.00000000  1
  Ba  Ba1  1  0.33333334  0.66666668  0.32570399  1
  Ba  Ba2  1  0.66666668  0.33333334  0.67429598  1
  Ba  Ba3  1  0.33333334  0.66666668  0.81536598  1
  Ba  Ba4  1  0.66666668  0.33333334  0.18463399  1
  Ba  Ba5  1  0.50000001  0.00000000  0.00000000  1
  Bi  Bi6  1  0.50000001  0.50000001  0.99999997  1
  Bi  Bi7  1  1.00000003  0.50000001  -0.00000000  1
  Bi  Bi8  1  0.82860402  0.65720801  0.33556699  1
  Bi  Bi9  1  0.82860402  0.17139600  0.33556699  1
  Bi  Bi10  1  0.34279201  0.17139600  0.33556699  1
  Bi  Bi11  1  0.65720801  0.82860401  0.66443298  1
  Bi  Bi12  1  0.17139600  0.82860401  0.66443298  1
  Bi  Bi13  1  0.17139600  0.34279201  0.66443298  1
