# generated using pymatgen
data_LiMn6V
_symmetry_space_group_name_H-M   'P 1'
_cell_length_a   3.30855203
_cell_length_b   3.30855203
_cell_length_c   11.15756130
_cell_angle_alpha   90.00000000
_cell_angle_beta   90.00000000
_cell_angle_gamma   120.00000000
_symmetry_Int_Tables_number   1
_chemical_formula_structural   LiMn6V
_chemical_formula_sum   'Li1 Mn6 V1'
_cell_volume   105.77325028
_cell_formula_units_Z   1
loop_
 _symmetry_equiv_pos_site_id
 _symmetry_equiv_pos_as_xyz
  1  'x, y, z'
loop_
 _atom_site_type_symbol
 _atom_site_label
 _atom_site_symmetry_multiplicity
 _atom_site_fract_x
 _atom_site_fract_y
 _atom_site_fract_z
 _atom_site_occupancy
  Li  Li0  1  0.00000000  0.00000000  0.00000000  1
  V  V1  1  0.00000000  0.00000000  0.49999999  1
  Mn  Mn2  1  0.00000000  0.00000000  0.74999998  1
  Mn  Mn3  1  0.00000000  0.00000000  0.24999999  1
  Mn  Mn4  1  0.66666666  0.33333332  0.89115998  1
  Mn  Mn5  1  0.33333332  0.66666664  0.10884000  1
  Mn  Mn6  1  0.33333332  0.66666664  0.39115999  1
  Mn  Mn7  1  0.66666666  0.33333332  0.60883998  1
