# generated using pymatgen
data_Ca11Ge
_symmetry_space_group_name_H-M   'P 1'
_cell_length_a   4.99711895
_cell_length_b   8.32600594
_cell_length_c   9.97313881
_cell_angle_alpha   90.00000000
_cell_angle_beta   90.00000000
_cell_angle_gamma   90.00000000
_symmetry_Int_Tables_number   1
_chemical_formula_structural   Ca11Ge
_chemical_formula_sum   'Ca11 Ge1'
_cell_volume   414.94283255
_cell_formula_units_Z   1
loop_
 _symmetry_equiv_pos_site_id
 _symmetry_equiv_pos_as_xyz
  1  'x, y, z'
loop_
 _atom_site_type_symbol
 _atom_site_label
 _atom_site_symmetry_multiplicity
 _atom_site_fract_x
 _atom_site_fract_y
 _atom_site_fract_z
 _atom_site_occupancy
  Ca  Ca0  1  0.50000001  0.02486700  0.42226901  1
  Ca  Ca1  1  -0.00000000  0.34092000  0.33757001  1
  Ca  Ca2  1  0.50000001  0.52486700  0.57773101  1
  Ca  Ca3  1  0.00000000  0.84092001  0.66243001  1
  Ca  Ca4  1  0.00000000  0.49606900  0.95409702  1
  Ca  Ca5  1  -0.00000000  0.99606901  0.04590300  1
  Ca  Ca6  1  0.50000001  0.15180400  0.82443302  1
  Ca  Ca7  1  0.50000001  0.65180401  0.17556700  1
  Ca  Ca8  1  0.00000000  0.24943700  0.68490201  1
  Ca  Ca9  1  0.50000001  0.28242300  0.10957100  1
  Ge  Ge10  1  0.00000000  0.74943701  0.31509801  1
  Ca  Ca11  1  0.50000001  0.78242301  0.89042902  1
