# generated using pymatgen
data_BaSr3(FeO3)4
_symmetry_space_group_name_H-M   'P 1'
_cell_length_a   5.85406160
_cell_length_b   5.85406160
_cell_length_c   8.52555180
_cell_angle_alpha   90.00000000
_cell_angle_beta   90.00000000
_cell_angle_gamma   90.00000000
_symmetry_Int_Tables_number   1
_chemical_formula_structural   BaSr3(FeO3)4
_chemical_formula_sum   'Ba1 Sr3 Fe4 O12'
_cell_volume   292.17097769
_cell_formula_units_Z   1
loop_
 _symmetry_equiv_pos_site_id
 _symmetry_equiv_pos_as_xyz
  1  'x, y, z'
loop_
 _atom_site_type_symbol
 _atom_site_label
 _atom_site_symmetry_multiplicity
 _atom_site_fract_x
 _atom_site_fract_y
 _atom_site_fract_z
 _atom_site_occupancy
  Sr  Sr0  1  0.00000000  0.50000001  0.25000000  1
  Ba  Ba1  1  0.50000001  0.00000000  0.75000000  1
  Sr  Sr2  1  0.50000001  0.00000000  0.25000000  1
  Sr  Sr3  1  0.00000000  0.50000001  0.75000000  1
  Fe  Fe4  1  0.00000000  0.00000000  0.00000000  1
  Fe  Fe5  1  0.50000001  0.50000001  0.50000000  1
  Fe  Fe6  1  0.00000000  0.00000000  0.50000000  1
  Fe  Fe7  1  0.50000001  0.50000001  -0.00000000  1
  O  O8  1  0.00000000  0.00000000  0.26480819  1
  O  O9  1  0.50000001  0.50000001  0.23519181  1
  O  O10  1  0.00000000  0.00000000  0.73519181  1
  O  O11  1  0.50000001  0.50000001  0.76480819  1
  O  O12  1  0.34345646  0.19379999  0.01021779  1
  O  O13  1  0.65654356  0.80620002  0.01021779  1
  O  O14  1  0.80620002  0.34345646  0.98978222  1
  O  O15  1  0.19379999  0.65654356  0.98978222  1
  O  O16  1  0.84345646  0.30620002  0.51021779  1
  O  O17  1  0.15654355  0.69380000  0.51021779  1
  O  O18  1  0.30620002  0.15654355  0.48978221  1
  O  O19  1  0.69380000  0.84345646  0.48978221  1
