# generated using pymatgen
data_HfTiGaCu2Sn7Rh8
_symmetry_space_group_name_H-M   'P 1'
_cell_length_a   7.63591909
_cell_length_b   7.63591909
_cell_length_c   7.63591814
_cell_angle_alpha   68.30289459
_cell_angle_beta   68.30289459
_cell_angle_gamma   68.30289459
_symmetry_Int_Tables_number   1
_chemical_formula_structural   HfTiGaCu2Sn7Rh8
_chemical_formula_sum   'Hf1 Ti1 Ga1 Cu2 Sn7 Rh8'
_cell_volume   370.11017161
_cell_formula_units_Z   1
loop_
 _symmetry_equiv_pos_site_id
 _symmetry_equiv_pos_as_xyz
  1  'x, y, z'
loop_
 _atom_site_type_symbol
 _atom_site_label
 _atom_site_symmetry_multiplicity
 _atom_site_fract_x
 _atom_site_fract_y
 _atom_site_fract_z
 _atom_site_occupancy
  Ti  Ti0  1  0.52922500  0.11879800  0.11879798  1
  Hf  Hf1  1  0.11879798  0.52922501  0.11879799  1
  Sn  Sn2  1  0.88120198  0.47077501  0.88120198  1
  Ga  Ga3  1  0.11879800  0.11879800  0.52922501  1
  Sn  Sn4  1  0.88120196  0.88120201  0.47077497  1
  Sn  Sn5  1  0.47077496  0.88120201  0.88120199  1
  Sn  Sn6  1  0.82491098  0.50948201  0.50948198  1
  Sn  Sn7  1  0.82146499  0.29604300  0.29604298  1
  Sn  Sn8  1  0.70395697  0.70395701  0.17853497  1
  Sn  Sn9  1  0.17508898  0.49051801  0.49051800  1
  Rh  Rh10  1  0.29604299  0.29604300  0.82146500  1
  Cu  Cu11  1  0.49051799  0.17508900  0.49051799  1
  Rh  Rh12  1  0.17853497  0.70395701  0.70395700  1
  Cu  Cu13  1  0.92408196  0.92408202  0.92408198  1
  Rh  Rh14  1  0.49051798  0.49051801  0.17508898  1
  Rh  Rh15  1  0.70395700  0.17853500  0.70395699  1
  Rh  Rh16  1  0.50948196  0.82491101  0.50948198  1
  Rh  Rh17  1  0.29604296  0.82146501  0.29604298  1
  Rh  Rh18  1  0.50948198  0.50948201  0.82491099  1
  Rh  Rh19  1  0.07591800  0.07591800  0.07591800  1
