# generated using pymatgen
data_Nd8NiSn9
_symmetry_space_group_name_H-M   'P 1'
_cell_length_a   6.22202682
_cell_length_b   9.36962223
_cell_length_c   9.36962128
_cell_angle_alpha   120.00000000
_cell_angle_beta   90.00000000
_cell_angle_gamma   90.00000000
_symmetry_Int_Tables_number   1
_chemical_formula_structural   Nd8NiSn9
_chemical_formula_sum   'Nd8 Ni1 Sn9'
_cell_volume   473.04954477
_cell_formula_units_Z   1
loop_
 _symmetry_equiv_pos_site_id
 _symmetry_equiv_pos_as_xyz
  1  'x, y, z'
loop_
 _atom_site_type_symbol
 _atom_site_label
 _atom_site_symmetry_multiplicity
 _atom_site_fract_x
 _atom_site_fract_y
 _atom_site_fract_z
 _atom_site_occupancy
  Nd  Nd0  1  0.75000002  0.38010298  0.38010299  1
  Nd  Nd1  1  0.25000001  0.61989697  0.61989698  1
  Nd  Nd2  1  0.75000002  0.99999995  0.61989697  1
  Nd  Nd3  1  0.25000001  0.99999995  0.38010296  1
  Nd  Nd4  1  0.75000002  0.61989697  -0.00000003  1
  Nd  Nd5  1  0.25000001  0.38010298  -0.00000002  1
  Nd  Nd6  1  0.00000000  0.00000000  0.00000000  1
  Nd  Nd7  1  0.50000001  0.00000000  -0.00000000  1
  Sn  Sn8  1  0.75000002  0.73680597  0.73680598  1
  Sn  Sn9  1  0.25000001  0.26319399  0.26319399  1
  Sn  Sn10  1  0.75000002  0.99999995  0.26319396  1
  Sn  Sn11  1  0.25000001  0.00000000  0.73680601  1
  Ni  Ni12  1  0.75000002  0.26319399  -0.00000001  1
  Sn  Sn13  1  0.25000001  0.73680597  0.99999998  1
  Sn  Sn14  1  -0.00000000  0.66666664  0.33333331  1
  Sn  Sn15  1  -0.00000000  0.33333332  0.66666666  1
  Sn  Sn16  1  0.50000001  0.33333332  0.66666666  1
  Sn  Sn17  1  0.50000001  0.66666664  0.33333331  1
