# generated using pymatgen
data_Ce2GaPd2
_symmetry_space_group_name_H-M   'P 1'
_cell_length_a   3.38895392
_cell_length_b   7.74233913
_cell_length_c   7.74233913
_cell_angle_alpha   90.00000000
_cell_angle_beta   90.00000000
_cell_angle_gamma   90.00000000
_symmetry_Int_Tables_number   1
_chemical_formula_structural   Ce2GaPd2
_chemical_formula_sum   'Ce4 Ga2 Pd4'
_cell_volume   203.14682799
_cell_formula_units_Z   2
loop_
 _symmetry_equiv_pos_site_id
 _symmetry_equiv_pos_as_xyz
  1  'x, y, z'
loop_
 _atom_site_type_symbol
 _atom_site_label
 _atom_site_symmetry_multiplicity
 _atom_site_fract_x
 _atom_site_fract_y
 _atom_site_fract_z
 _atom_site_occupancy
  Ce  Ce0  1  0.50000001  0.66309999  0.83689999  1
  Ce  Ce1  1  0.50000001  0.33689999  0.16310000  1
  Ce  Ce2  1  0.50000001  0.83689999  0.33689999  1
  Ce  Ce3  1  0.50000001  0.16310000  0.66309999  1
  Ga  Ga4  1  0.00000000  0.49999999  0.49999999  1
  Ga  Ga5  1  0.00000000  0.00000000  0.00000000  1
  Pd  Pd6  1  0.00000000  0.85822199  0.64177799  1
  Pd  Pd7  1  0.00000000  0.64177799  0.14177800  1
  Pd  Pd8  1  0.00000000  0.14177800  0.35822199  1
  Pd  Pd9  1  0.00000000  0.35822199  0.85822199  1
