# generated using pymatgen
data_LiTi3O10
_symmetry_space_group_name_H-M   'P 1'
_cell_length_a   6.17433500
_cell_length_b   6.17435598
_cell_length_c   6.37045288
_cell_angle_alpha   61.01616669
_cell_angle_beta   61.01876450
_cell_angle_gamma   90.00165558
_symmetry_Int_Tables_number   1
_chemical_formula_structural   LiTi3O10
_chemical_formula_sum   'Li1 Ti3 O10'
_cell_volume   176.87366743
_cell_formula_units_Z   1
loop_
 _symmetry_equiv_pos_site_id
 _symmetry_equiv_pos_as_xyz
  1  'x, y, z'
loop_
 _atom_site_type_symbol
 _atom_site_label
 _atom_site_symmetry_multiplicity
 _atom_site_fract_x
 _atom_site_fract_y
 _atom_site_fract_z
 _atom_site_occupancy
  Li  Li0  1  0.87491899  0.62497200  0.74997098  1
  Ti  Ti1  1  0.12508098  0.37502900  0.25002800  1
  Ti  Ti2  1  0.50000296  0.99999900  0.49999999  1
  Ti  Ti3  1  0.49999901  0.00000100  0.99999798  1
  O  O4  1  0.50000199  0.49999700  0.50000399  1
  O  O5  1  -0.00000005  0.99999800  0.00000200  1
  O  O6  1  0.26178500  0.22926100  0.54158699  1
  O  O7  1  0.27086500  0.23805400  0.95831899  1
  O  O8  1  0.27080997  0.80348500  0.95831899  1
  O  O9  1  0.73821498  0.77074000  0.45841199  1
  O  O10  1  0.30365597  0.77084800  0.45831399  1
  O  O11  1  0.72913398  0.76194700  0.04167999  1
  O  O12  1  0.69634301  0.22915300  0.54168499  1
  O  O13  1  0.72918801  0.19651500  0.04168099  1
