# generated using pymatgen
data_InCuS3
_symmetry_space_group_name_H-M   'P 1'
_cell_length_a   4.08091021
_cell_length_b   4.08091021
_cell_length_c   7.64442301
_cell_angle_alpha   105.48111725
_cell_angle_beta   105.48111725
_cell_angle_gamma   90.00000000
_symmetry_Int_Tables_number   1
_chemical_formula_structural   InCuS3
_chemical_formula_sum   'In1 Cu1 S3'
_cell_volume   117.89015063
_cell_formula_units_Z   1
loop_
 _symmetry_equiv_pos_site_id
 _symmetry_equiv_pos_as_xyz
  1  'x, y, z'
loop_
 _atom_site_type_symbol
 _atom_site_label
 _atom_site_symmetry_multiplicity
 _atom_site_fract_x
 _atom_site_fract_y
 _atom_site_fract_z
 _atom_site_occupancy
  Cu  Cu0  1  0.33110200  0.33110199  0.66220400  1
  In  In1  1  0.66889799  0.66889798  0.33779603  1
  S  S2  1  0.00000000  0.00000000  0.00000000  1
  S  S3  1  0.25000001  0.74999997  0.50000002  1
  S  S4  1  0.74999998  0.24999999  0.50000001  1
