# generated using pymatgen
data_Cs2Ti3VO12
_symmetry_space_group_name_H-M   'P 1'
_cell_length_a   7.43179417
_cell_length_b   7.47338724
_cell_length_c   7.47338724
_cell_angle_alpha   60.21673203
_cell_angle_beta   60.18393707
_cell_angle_gamma   60.18393707
_symmetry_Int_Tables_number   1
_chemical_formula_structural   Cs2Ti3VO12
_chemical_formula_sum   'Cs2 Ti3 V1 O12'
_cell_volume   294.79882572
_cell_formula_units_Z   1
loop_
 _symmetry_equiv_pos_site_id
 _symmetry_equiv_pos_as_xyz
  1  'x, y, z'
loop_
 _atom_site_type_symbol
 _atom_site_label
 _atom_site_symmetry_multiplicity
 _atom_site_fract_x
 _atom_site_fract_y
 _atom_site_fract_z
 _atom_site_occupancy
  Cs  Cs0  1  0.87400097  0.87599901  0.37599904  1
  Cs  Cs1  1  0.12599900  0.12400100  0.62400102  1
  V  V2  1  0.49999999  0.50000001  0.50000003  1
  Ti  Ti3  1  0.49999999  0.00000000  1.00000003  1
  Ti  Ti4  1  0.99999997  0.50000001  1.00000005  1
  Ti  Ti5  1  0.49999999  0.50000001  0.00000002  1
  O  O6  1  0.80953698  0.44046301  0.94046305  1
  O  O7  1  0.43831999  0.81168001  0.31168003  1
  O  O8  1  0.43828699  0.80422501  0.94042505  1
  O  O9  1  0.81706298  0.44042601  0.30422503  1
  O  O10  1  0.43828699  0.44042501  0.30422502  1
  O  O11  1  0.81706298  0.80422601  0.94042506  1
  O  O12  1  0.19046299  0.55953701  0.05953702  1
  O  O13  1  0.56167998  0.18832000  0.68832003  1
  O  O14  1  0.56171298  0.19577500  0.05957501  1
  O  O15  1  0.18293699  0.55957401  0.69577503  1
  O  O16  1  0.56171298  0.55957501  0.69577504  1
  O  O17  1  0.18293699  0.19577400  0.05957501  1
