# generated using pymatgen
data_Nd6HfZrO12
_symmetry_space_group_name_H-M   'P 1'
_cell_length_a   5.60347605
_cell_length_b   5.93298578
_cell_length_c   8.21589470
_cell_angle_alpha   90.00000000
_cell_angle_beta   90.00000000
_cell_angle_gamma   90.00000000
_symmetry_Int_Tables_number   1
_chemical_formula_structural   Nd6HfZrO12
_chemical_formula_sum   'Nd6 Hf1 Zr1 O12'
_cell_volume   273.14024326
_cell_formula_units_Z   1
loop_
 _symmetry_equiv_pos_site_id
 _symmetry_equiv_pos_as_xyz
  1  'x, y, z'
loop_
 _atom_site_type_symbol
 _atom_site_label
 _atom_site_symmetry_multiplicity
 _atom_site_fract_x
 _atom_site_fract_y
 _atom_site_fract_z
 _atom_site_occupancy
  Nd  Nd0  1  0.02024000  0.43658902  0.25000001  1
  Nd  Nd1  1  0.97975999  0.56341102  0.75000003  1
  Nd  Nd2  1  0.52024000  0.06341100  0.75000003  1
  Nd  Nd3  1  0.47976000  0.93658903  0.25000001  1
  Nd  Nd4  1  0.00000000  0.00000000  0.00000000  1
  Nd  Nd5  1  0.50000000  0.50000002  -0.00000000  1
  Zr  Zr6  1  0.00000000  0.00000000  0.50000002  1
  Hf  Hf7  1  0.50000000  0.50000002  0.50000002  1
  O  O8  1  0.31444500  0.18954201  0.07057000  1
  O  O9  1  0.68555499  0.81045803  0.92943003  1
  O  O10  1  0.81444499  0.31045801  0.92943003  1
  O  O11  1  0.68555499  0.81045803  0.57057002  1
  O  O12  1  0.18555500  0.68954203  0.07057000  1
  O  O13  1  0.31444500  0.18954201  0.42943002  1
  O  O14  1  0.18555500  0.68954203  0.42943002  1
  O  O15  1  0.81444499  0.31045801  0.57057002  1
  O  O16  1  0.63880799  0.56590702  0.25000001  1
  O  O17  1  0.36119200  0.43409302  0.75000003  1
  O  O18  1  0.13880800  0.93409303  0.75000003  1
  O  O19  1  0.86119199  0.06590700  0.25000001  1
