# generated using pymatgen
data_TbDyAl4CoPd6
_symmetry_space_group_name_H-M   'P 1'
_cell_length_a   5.45645189
_cell_length_b   5.45645189
_cell_length_c   9.01465321
_cell_angle_alpha   90.00000000
_cell_angle_beta   90.00000000
_cell_angle_gamma   120.00000000
_symmetry_Int_Tables_number   1
_chemical_formula_structural   TbDyAl4CoPd6
_chemical_formula_sum   'Tb1 Dy1 Al4 Co1 Pd6'
_cell_volume   232.43435364
_cell_formula_units_Z   1
loop_
 _symmetry_equiv_pos_site_id
 _symmetry_equiv_pos_as_xyz
  1  'x, y, z'
loop_
 _atom_site_type_symbol
 _atom_site_label
 _atom_site_symmetry_multiplicity
 _atom_site_fract_x
 _atom_site_fract_y
 _atom_site_fract_z
 _atom_site_occupancy
  Dy  Dy0  1  0.00000000  0.00000000  0.00000000  1
  Tb  Tb1  1  0.50000001  0.00000000  0.24897599  1
  Al  Al2  1  0.50000001  0.50000000  0.24897599  1
  Al  Al3  1  -0.00000000  0.50000000  0.24897599  1
  Al  Al4  1  0.50000001  0.00000000  0.75102398  1
  Al  Al5  1  0.50000001  0.50000000  0.75102398  1
  Co  Co6  1  -0.00000000  0.50000000  0.75102398  1
  Pd  Pd7  1  0.33333334  0.66666667  -0.00000000  1
  Pd  Pd8  1  0.66666668  0.33333334  0.99999998  1
  Pd  Pd9  1  0.33333334  0.66666667  0.49999999  1
  Pd  Pd10  1  0.66666668  0.33333334  0.49999999  1
  Pd  Pd11  1  0.00000000  0.00000000  0.33313899  1
  Pd  Pd12  1  0.00000000  0.00000000  0.66686098  1
