# generated using pymatgen
data_YGe5
_symmetry_space_group_name_H-M   'P 1'
_cell_length_a   5.22907114
_cell_length_b   5.22907114
_cell_length_c   5.36923790
_cell_angle_alpha   90.00000000
_cell_angle_beta   90.00000000
_cell_angle_gamma   90.00000000
_symmetry_Int_Tables_number   1
_chemical_formula_structural   YGe5
_chemical_formula_sum   'Y1 Ge5'
_cell_volume   146.81206515
_cell_formula_units_Z   1
loop_
 _symmetry_equiv_pos_site_id
 _symmetry_equiv_pos_as_xyz
  1  'x, y, z'
loop_
 _atom_site_type_symbol
 _atom_site_label
 _atom_site_symmetry_multiplicity
 _atom_site_fract_x
 _atom_site_fract_y
 _atom_site_fract_z
 _atom_site_occupancy
  Ge  Ge0  1  0.00000000  0.00000000  0.00000000  1
  Y  Y1  1  0.49999999  0.49999999  0.50000001  1
  Ge  Ge2  1  0.36615999  0.36615999  -0.00000000  1
  Ge  Ge3  1  0.63383998  0.63383998  0.00000000  1
  Ge  Ge4  1  0.86615998  0.13384000  0.50000001  1
  Ge  Ge5  1  0.13384000  0.86615998  0.50000001  1
