# generated using pymatgen
data_Ce3CoPd8
_symmetry_space_group_name_H-M   'P 1'
_cell_length_a   3.95850801
_cell_length_b   3.95850801
_cell_length_c   14.60459900
_cell_angle_alpha   90.00000000
_cell_angle_beta   90.00000000
_cell_angle_gamma   90.00000000
_symmetry_Int_Tables_number   1
_chemical_formula_structural   Ce3CoPd8
_chemical_formula_sum   'Ce3 Co1 Pd8'
_cell_volume   228.85093658
_cell_formula_units_Z   1
loop_
 _symmetry_equiv_pos_site_id
 _symmetry_equiv_pos_as_xyz
  1  'x, y, z'
loop_
 _atom_site_type_symbol
 _atom_site_label
 _atom_site_symmetry_multiplicity
 _atom_site_fract_x
 _atom_site_fract_y
 _atom_site_fract_z
 _atom_site_occupancy
  Ce  Ce0  1  0.50000000  0.50000000  0.16759300  1
  Ce  Ce1  1  0.50000000  0.50000000  0.66524600  1
  Ce  Ce2  1  0.00000000  0.00000000  0.34763100  1
  Co  Co3  1  0.00000000  0.00000000  0.83320700  1
  Pd  Pd4  1  0.50000000  0.00000000  0.99225100  1
  Pd  Pd5  1  0.50000000  0.00000000  0.50478100  1
  Pd  Pd6  1  -0.00000000  0.50000000  0.99225100  1
  Pd  Pd7  1  -0.00000000  0.50000000  0.50478100  1
  Pd  Pd8  1  0.50000000  0.50000000  0.40817300  1
  Pd  Pd9  1  0.50000000  0.50000000  0.89491600  1
  Pd  Pd10  1  0.00000000  0.00000000  0.08628500  1
  Pd  Pd11  1  0.00000000  0.00000000  0.60288300  1
