# generated using pymatgen
data_Li2MgZn(NiO)5
_symmetry_space_group_name_H-M   'P 1'
_cell_length_a   6.48924780
_cell_length_b   6.48924780
_cell_length_c   6.48924780
_cell_angle_alpha   60.00000000
_cell_angle_beta   60.00000000
_cell_angle_gamma   60.00000000
_symmetry_Int_Tables_number   1
_chemical_formula_structural   Li2MgZn(NiO)5
_chemical_formula_sum   'Li2 Mg1 Zn1 Ni5 O5'
_cell_volume   193.22711854
_cell_formula_units_Z   1
loop_
 _symmetry_equiv_pos_site_id
 _symmetry_equiv_pos_as_xyz
  1  'x, y, z'
loop_
 _atom_site_type_symbol
 _atom_site_label
 _atom_site_symmetry_multiplicity
 _atom_site_fract_x
 _atom_site_fract_y
 _atom_site_fract_z
 _atom_site_occupancy
  Li  Li0  1  0.00000000  0.00000000  0.00000000  1
  Li  Li1  1  0.74999998  0.74999998  0.74999998  1
  Mg  Mg2  1  0.37499999  0.37499999  0.37499999  1
  Ni  Ni3  1  0.37499999  0.87499998  0.37499999  1
  Ni  Ni4  1  0.37499999  0.37499999  0.87499998  1
  Ni  Ni5  1  0.87499998  0.37499999  0.37499999  1
  Ni  Ni6  1  0.61623798  0.61623698  0.61623698  1
  O  O7  1  0.59871098  0.13376300  0.13376300  1
  Ni  Ni8  1  0.61623798  0.61623698  0.15128800  1
  Zn  Zn9  1  0.61623798  0.15128800  0.61623698  1
  O  O10  1  0.13376200  0.59871198  0.13376300  1
  O  O11  1  0.13376200  0.13376300  0.59871198  1
  O  O12  1  0.15128900  0.61623698  0.61623698  1
  O  O13  1  0.13376200  0.13376300  0.13376300  1
