# generated using pymatgen
data_Dy4AlGe11
_symmetry_space_group_name_H-M   'P 1'
_cell_length_a   4.58470583
_cell_length_b   6.73724794
_cell_length_c   10.46567345
_cell_angle_alpha   90.00000000
_cell_angle_beta   90.00000000
_cell_angle_gamma   90.00000000
_symmetry_Int_Tables_number   1
_chemical_formula_structural   Dy4AlGe11
_chemical_formula_sum   'Dy4 Al1 Ge11'
_cell_volume   323.26686033
_cell_formula_units_Z   1
loop_
 _symmetry_equiv_pos_site_id
 _symmetry_equiv_pos_as_xyz
  1  'x, y, z'
loop_
 _atom_site_type_symbol
 _atom_site_label
 _atom_site_symmetry_multiplicity
 _atom_site_fract_x
 _atom_site_fract_y
 _atom_site_fract_z
 _atom_site_occupancy
  Dy  Dy0  1  0.25000001  0.27608200  0.65867897  1
  Dy  Dy1  1  0.25000001  0.77608201  0.84132096  1
  Dy  Dy2  1  0.75000003  0.72391801  0.34132099  1
  Dy  Dy3  1  0.75000003  0.22391800  0.15867899  1
  Al  Al4  1  0.25000001  0.53492100  0.10567400  1
  Ge  Ge5  1  0.25000001  0.03492100  0.39432598  1
  Ge  Ge6  1  0.75000003  0.46507900  0.89432596  1
  Ge  Ge7  1  0.75000003  0.96507901  0.60567397  1
  Ge  Ge8  1  0.25000001  0.91480101  0.14705499  1
  Ge  Ge9  1  0.25000001  0.41480100  0.35294498  1
  Ge  Ge10  1  0.75000003  0.08519900  0.85294496  1
  Ge  Ge11  1  0.75000003  0.58519900  0.64705497  1
  Ge  Ge12  1  0.25000001  0.21706300  0.95647796  1
  Ge  Ge13  1  0.25000001  0.71706301  0.54352198  1
  Ge  Ge14  1  0.75000003  0.78293701  0.04352200  1
  Ge  Ge15  1  0.75000003  0.28293700  0.45647798  1
