# generated using pymatgen
data_LiPd
_symmetry_space_group_name_H-M   'P 1'
_cell_length_a   4.41803980
_cell_length_b   7.01680422
_cell_length_c   9.85251141
_cell_angle_alpha   90.00000000
_cell_angle_beta   90.00000000
_cell_angle_gamma   90.00000000
_symmetry_Int_Tables_number   1
_chemical_formula_structural   LiPd
_chemical_formula_sum   'Li8 Pd8'
_cell_volume   305.43297981
_cell_formula_units_Z   8
loop_
 _symmetry_equiv_pos_site_id
 _symmetry_equiv_pos_as_xyz
  1  'x, y, z'
loop_
 _atom_site_type_symbol
 _atom_site_label
 _atom_site_symmetry_multiplicity
 _atom_site_fract_x
 _atom_site_fract_y
 _atom_site_fract_z
 _atom_site_occupancy
  Li  Li0  1  0.25000001  0.30853699  0.09868000  1
  Li  Li1  1  0.75000003  0.69146298  0.90131996  1
  Li  Li2  1  0.75000003  0.80853697  0.40131998  1
  Li  Li3  1  0.25000001  0.19146299  0.59867998  1
  Li  Li4  1  0.25000001  0.78805798  0.14011999  1
  Li  Li5  1  0.75000003  0.21194199  0.85987996  1
  Li  Li6  1  0.75000003  0.28805799  0.35987999  1
  Li  Li7  1  0.25000001  0.71194198  0.64011997  1
  Pd  Pd8  1  0.25000001  0.52697798  0.39051398  1
  Pd  Pd9  1  0.75000003  0.47302199  0.60948597  1
  Pd  Pd10  1  0.75000003  0.02697800  0.10948600  1
  Pd  Pd11  1  0.25000001  0.97302197  0.89051396  1
  Pd  Pd12  1  0.25000001  0.07607700  0.32132099  1
  Pd  Pd13  1  0.75000003  0.92392297  0.67867897  1
  Pd  Pd14  1  0.75000003  0.57607698  0.17867899  1
  Pd  Pd15  1  0.25000001  0.42392299  0.82132097  1
