# generated using pymatgen
data_Ba3LaFeH7
_symmetry_space_group_name_H-M   'P 1'
_cell_length_a   3.91339993
_cell_length_b   4.11983967
_cell_length_c   20.94589996
_cell_angle_alpha   93.54955292
_cell_angle_beta   90.00000000
_cell_angle_gamma   118.35581207
_symmetry_Int_Tables_number   1
_chemical_formula_structural   Ba3LaFeH7
_chemical_formula_sum   'Ba3 La1 Fe1 H7'
_cell_volume   296.44645338
_cell_formula_units_Z   1
loop_
 _symmetry_equiv_pos_site_id
 _symmetry_equiv_pos_as_xyz
  1  'x, y, z'
loop_
 _atom_site_type_symbol
 _atom_site_label
 _atom_site_symmetry_multiplicity
 _atom_site_fract_x
 _atom_site_fract_y
 _atom_site_fract_z
 _atom_site_occupancy
  Ba  Ba0  1  0.14471899  0.28943798  0.06668600  1
  Ba  Ba1  1  0.14424999  0.28849998  0.56484202  1
  Ba  Ba2  1  0.85318199  0.70636396  0.43101901  1
  H  H3  1  0.85549099  0.71098196  0.93376003  1
  H  H4  1  0.42291398  0.84582795  0.01546400  1
  La  La5  1  0.42230798  0.84461595  0.51348502  1
  Fe  Fe6  1  0.57538400  0.15076799  0.48216202  1
  H  H7  1  0.57708000  0.15415999  0.98474804  1
  H  H8  1  0.17372699  0.34745398  0.83319703  1
  H  H9  1  0.82644899  0.65289796  0.16757900  1
  H  H10  1  0.82597999  0.65195996  0.66578302  1
  H  H11  1  0.17851699  0.35703398  0.34127401  1
