# generated using pymatgen
data_Ce2SnPd2
_symmetry_space_group_name_H-M   'P 1'
_cell_length_a   3.73817492
_cell_length_b   7.70739079
_cell_length_c   7.70739079
_cell_angle_alpha   90.00000000
_cell_angle_beta   90.00000000
_cell_angle_gamma   90.00000000
_symmetry_Int_Tables_number   1
_chemical_formula_structural   Ce2SnPd2
_chemical_formula_sum   'Ce4 Sn2 Pd4'
_cell_volume   222.06206686
_cell_formula_units_Z   2
loop_
 _symmetry_equiv_pos_site_id
 _symmetry_equiv_pos_as_xyz
  1  'x, y, z'
loop_
 _atom_site_type_symbol
 _atom_site_label
 _atom_site_symmetry_multiplicity
 _atom_site_fract_x
 _atom_site_fract_y
 _atom_site_fract_z
 _atom_site_occupancy
  Ce  Ce0  1  0.50000001  0.67539302  0.17539300  1
  Ce  Ce1  1  0.50000001  0.32460701  0.82460702  1
  Ce  Ce2  1  0.50000001  0.17539300  0.32460701  1
  Ce  Ce3  1  0.50000001  0.82460702  0.67539302  1
  Sn  Sn4  1  0.00000000  0.00000000  0.00000000  1
  Sn  Sn5  1  0.00000000  0.50000001  0.50000001  1
  Pd  Pd6  1  0.00000000  0.12721300  0.62721302  1
  Pd  Pd7  1  -0.00000000  0.87278702  0.37278701  1
  Pd  Pd8  1  -0.00000000  0.62721302  0.87278702  1
  Pd  Pd9  1  0.00000000  0.37278701  0.12721300  1
