# generated using pymatgen
data_Hf10NiSn7
_symmetry_space_group_name_H-M   'P 1'
_cell_length_a   5.91608381
_cell_length_b   8.72867203
_cell_length_c   8.72867107
_cell_angle_alpha   120.00000000
_cell_angle_beta   90.00000000
_cell_angle_gamma   90.00000000
_symmetry_Int_Tables_number   1
_chemical_formula_structural   Hf10NiSn7
_chemical_formula_sum   'Hf10 Ni1 Sn7'
_cell_volume   390.35635434
_cell_formula_units_Z   1
loop_
 _symmetry_equiv_pos_site_id
 _symmetry_equiv_pos_as_xyz
  1  'x, y, z'
loop_
 _atom_site_type_symbol
 _atom_site_label
 _atom_site_symmetry_multiplicity
 _atom_site_fract_x
 _atom_site_fract_y
 _atom_site_fract_z
 _atom_site_occupancy
  Hf  Hf0  1  0.75000002  0.99999997  0.26672096  1
  Hf  Hf1  1  0.25000001  0.26672099  0.26672100  1
  Hf  Hf2  1  0.75000002  0.26672099  1.00000003  1
  Hf  Hf3  1  0.50000002  0.33333332  0.66666668  1
  Hf  Hf4  1  0.25000001  0.00000000  0.73327903  1
  Hf  Hf5  1  0.25000001  0.73327898  1.00000000  1
  Hf  Hf6  1  1.00000003  0.66666665  0.33333332  1
  Hf  Hf7  1  1.00000003  0.33333332  0.66666668  1
  Hf  Hf8  1  0.50000002  0.66666665  0.33333332  1
  Hf  Hf9  1  0.75000002  0.73327898  0.73327899  1
  Ni  Ni10  1  0.00000000  0.00000000  0.00000000  1
  Sn  Sn11  1  0.50000002  0.00000000  -0.00000000  1
  Sn  Sn12  1  0.75000002  0.38775599  0.38775600  1
  Sn  Sn13  1  0.25000001  0.61224398  0.61224399  1
  Sn  Sn14  1  0.75000002  0.61224398  -0.00000003  1
  Sn  Sn15  1  0.75000002  0.00000000  0.61224402  1
  Sn  Sn16  1  0.25000001  0.00000000  0.38775601  1
  Sn  Sn17  1  0.25000001  0.38775599  -0.00000002  1
