# generated using pymatgen
data_Ba2La2Ni3O10
_symmetry_space_group_name_H-M   'P 1'
_cell_length_a   4.38255119
_cell_length_b   4.38305712
_cell_length_c   15.68890095
_cell_angle_alpha   97.95616150
_cell_angle_beta   97.94689941
_cell_angle_gamma   90.01111603
_symmetry_Int_Tables_number   1
_chemical_formula_structural   Ba2La2Ni3O10
_chemical_formula_sum   'Ba2 La2 Ni3 O10'
_cell_volume   295.54307770
_cell_formula_units_Z   1
loop_
 _symmetry_equiv_pos_site_id
 _symmetry_equiv_pos_as_xyz
  1  'x, y, z'
loop_
 _atom_site_type_symbol
 _atom_site_label
 _atom_site_symmetry_multiplicity
 _atom_site_fract_x
 _atom_site_fract_y
 _atom_site_fract_z
 _atom_site_occupancy
  La  La0  1  0.29513001  0.29554899  0.59432699  1
  Ba  Ba1  1  0.44691602  0.42268799  0.86078499  1
  Ba  Ba2  1  0.70022103  0.70208498  0.40550399  1
  La  La3  1  0.56885702  0.54670498  0.13907200  1
  Ni  Ni4  1  0.00157806  0.99338297  0.99998498  1
  Ni  Ni5  1  0.14006001  0.13572400  0.28373600  1
  Ni  Ni6  1  0.85616103  0.85066097  0.71618599  1
  O  O7  1  0.35495404  0.85430697  0.71822099  1
  O  O8  1  0.14007803  0.63573998  0.28083099  1
  O  O9  1  0.06849500  0.10395600  0.14160900  1
  O  O10  1  0.21003801  0.19586399  0.42536100  1
  O  O11  1  0.88510904  0.92344397  0.85829999  1
  O  O12  1  0.99984901  0.49196698  0.99347800  1
  O  O13  1  0.85541300  0.35129899  0.71862700  1
  O  O14  1  0.63959600  0.14036100  0.28260400  1
  O  O15  1  0.50325699  0.00046200  0.00673501  1
  O  O16  1  0.78208903  0.76760697  0.57463699  1
