# generated using pymatgen
data_Ce2Al3SiP2
_symmetry_space_group_name_H-M   'P 1'
_cell_length_a   5.32469797
_cell_length_b   5.71255732
_cell_length_c   5.71255732
_cell_angle_alpha   102.09056854
_cell_angle_beta   90.00000000
_cell_angle_gamma   90.00000000
_symmetry_Int_Tables_number   1
_chemical_formula_structural   Ce2Al3SiP2
_chemical_formula_sum   'Ce2 Al3 Si1 P2'
_cell_volume   169.90807788
_cell_formula_units_Z   1
loop_
 _symmetry_equiv_pos_site_id
 _symmetry_equiv_pos_as_xyz
  1  'x, y, z'
loop_
 _atom_site_type_symbol
 _atom_site_label
 _atom_site_symmetry_multiplicity
 _atom_site_fract_x
 _atom_site_fract_y
 _atom_site_fract_z
 _atom_site_occupancy
  Ce  Ce0  1  0.25000000  0.32163601  0.97108003  1
  Ce  Ce1  1  0.75000000  0.67836402  0.02892000  1
  Al  Al2  1  0.75000000  0.02892000  0.67836402  1
  Si  Si3  1  0.25000000  0.97108003  0.32163600  1
  Al  Al4  1  0.50000000  0.50000002  0.50000001  1
  Al  Al5  1  -0.00000000  0.50000002  0.50000001  1
  P  P6  1  0.25000000  0.77006503  0.77006502  1
  P  P7  1  0.75000000  0.22993501  0.22993501  1
