# generated using pymatgen
data_Ti4Cr3S8
_symmetry_space_group_name_H-M   'P 1'
_cell_length_a   6.86067772
_cell_length_b   6.86067772
_cell_length_c   6.86067867
_cell_angle_alpha   88.84554291
_cell_angle_beta   88.84554291
_cell_angle_gamma   88.84553528
_symmetry_Int_Tables_number   1
_chemical_formula_structural   Ti4Cr3S8
_chemical_formula_sum   'Ti4 Cr3 S8'
_cell_volume   322.73054447
_cell_formula_units_Z   1
loop_
 _symmetry_equiv_pos_site_id
 _symmetry_equiv_pos_as_xyz
  1  'x, y, z'
loop_
 _atom_site_type_symbol
 _atom_site_label
 _atom_site_symmetry_multiplicity
 _atom_site_fract_x
 _atom_site_fract_y
 _atom_site_fract_z
 _atom_site_occupancy
  Ti  Ti0  1  0.00000000  0.00000000  0.00000000  1
  Ti  Ti1  1  0.42369500  0.23803900  0.56021502  1
  Ti  Ti2  1  0.23803902  0.56021499  0.42369503  1
  Ti  Ti3  1  0.56021501  0.42369499  0.23803905  1
  Cr  Cr4  1  0.57630502  0.76196099  0.43978506  1
  Cr  Cr5  1  0.76196101  0.43978499  0.57630505  1
  Cr  Cr6  1  0.43978501  0.57630499  0.76196104  1
  S  S7  1  0.24274901  0.24274900  0.24274902  1
  S  S8  1  0.75725102  0.75725099  0.75725107  1
  S  S9  1  0.37754202  0.75003899  0.12256206  1
  S  S10  1  0.75003900  0.12256200  0.37754204  1
  S  S11  1  0.12256201  0.37754200  0.75003901  1
  S  S12  1  0.62245800  0.24996100  0.87743803  1
  S  S13  1  0.24996103  0.87743799  0.62245805  1
  S  S14  1  0.87743801  0.62245799  0.24996108  1
