# generated using pymatgen
data_Ce3AlSi7
_symmetry_space_group_name_H-M   'P 1'
_cell_length_a   4.32723188
_cell_length_b   6.74497795
_cell_length_c   8.21180725
_cell_angle_alpha   114.24804688
_cell_angle_beta   105.27642822
_cell_angle_gamma   90.00000000
_symmetry_Int_Tables_number   1
_chemical_formula_structural   Ce3AlSi7
_chemical_formula_sum   'Ce3 Al1 Si7'
_cell_volume   209.21024698
_cell_formula_units_Z   1
loop_
 _symmetry_equiv_pos_site_id
 _symmetry_equiv_pos_as_xyz
  1  'x, y, z'
loop_
 _atom_site_type_symbol
 _atom_site_label
 _atom_site_symmetry_multiplicity
 _atom_site_fract_x
 _atom_site_fract_y
 _atom_site_fract_z
 _atom_site_occupancy
  Ce  Ce0  1  0.13228598  0.63228600  0.26457198  1
  Ce  Ce1  1  0.00000000  0.00000000  0.00000000  1
  Ce  Ce2  1  0.86771401  0.36771400  0.73542798  1
  Al  Al3  1  0.33357699  0.64761800  0.66715398  1
  Si  Si4  1  0.66642300  0.35238200  0.33284598  1
  Si  Si5  1  0.66642298  0.98046399  0.33284597  1
  Si  Si6  1  0.33357701  0.01953600  0.66715399  1
  Si  Si7  1  0.49999999  0.68881900  -0.00000002  1
  Si  Si8  1  0.78380899  0.78380900  0.56761797  1
  Si  Si9  1  0.21619100  0.21619100  0.43238199  1
  Si  Si10  1  0.50000000  0.31118100  -0.00000002  1
