# generated using pymatgen
data_Li7Co3O10
_symmetry_space_group_name_H-M   'P 1'
_cell_length_a   4.99458218
_cell_length_b   5.11588812
_cell_length_c   7.56572485
_cell_angle_alpha   106.33161926
_cell_angle_beta   102.92173767
_cell_angle_gamma   102.24177551
_symmetry_Int_Tables_number   1
_chemical_formula_structural   Li7Co3O10
_chemical_formula_sum   'Li7 Co3 O10'
_cell_volume   172.83222740
_cell_formula_units_Z   1
loop_
 _symmetry_equiv_pos_site_id
 _symmetry_equiv_pos_as_xyz
  1  'x, y, z'
loop_
 _atom_site_type_symbol
 _atom_site_label
 _atom_site_symmetry_multiplicity
 _atom_site_fract_x
 _atom_site_fract_y
 _atom_site_fract_z
 _atom_site_occupancy
  Li  Li0  1  0.58707198  0.18884500  0.70640701  1
  Li  Li1  1  0.00000000  0.00000000  0.50000001  1
  Li  Li2  1  0.49999998  0.00000000  -0.00000001  1
  Li  Li3  1  0.20808200  0.39156300  0.90353803  1
  Li  Li4  1  0.68248098  0.38264600  0.38979701  1
  Li  Li5  1  0.31751901  0.61735400  0.61020302  1
  Co  Co6  1  0.79191798  0.60843700  0.09646201  1
  Li  Li7  1  0.41292801  0.81115500  0.29359302  1
  Co  Co8  1  0.09215400  0.25011500  0.21831701  1
  Co  Co9  1  0.90784598  0.74988500  0.78168302  1
  O  O10  1  0.87542697  0.19732700  0.97765301  1
  O  O11  1  0.78468196  0.01401300  0.24552999  1
  O  O12  1  0.31831599  0.18112700  0.41322601  1
  O  O13  1  0.94576097  0.43122600  0.65992301  1
  O  O14  1  0.58688799  0.61120900  0.84193302  1
  O  O15  1  0.41311199  0.38879100  0.15806701  1
  O  O16  1  0.05423902  0.56877400  0.34007702  1
  O  O17  1  0.68168400  0.81887300  0.58677402  1
  O  O18  1  0.21531802  0.98598700  0.75447004  1
  O  O19  1  0.12457302  0.80267300  0.02234702  1
