# generated using pymatgen
data_CuGeS5
_symmetry_space_group_name_H-M   'P 1'
_cell_length_a   5.30874777
_cell_length_b   5.30874777
_cell_length_c   6.23886871
_cell_angle_alpha   115.17962646
_cell_angle_beta   115.17962646
_cell_angle_gamma   90.00000000
_symmetry_Int_Tables_number   1
_chemical_formula_structural   CuGeS5
_chemical_formula_sum   'Cu1 Ge1 S5'
_cell_volume   140.43998323
_cell_formula_units_Z   1
loop_
 _symmetry_equiv_pos_site_id
 _symmetry_equiv_pos_as_xyz
  1  'x, y, z'
loop_
 _atom_site_type_symbol
 _atom_site_label
 _atom_site_symmetry_multiplicity
 _atom_site_fract_x
 _atom_site_fract_y
 _atom_site_fract_z
 _atom_site_occupancy
  Cu  Cu0  1  0.24999996  0.75000000  0.49999995  1
  Ge  Ge1  1  0.75000000  0.25000000  0.49999996  1
  S  S2  1  0.49999998  0.50000000  -0.00000006  1
  S  S3  1  0.87617699  0.36853900  0.24471594  1
  S  S4  1  0.12382299  0.12382300  0.75528401  1
  S  S5  1  0.36853895  0.87617700  0.24471593  1
  S  S6  1  0.63146097  0.63146100  0.75528395  1
