# generated using pymatgen
data_Ca4Al(RuO4)3
_symmetry_space_group_name_H-M   'P 1'
_cell_length_a   5.32010794
_cell_length_b   5.46346903
_cell_length_c   7.75797510
_cell_angle_alpha   89.99774933
_cell_angle_beta   89.99966431
_cell_angle_gamma   89.99904633
_symmetry_Int_Tables_number   1
_chemical_formula_structural   Ca4Al(RuO4)3
_chemical_formula_sum   'Ca4 Al1 Ru3 O12'
_cell_volume   225.49520434
_cell_formula_units_Z   1
loop_
 _symmetry_equiv_pos_site_id
 _symmetry_equiv_pos_as_xyz
  1  'x, y, z'
loop_
 _atom_site_type_symbol
 _atom_site_label
 _atom_site_symmetry_multiplicity
 _atom_site_fract_x
 _atom_site_fract_y
 _atom_site_fract_z
 _atom_site_occupancy
  Ca  Ca0  1  0.00543104  0.95449900  0.24999096  1
  Ca  Ca1  1  0.49457303  0.45450700  0.24998998  1
  Ca  Ca2  1  0.50543503  0.54549600  0.75000797  1
  Ca  Ca3  1  0.99456301  0.04549200  0.75000498  1
  Al  Al4  1  0.50002005  0.99999399  0.49999595  1
  Ru  Ru5  1  0.99998304  0.50001200  0.50000397  1
  Ru  Ru6  1  0.99999604  0.50000900  0.00000397  1
  Ru  Ru7  1  0.49999105  0.99999399  0.00000196  1
  O  O8  1  0.92545604  0.51940000  0.24999197  1
  O  O9  1  0.57455301  0.01940500  0.24999299  1
  O  O10  1  0.07454502  0.48059600  0.75000797  1
  O  O11  1  0.42544805  0.98059699  0.75000695  1
  O  O12  1  0.78424505  0.79949200  0.53754596  1
  O  O13  1  0.71577402  0.29944000  0.96239397  1
  O  O14  1  0.28424404  0.70051300  0.46245397  1
  O  O15  1  0.21577201  0.20056200  0.03759499  1
  O  O16  1  0.21575601  0.20051300  0.46245698  1
  O  O17  1  0.28422404  0.70055600  0.03760097  1
  O  O18  1  0.71576402  0.29948700  0.53754297  1
  O  O19  1  0.78422605  0.79944100  0.96240295  1
