# generated using pymatgen
data_P2O3
_symmetry_space_group_name_H-M   'P 1'
_cell_length_a   2.83485007
_cell_length_b   5.05446005
_cell_length_c   5.05446005
_cell_angle_alpha   116.15006256
_cell_angle_beta   90.00000000
_cell_angle_gamma   90.00000000
_symmetry_Int_Tables_number   1
_chemical_formula_structural   P2O3
_chemical_formula_sum   'P2 O3'
_cell_volume   65.01045407
_cell_formula_units_Z   1
loop_
 _symmetry_equiv_pos_site_id
 _symmetry_equiv_pos_as_xyz
  1  'x, y, z'
loop_
 _atom_site_type_symbol
 _atom_site_label
 _atom_site_symmetry_multiplicity
 _atom_site_fract_x
 _atom_site_fract_y
 _atom_site_fract_z
 _atom_site_occupancy
  P  P0  1  -0.00000000  0.57894997  0.42104995  1
  P  P1  1  0.49999999  0.92549994  0.07449995  1
  O  O2  1  0.49999999  0.77222995  0.71860993  1
  O  O3  1  -0.00000000  0.81387995  0.18611995  1
  O  O4  1  0.49999999  0.28138998  0.22776998  1
