# generated using pymatgen
data_Ca2InGe3
_symmetry_space_group_name_H-M   'P 1'
_cell_length_a   4.57717180
_cell_length_b   4.57717180
_cell_length_c   8.47164631
_cell_angle_alpha   90.00000000
_cell_angle_beta   90.00000000
_cell_angle_gamma   120.00000000
_symmetry_Int_Tables_number   1
_chemical_formula_structural   Ca2InGe3
_chemical_formula_sum   'Ca2 In1 Ge3'
_cell_volume   153.70672705
_cell_formula_units_Z   1
loop_
 _symmetry_equiv_pos_site_id
 _symmetry_equiv_pos_as_xyz
  1  'x, y, z'
loop_
 _atom_site_type_symbol
 _atom_site_label
 _atom_site_symmetry_multiplicity
 _atom_site_fract_x
 _atom_site_fract_y
 _atom_site_fract_z
 _atom_site_occupancy
  Ca  Ca0  1  0.00000000  0.00000000  0.49999998  1
  Ca  Ca1  1  0.00000000  0.00000000  0.00000000  1
  In  In2  1  0.66666669  0.33333333  0.24999999  1
  Ge  Ge3  1  0.33333333  0.66666666  0.74999997  1
  Ge  Ge4  1  0.33333333  0.66666666  0.24999999  1
  Ge  Ge5  1  0.66666669  0.33333333  0.74999997  1
