# generated using pymatgen
data_VCr3O5
_symmetry_space_group_name_H-M   'P 1'
_cell_length_a   4.54333687
_cell_length_b   4.90589809
_cell_length_c   4.90589762
_cell_angle_alpha   120.00000000
_cell_angle_beta   90.00000000
_cell_angle_gamma   90.00000000
_symmetry_Int_Tables_number   1
_chemical_formula_structural   VCr3O5
_chemical_formula_sum   'V1 Cr3 O5'
_cell_volume   94.69838532
_cell_formula_units_Z   1
loop_
 _symmetry_equiv_pos_site_id
 _symmetry_equiv_pos_as_xyz
  1  'x, y, z'
loop_
 _atom_site_type_symbol
 _atom_site_label
 _atom_site_symmetry_multiplicity
 _atom_site_fract_x
 _atom_site_fract_y
 _atom_site_fract_z
 _atom_site_occupancy
  V  V0  1  0.24631901  0.33631499  0.33631500  1
  Cr  Cr1  1  0.75368102  0.33631499  -0.00000001  1
  Cr  Cr2  1  0.75368102  0.00000000  0.33631501  1
  Cr  Cr3  1  0.24631901  0.00000000  0.66368502  1
  O  O4  1  0.24631901  0.66368498  -0.00000002  1
  O  O5  1  0.75368102  0.66368498  0.66368499  1
  O  O6  1  0.00000000  0.00000000  0.00000000  1
  O  O7  1  0.50000001  0.66666664  0.33333332  1
  O  O8  1  0.50000001  0.33333332  0.66666667  1
