# generated using pymatgen
data_Ca7SnGe3
_symmetry_space_group_name_H-M   'P 1'
_cell_length_a   3.95997190
_cell_length_b   9.43835926
_cell_length_c   9.43835926
_cell_angle_alpha   61.58673859
_cell_angle_beta   77.89049530
_cell_angle_gamma   77.89049530
_symmetry_Int_Tables_number   1
_chemical_formula_structural   Ca7SnGe3
_chemical_formula_sum   'Ca7 Sn1 Ge3'
_cell_volume   300.87590118
_cell_formula_units_Z   1
loop_
 _symmetry_equiv_pos_site_id
 _symmetry_equiv_pos_as_xyz
  1  'x, y, z'
loop_
 _atom_site_type_symbol
 _atom_site_label
 _atom_site_symmetry_multiplicity
 _atom_site_fract_x
 _atom_site_fract_y
 _atom_site_fract_z
 _atom_site_occupancy
  Ca  Ca0  1  0.12928600  0.28695799  0.45446999  1
  Ca  Ca1  1  0.87071501  0.54552998  0.71304099  1
  Ca  Ca2  1  0.31606800  0.30701099  0.06085300  1
  Ca  Ca3  1  0.68393199  0.93914696  0.69298900  1
  Ca  Ca4  1  0.35667998  0.91086896  0.37577201  1
  Ca  Ca5  1  0.64332100  0.62422697  0.08913101  1
  Ca  Ca6  1  1.00000003  0.00020000  0.99979996  1
  Sn  Sn7  1  0.50000001  0.26154799  0.73845198  1
  Ge  Ge8  1  -0.00000002  0.66283397  0.33716601  1
  Ge  Ge9  1  0.23772199  0.68854497  0.83601099  1
  Ge  Ge10  1  0.76227802  0.16398899  0.31145499  1
