# generated using pymatgen
data_Nd2Hf2ZrNi13
_symmetry_space_group_name_H-M   'P 1'
_cell_length_a   3.82799506
_cell_length_b   8.98727036
_cell_length_c   8.98727036
_cell_angle_alpha   120.00000000
_cell_angle_beta   90.00000000
_cell_angle_gamma   90.00000000
_symmetry_Int_Tables_number   1
_chemical_formula_structural   Nd2Hf2ZrNi13
_chemical_formula_sum   'Nd2 Hf2 Zr1 Ni13'
_cell_volume   267.76734549
_cell_formula_units_Z   1
loop_
 _symmetry_equiv_pos_site_id
 _symmetry_equiv_pos_as_xyz
  1  'x, y, z'
loop_
 _atom_site_type_symbol
 _atom_site_label
 _atom_site_symmetry_multiplicity
 _atom_site_fract_x
 _atom_site_fract_y
 _atom_site_fract_z
 _atom_site_occupancy
  Nd  Nd0  1  0.49999999  0.33333332  0.66666663  1
  Nd  Nd1  1  0.49999999  0.66666664  0.33333331  1
  Zr  Zr2  1  0.00000000  0.00000000  0.00000000  1
  Hf  Hf3  1  0.49999999  0.31588499  0.99999995  1
  Hf  Hf4  1  0.49999999  0.68411497  0.68411496  1
  Ni  Ni5  1  0.49999999  0.99999996  0.31588498  1
  Ni  Ni6  1  0.49999999  0.68411497  -0.00000001  1
  Ni  Ni7  1  0.49999999  0.31588499  0.31588498  1
  Ni  Ni8  1  0.49999999  0.99999996  0.68411496  1
  Ni  Ni9  1  0.99999998  0.18325399  0.36650798  1
  Ni  Ni10  1  0.99999998  0.18325399  0.81674596  1
  Ni  Ni11  1  0.99999998  0.63349197  0.81674595  1
  Ni  Ni12  1  -0.00000000  0.81674596  0.63349196  1
  Ni  Ni13  1  0.99999998  0.36650798  0.18325399  1
  Ni  Ni14  1  0.99999998  0.81674596  0.18325398  1
  Ni  Ni15  1  -0.00000000  0.49999998  -0.00000000  1
  Ni  Ni16  1  0.99999998  0.49999998  0.49999997  1
  Ni  Ni17  1  -0.00000000  0.99999996  0.49999997  1
