# generated using pymatgen
data_CePd
_symmetry_space_group_name_H-M   'P 1'
_cell_length_a   4.55419302
_cell_length_b   5.59438705
_cell_length_c   7.05735493
_cell_angle_alpha   90.00000000
_cell_angle_beta   90.00000000
_cell_angle_gamma   90.00000000
_symmetry_Int_Tables_number   1
_chemical_formula_structural   CePd
_chemical_formula_sum   'Ce4 Pd4'
_cell_volume   179.80671347
_cell_formula_units_Z   4
loop_
 _symmetry_equiv_pos_site_id
 _symmetry_equiv_pos_as_xyz
  1  'x, y, z'
loop_
 _atom_site_type_symbol
 _atom_site_label
 _atom_site_symmetry_multiplicity
 _atom_site_fract_x
 _atom_site_fract_y
 _atom_site_fract_z
 _atom_site_occupancy
  Ce  Ce0  1  0.25000000  0.64042999  0.18128400  1
  Ce  Ce1  1  0.75000000  0.35957000  0.81871601  1
  Ce  Ce2  1  0.75000000  0.14043000  0.31871600  1
  Ce  Ce3  1  0.25000000  0.85956999  0.68128401  1
  Pd  Pd4  1  0.25000000  0.15264700  0.04290900  1
  Pd  Pd5  1  0.75000000  0.84735299  0.95709101  1
  Pd  Pd6  1  0.75000000  0.65264699  0.45709100  1
  Pd  Pd7  1  0.25000000  0.34735300  0.54290901  1
