# generated using pymatgen
data_CeMgGa4
_symmetry_space_group_name_H-M   'P 1'
_cell_length_a   5.37558222
_cell_length_b   5.43750954
_cell_length_c   5.43750954
_cell_angle_alpha   60.56044388
_cell_angle_beta   60.37603378
_cell_angle_gamma   60.37603378
_symmetry_Int_Tables_number   1
_chemical_formula_structural   CeMgGa4
_chemical_formula_sum   'Ce1 Mg1 Ga4'
_cell_volume   113.49647046
_cell_formula_units_Z   1
loop_
 _symmetry_equiv_pos_site_id
 _symmetry_equiv_pos_as_xyz
  1  'x, y, z'
loop_
 _atom_site_type_symbol
 _atom_site_label
 _atom_site_symmetry_multiplicity
 _atom_site_fract_x
 _atom_site_fract_y
 _atom_site_fract_z
 _atom_site_occupancy
  Ce  Ce0  1  0.87333196  0.37666800  0.87666800  1
  Mg  Mg1  1  0.12666800  0.62333199  0.12333200  1
  Ga  Ga2  1  0.49999998  0.00000000  0.00000000  1
  Ga  Ga3  1  0.49999998  0.50000000  0.50000000  1
  Ga  Ga4  1  0.49999998  0.99999999  0.50000000  1
  Ga  Ga5  1  0.99999996  0.00000000  0.50000000  1
