# generated using pymatgen
data_Y3LuTl3Sn5Ge2
_symmetry_space_group_name_H-M   'P 1'
_cell_length_a   7.98814583
_cell_length_b   7.98814583
_cell_length_c   9.72669029
_cell_angle_alpha   90.00000000
_cell_angle_beta   90.00000000
_cell_angle_gamma   120.00000000
_symmetry_Int_Tables_number   1
_chemical_formula_structural   Y3LuTl3Sn5Ge2
_chemical_formula_sum   'Y3 Lu1 Tl3 Sn5 Ge2'
_cell_volume   537.51141112
_cell_formula_units_Z   1
loop_
 _symmetry_equiv_pos_site_id
 _symmetry_equiv_pos_as_xyz
  1  'x, y, z'
loop_
 _atom_site_type_symbol
 _atom_site_label
 _atom_site_symmetry_multiplicity
 _atom_site_fract_x
 _atom_site_fract_y
 _atom_site_fract_z
 _atom_site_occupancy
  Tl  Tl0  1  0.00000000  0.00000000  0.00000000  1
  Y  Y1  1  0.33333332  0.66666665  0.32762899  1
  Y  Y2  1  0.66666667  0.33333332  0.67237098  1
  Y  Y3  1  0.33333332  0.66666665  0.82455598  1
  Lu  Lu4  1  0.66666667  0.33333332  0.17544399  1
  Ge  Ge5  1  0.53204600  0.53204598  0.99999997  1
  Tl  Tl6  1  0.46795398  0.99999997  -0.00000000  1
  Ge  Ge7  1  -0.00000001  0.46795399  -0.00000000  1
  Tl  Tl8  1  0.84974400  0.64574398  0.32312299  1
  Sn  Sn9  1  0.35425600  0.20399999  0.32312299  1
  Sn  Sn10  1  0.79600001  0.15025600  0.32312299  1
  Sn  Sn11  1  0.15025598  0.79599997  0.67687698  1
  Sn  Sn12  1  0.20399999  0.35425599  0.67687698  1
  Sn  Sn13  1  0.64574399  0.84974397  0.67687698  1
