# generated using pymatgen
data_Ce4Sn7Ge
_symmetry_space_group_name_H-M   'P 1'
_cell_length_a   4.23862123
_cell_length_b   6.98826885
_cell_length_c   10.37395191
_cell_angle_alpha   90.00000000
_cell_angle_beta   96.10042572
_cell_angle_gamma   90.00000000
_symmetry_Int_Tables_number   1
_chemical_formula_structural   Ce4Sn7Ge
_chemical_formula_sum   'Ce4 Sn7 Ge1'
_cell_volume   305.54284100
_cell_formula_units_Z   1
loop_
 _symmetry_equiv_pos_site_id
 _symmetry_equiv_pos_as_xyz
  1  'x, y, z'
loop_
 _atom_site_type_symbol
 _atom_site_label
 _atom_site_symmetry_multiplicity
 _atom_site_fract_x
 _atom_site_fract_y
 _atom_site_fract_z
 _atom_site_occupancy
  Ce  Ce0  1  0.77251396  0.68532801  0.86106802  1
  Ce  Ce1  1  0.72748596  0.18532800  0.63893201  1
  Ce  Ce2  1  0.22748599  0.31467201  0.13893200  1
  Ce  Ce3  1  0.27251398  0.81467202  0.36106801  1
  Ge  Ge4  1  0.29211598  0.35257901  0.82897901  1
  Sn  Sn5  1  0.20788399  0.85257902  0.67102101  1
  Sn  Sn6  1  0.70788396  0.64742101  0.17102100  1
  Sn  Sn7  1  0.79211596  0.14742100  0.32897901  1
  Sn  Sn8  1  0.82775995  0.62301501  0.55034101  1
  Sn  Sn9  1  0.67223996  0.12301500  0.94965902  1
  Sn  Sn10  1  0.17223999  0.37698501  0.44965901  1
  Sn  Sn11  1  0.32775998  0.87698502  0.05034100  1
