# generated using pymatgen
data_Ce2AlSi2
_symmetry_space_group_name_H-M   'P 1'
_cell_length_a   3.90290689
_cell_length_b   7.54792786
_cell_length_c   7.54792786
_cell_angle_alpha   90.00000000
_cell_angle_beta   90.00000000
_cell_angle_gamma   90.00000000
_symmetry_Int_Tables_number   1
_chemical_formula_structural   Ce2AlSi2
_chemical_formula_sum   'Ce4 Al2 Si4'
_cell_volume   222.35334753
_cell_formula_units_Z   2
loop_
 _symmetry_equiv_pos_site_id
 _symmetry_equiv_pos_as_xyz
  1  'x, y, z'
loop_
 _atom_site_type_symbol
 _atom_site_label
 _atom_site_symmetry_multiplicity
 _atom_site_fract_x
 _atom_site_fract_y
 _atom_site_fract_z
 _atom_site_occupancy
  Ce  Ce0  1  0.50000001  0.32495701  0.82495702  1
  Ce  Ce1  1  0.50000001  0.82495702  0.67504301  1
  Ce  Ce2  1  0.50000001  0.17504300  0.32495701  1
  Ce  Ce3  1  0.50000001  0.67504301  0.17504300  1
  Al  Al4  1  0.00000000  0.50000001  0.50000001  1
  Al  Al5  1  0.00000000  0.00000000  0.00000000  1
  Si  Si6  1  0.00000000  0.11873700  0.61873701  1
  Si  Si7  1  0.00000000  0.61873701  0.88126302  1
  Si  Si8  1  0.00000000  0.88126302  0.38126301  1
  Si  Si9  1  0.00000000  0.38126301  0.11873700  1
