# generated using pymatgen
data_MgGa5
_symmetry_space_group_name_H-M   'P 1'
_cell_length_a   3.10014391
_cell_length_b   4.97769499
_cell_length_c   7.78330946
_cell_angle_alpha   90.00000000
_cell_angle_beta   101.48744965
_cell_angle_gamma   90.00000000
_symmetry_Int_Tables_number   1
_chemical_formula_structural   MgGa5
_chemical_formula_sum   'Mg1 Ga5'
_cell_volume   117.70271593
_cell_formula_units_Z   1
loop_
 _symmetry_equiv_pos_site_id
 _symmetry_equiv_pos_as_xyz
  1  'x, y, z'
loop_
 _atom_site_type_symbol
 _atom_site_label
 _atom_site_symmetry_multiplicity
 _atom_site_fract_x
 _atom_site_fract_y
 _atom_site_fract_z
 _atom_site_occupancy
  Mg  Mg0  1  0.32784001  0.00000000  0.65568000  1
  Ga  Ga1  1  0.11766600  0.50000000  0.23533200  1
  Ga  Ga2  1  0.44398501  0.50000000  0.88797001  1
  Ga  Ga3  1  0.00061300  1.00000000  0.00122600  1
  Ga  Ga4  1  0.66611701  1.00000000  0.33223399  1
  Ga  Ga5  1  0.77711102  0.50000000  0.55422199  1
