# generated using pymatgen
data_Mg2Al9
_symmetry_space_group_name_H-M   'P 1'
_cell_length_a   4.22243786
_cell_length_b   4.22243786
_cell_length_c   10.99187565
_cell_angle_alpha   90.00000000
_cell_angle_beta   90.00000000
_cell_angle_gamma   90.00000000
_symmetry_Int_Tables_number   1
_chemical_formula_structural   Mg2Al9
_chemical_formula_sum   'Mg2 Al9'
_cell_volume   195.97394725
_cell_formula_units_Z   1
loop_
 _symmetry_equiv_pos_site_id
 _symmetry_equiv_pos_as_xyz
  1  'x, y, z'
loop_
 _atom_site_type_symbol
 _atom_site_label
 _atom_site_symmetry_multiplicity
 _atom_site_fract_x
 _atom_site_fract_y
 _atom_site_fract_z
 _atom_site_occupancy
  Mg  Mg0  1  0.00000000  0.00000000  0.69495202  1
  Mg  Mg1  1  0.00000000  0.00000000  0.30504801  1
  Al  Al2  1  0.50000002  0.00000000  0.50000002  1
  Al  Al3  1  0.00000000  0.50000002  0.50000002  1
  Al  Al4  1  0.50000002  0.50000002  0.69090202  1
  Al  Al5  1  0.50000002  0.50000002  0.30909801  1
  Al  Al6  1  0.50000002  0.00000000  0.88343903  1
  Al  Al7  1  0.00000000  0.50000002  0.88343903  1
  Al  Al8  1  0.50000002  0.00000000  0.11656100  1
  Al  Al9  1  0.00000000  0.50000002  0.11656100  1
  Al  Al10  1  0.00000000  0.00000000  0.00000000  1
