# generated using pymatgen
data_CeAlSi4
_symmetry_space_group_name_H-M   'P 1'
_cell_length_a   4.99384785
_cell_length_b   4.99384880
_cell_length_c   8.40286064
_cell_angle_alpha   90.00000000
_cell_angle_beta   90.00000000
_cell_angle_gamma   119.99999237
_symmetry_Int_Tables_number   1
_chemical_formula_structural   CeAlSi4
_chemical_formula_sum   'Ce2 Al2 Si8'
_cell_volume   181.47989578
_cell_formula_units_Z   2
loop_
 _symmetry_equiv_pos_site_id
 _symmetry_equiv_pos_as_xyz
  1  'x, y, z'
loop_
 _atom_site_type_symbol
 _atom_site_label
 _atom_site_symmetry_multiplicity
 _atom_site_fract_x
 _atom_site_fract_y
 _atom_site_fract_z
 _atom_site_occupancy
  Ce  Ce0  1  0.66666667  0.33333331  0.56218002  1
  Ce  Ce1  1  0.33333330  0.66666663  0.43782002  1
  Al  Al2  1  0.33333330  0.66666663  0.06218000  1
  Al  Al3  1  0.66666667  0.33333331  0.93782004  1
  Si  Si4  1  0.17290498  0.34580998  0.75000003  1
  Si  Si5  1  0.17290495  0.82709595  0.75000003  1
  Si  Si6  1  0.65419097  0.82709595  0.75000003  1
  Si  Si7  1  0.82709498  0.65418996  0.25000001  1
  Si  Si8  1  0.82709501  0.17290399  0.25000001  1
  Si  Si9  1  0.34580900  0.17290399  0.25000001  1
  Si  Si10  1  0.00000000  0.00000000  0.50000002  1
  Si  Si11  1  0.00000000  0.00000000  0.00000000  1
