# generated using pymatgen
data_Ba2La4GaSbO10
_symmetry_space_group_name_H-M   'P 1'
_cell_length_a   5.93051100
_cell_length_b   6.77868319
_cell_length_c   6.77868319
_cell_angle_alpha   90.00000000
_cell_angle_beta   90.00000000
_cell_angle_gamma   90.00000000
_symmetry_Int_Tables_number   1
_chemical_formula_structural   Ba2La4GaSbO10
_chemical_formula_sum   'Ba2 La4 Ga1 Sb1 O10'
_cell_volume   272.51021681
_cell_formula_units_Z   1
loop_
 _symmetry_equiv_pos_site_id
 _symmetry_equiv_pos_as_xyz
  1  'x, y, z'
loop_
 _atom_site_type_symbol
 _atom_site_label
 _atom_site_symmetry_multiplicity
 _atom_site_fract_x
 _atom_site_fract_y
 _atom_site_fract_z
 _atom_site_occupancy
  Ba  Ba0  1  0.00000000  0.00000000  0.00000000  1
  Ba  Ba1  1  0.00000000  0.49999999  0.49999999  1
  La  La2  1  0.50000000  0.32453199  0.17546800  1
  La  La3  1  0.50000000  0.67546798  0.82453198  1
  La  La4  1  0.50000000  0.82453198  0.32453199  1
  La  La5  1  0.50000000  0.17546800  0.67546798  1
  Ga  Ga6  1  0.00000000  0.49999999  -0.00000000  1
  Sb  Sb7  1  0.00000000  0.00000000  0.49999999  1
  O  O8  1  0.75022900  0.14008900  0.35991099  1
  O  O9  1  0.24977100  0.64008898  0.14008900  1
  O  O10  1  0.75022900  0.85991098  0.64008898  1
  O  O11  1  0.24977100  0.14008900  0.35991099  1
  O  O12  1  0.50000000  0.49999999  0.49999999  1
  O  O13  1  0.75022900  0.35991099  0.85991098  1
  O  O14  1  0.75022900  0.64008898  0.14008900  1
  O  O15  1  0.24977100  0.85991098  0.64008898  1
  O  O16  1  0.24977100  0.35991099  0.85991098  1
  O  O17  1  0.50000000  0.00000000  -0.00000000  1
