# generated using pymatgen
data_Ba4Sr2NdO7
_symmetry_space_group_name_H-M   'P 1'
_cell_length_a   7.25730324
_cell_length_b   7.79893780
_cell_length_c   7.79893780
_cell_angle_alpha   120.00000000
_cell_angle_beta   90.00000000
_cell_angle_gamma   90.00000000
_symmetry_Int_Tables_number   1
_chemical_formula_structural   Ba4Sr2NdO7
_chemical_formula_sum   'Ba4 Sr2 Nd1 O7'
_cell_volume   382.27580779
_cell_formula_units_Z   1
loop_
 _symmetry_equiv_pos_site_id
 _symmetry_equiv_pos_as_xyz
  1  'x, y, z'
loop_
 _atom_site_type_symbol
 _atom_site_label
 _atom_site_symmetry_multiplicity
 _atom_site_fract_x
 _atom_site_fract_y
 _atom_site_fract_z
 _atom_site_occupancy
  Sr  Sr0  1  0.51478498  0.33333334  0.66666664  1
  Ba  Ba1  1  0.48521498  0.66666667  0.33333330  1
  Ba  Ba2  1  -0.00000000  0.50000001  -0.00000002  1
  Ba  Ba3  1  0.00000000  0.00000000  0.49999999  1
  Ba  Ba4  1  0.99999997  0.50000001  0.49999997  1
  Sr  Sr5  1  0.49999998  0.00000000  -0.00000000  1
  O  O6  1  0.85791397  0.33333334  0.66666664  1
  Nd  Nd7  1  0.14208600  0.66666667  0.33333330  1
  O  O8  1  0.30942099  0.65749101  0.82874596  1
  O  O9  1  0.30942099  0.17125500  0.82874598  1
  O  O10  1  0.69057898  0.34250900  0.17125399  1
  O  O11  1  0.69057898  0.82874501  0.17125397  1
  O  O12  1  0.69057898  0.82874501  0.65748996  1
  O  O13  1  0.30942099  0.17125500  0.34250999  1
