# generated using pymatgen
data_MnTl3Br4
_symmetry_space_group_name_H-M   'P 1'
_cell_length_a   6.98218584
_cell_length_b   7.02264977
_cell_length_c   7.02264977
_cell_angle_alpha   75.69241333
_cell_angle_beta   60.19041824
_cell_angle_gamma   60.19041824
_symmetry_Int_Tables_number   1
_chemical_formula_structural   MnTl3Br4
_chemical_formula_sum   'Mn1 Tl3 Br4'
_cell_volume   259.24771115
_cell_formula_units_Z   1
loop_
 _symmetry_equiv_pos_site_id
 _symmetry_equiv_pos_as_xyz
  1  'x, y, z'
loop_
 _atom_site_type_symbol
 _atom_site_label
 _atom_site_symmetry_multiplicity
 _atom_site_fract_x
 _atom_site_fract_y
 _atom_site_fract_z
 _atom_site_occupancy
  Tl  Tl0  1  0.50000001  0.00000000  -0.00000001  1
  Tl  Tl1  1  -0.00000002  0.49999999  0.50000002  1
  Tl  Tl2  1  0.49999999  0.49999999  0.50000001  1
  Mn  Mn3  1  0.00000000  0.00000000  0.00000000  1
  Br  Br4  1  0.59325000  0.33989900  0.99999999  1
  Br  Br5  1  0.93315000  0.66010099  1.00000001  1
  Br  Br6  1  0.40674901  0.00000000  0.66010198  1
  Br  Br7  1  0.06685100  0.00000000  0.33989799  1
