# generated using pymatgen
data_Na2(CuAg)3
_symmetry_space_group_name_H-M   'P 1'
_cell_length_a   6.63146544
_cell_length_b   6.63146544
_cell_length_c   6.63146544
_cell_angle_alpha   106.08953857
_cell_angle_beta   106.08953857
_cell_angle_gamma   116.46950531
_symmetry_Int_Tables_number   1
_chemical_formula_structural   Na2(CuAg)3
_chemical_formula_sum   'Na2 Cu3 Ag3'
_cell_volume   221.95361865
_cell_formula_units_Z   1
loop_
 _symmetry_equiv_pos_site_id
 _symmetry_equiv_pos_as_xyz
  1  'x, y, z'
loop_
 _atom_site_type_symbol
 _atom_site_label
 _atom_site_symmetry_multiplicity
 _atom_site_fract_x
 _atom_site_fract_y
 _atom_site_fract_z
 _atom_site_occupancy
  Na  Na0  1  0.24999998  0.24999999  0.99999998  1
  Na  Na1  1  0.74999993  0.74999996  -0.00000011  1
  Cu  Cu2  1  0.74999998  0.24999999  0.49999994  1
  Cu  Cu3  1  0.24999993  0.74999996  0.49999992  1
  Cu  Cu4  1  0.32924999  0.17075099  0.49999997  1
  Ag  Ag5  1  0.67074993  0.82924896  0.49999989  1
  Ag  Ag6  1  0.17074994  0.67074997  0.84149994  1
  Ag  Ag7  1  0.82924997  0.32924998  0.15849992  1
