# generated using pymatgen
data_CuAgS2O
_symmetry_space_group_name_H-M   'P 1'
_cell_length_a   4.03123379
_cell_length_b   4.03123379
_cell_length_c   7.53784227
_cell_angle_alpha   105.50959778
_cell_angle_beta   105.50959778
_cell_angle_gamma   90.00000000
_symmetry_Int_Tables_number   1
_chemical_formula_structural   CuAgS2O
_chemical_formula_sum   'Cu1 Ag1 S2 O1'
_cell_volume   113.39974683
_cell_formula_units_Z   1
loop_
 _symmetry_equiv_pos_site_id
 _symmetry_equiv_pos_as_xyz
  1  'x, y, z'
loop_
 _atom_site_type_symbol
 _atom_site_label
 _atom_site_symmetry_multiplicity
 _atom_site_fract_x
 _atom_site_fract_y
 _atom_site_fract_z
 _atom_site_occupancy
  Cu  Cu0  1  0.66299907  0.66299905  0.32599805  1
  Ag  Ag1  1  0.33700104  0.33700102  0.67400203  1
  S  S2  1  0.00000000  0.00000000  0.00000000  1
  S  S3  1  0.75000006  0.25000002  0.50000004  1
  O  O4  1  0.25000005  0.75000005  0.50000004  1
