# generated using pymatgen
data_CeSn
_symmetry_space_group_name_H-M   'P 1'
_cell_length_a   4.90802383
_cell_length_b   4.96219397
_cell_length_c   9.69044590
_cell_angle_alpha   90.00000000
_cell_angle_beta   90.00000000
_cell_angle_gamma   90.00000000
_symmetry_Int_Tables_number   1
_chemical_formula_structural   CeSn
_chemical_formula_sum   'Ce4 Sn4'
_cell_volume   236.00660671
_cell_formula_units_Z   4
loop_
 _symmetry_equiv_pos_site_id
 _symmetry_equiv_pos_as_xyz
  1  'x, y, z'
loop_
 _atom_site_type_symbol
 _atom_site_label
 _atom_site_symmetry_multiplicity
 _atom_site_fract_x
 _atom_site_fract_y
 _atom_site_fract_z
 _atom_site_occupancy
  Ce  Ce0  1  0.00000000  0.00000000  0.24514000  1
  Ce  Ce1  1  0.00000000  0.00000000  0.75486001  1
  Ce  Ce2  1  0.00000000  0.50000000  0.00000000  1
  Ce  Ce3  1  0.50000002  0.00000000  0.50000001  1
  Sn  Sn4  1  0.50000002  0.00000000  0.00000000  1
  Sn  Sn5  1  0.50000002  0.50000000  0.24783200  1
  Sn  Sn6  1  0.50000002  0.50000000  0.75216801  1
  Sn  Sn7  1  0.00000000  0.50000000  0.50000001  1
