# generated using pymatgen
data_LaCe3Pd10
_symmetry_space_group_name_H-M   'P 1'
_cell_length_a   4.51319599
_cell_length_b   8.54153633
_cell_length_c   8.54153633
_cell_angle_alpha   90.00000000
_cell_angle_beta   90.00000000
_cell_angle_gamma   90.00000000
_symmetry_Int_Tables_number   1
_chemical_formula_structural   LaCe3Pd10
_chemical_formula_sum   'La1 Ce3 Pd10'
_cell_volume   329.27304411
_cell_formula_units_Z   1
loop_
 _symmetry_equiv_pos_site_id
 _symmetry_equiv_pos_as_xyz
  1  'x, y, z'
loop_
 _atom_site_type_symbol
 _atom_site_label
 _atom_site_symmetry_multiplicity
 _atom_site_fract_x
 _atom_site_fract_y
 _atom_site_fract_z
 _atom_site_occupancy
  Ce  Ce0  1  0.50000000  0.49999998  0.49999998  1
  La  La1  1  0.00000000  0.00000000  0.00000000  1
  Ce  Ce2  1  0.50000000  0.34344599  0.08943000  1
  Ce  Ce3  1  0.50000000  0.65655397  0.91056996  1
  Pd  Pd4  1  0.00000000  0.84344597  0.41056998  1
  Pd  Pd5  1  0.00000000  0.15655399  0.58942998  1
  Pd  Pd6  1  0.50000000  0.08943000  0.34344599  1
  Pd  Pd7  1  0.50000000  0.91056996  0.65655397  1
  Pd  Pd8  1  0.00000000  0.41056998  0.84344597  1
  Pd  Pd9  1  0.00000000  0.58942998  0.15655399  1
  Pd  Pd10  1  0.50000000  0.77869197  0.22130799  1
  Pd  Pd11  1  0.50000000  0.22130799  0.77869197  1
  Pd  Pd12  1  1.00000000  0.27869199  0.27869199  1
  Pd  Pd13  1  0.00000000  0.72130797  0.72130797  1
