# generated using pymatgen
data_NdHf4ZrNi13
_symmetry_space_group_name_H-M   'P 1'
_cell_length_a   6.42534113
_cell_length_b   6.42534113
_cell_length_c   6.42534161
_cell_angle_alpha   83.21544647
_cell_angle_beta   83.21544647
_cell_angle_gamma   83.21544647
_symmetry_Int_Tables_number   1
_chemical_formula_structural   NdHf4ZrNi13
_chemical_formula_sum   'Nd1 Hf4 Zr1 Ni13'
_cell_volume   260.10409780
_cell_formula_units_Z   1
loop_
 _symmetry_equiv_pos_site_id
 _symmetry_equiv_pos_as_xyz
  1  'x, y, z'
loop_
 _atom_site_type_symbol
 _atom_site_label
 _atom_site_symmetry_multiplicity
 _atom_site_fract_x
 _atom_site_fract_y
 _atom_site_fract_z
 _atom_site_occupancy
  Nd  Nd0  1  0.65932504  0.65932501  0.65932510  1
  Zr  Zr1  1  0.34067502  0.34067500  0.34067505  1
  Hf  Hf2  1  0.34365902  0.34365900  0.84511606  1
  Hf  Hf3  1  0.29335704  0.70664301  0.00000006  1
  Hf  Hf4  1  0.70664303  0.29335700  0.00000006  1
  Hf  Hf5  1  0.15488403  0.65634101  0.65634106  1
  Ni  Ni6  1  0.90308706  0.90308701  0.90308713  1
  Ni  Ni7  1  0.65634104  0.65634101  0.15488408  1
  Ni  Ni8  1  0.84511603  0.34365900  0.34365908  1
  Ni  Ni9  1  0.00000000  0.00000000  0.50000001  1
  Ni  Ni10  1  0.34365905  0.84511601  0.34365908  1
  Ni  Ni11  1  0.00000001  0.29335700  0.70664303  1
  Ni  Ni12  1  0.00000003  0.70664301  0.29335705  1
  Ni  Ni13  1  0.09691301  0.09691300  0.09691301  1
  Ni  Ni14  1  0.65634102  0.15488400  0.65634107  1
  Ni  Ni15  1  0.50000001  0.00000000  0.00000003  1
  Ni  Ni16  1  0.29335701  0.00000000  0.70664304  1
  Ni  Ni17  1  0.00000002  0.50000001  0.00000003  1
  Ni  Ni18  1  0.70664301  0.00000000  0.29335705  1
