# generated using pymatgen
data_DyLu(InSn2)2
_symmetry_space_group_name_H-M   'P 1'
_cell_length_a   5.99448204
_cell_length_b   6.36661386
_cell_length_c   6.36661339
_cell_angle_alpha   120.00000000
_cell_angle_beta   90.00000000
_cell_angle_gamma   90.00000000
_symmetry_Int_Tables_number   1
_chemical_formula_structural   DyLu(InSn2)2
_chemical_formula_sum   'Dy1 Lu1 In2 Sn4'
_cell_volume   210.42594390
_cell_formula_units_Z   1
loop_
 _symmetry_equiv_pos_site_id
 _symmetry_equiv_pos_as_xyz
  1  'x, y, z'
loop_
 _atom_site_type_symbol
 _atom_site_label
 _atom_site_symmetry_multiplicity
 _atom_site_fract_x
 _atom_site_fract_y
 _atom_site_fract_z
 _atom_site_occupancy
  Dy  Dy0  1  0.74999999  0.33333333  0.66666667  1
  Lu  Lu1  1  0.25000000  0.66666667  0.33333332  1
  In  In2  1  0.25000000  0.17132200  0.34264400  1
  In  In3  1  0.25000000  0.65735600  0.82867800  1
  Sn  Sn4  1  0.25000000  0.17132200  0.82867802  1
  Sn  Sn5  1  0.74999999  0.82867800  0.65735599  1
  Sn  Sn6  1  0.74999999  0.34264400  0.17132199  1
  Sn  Sn7  1  0.74999999  0.82867800  0.17132197  1
