# generated using pymatgen
data_DyY2(AlGe)3
_symmetry_space_group_name_H-M   'P 1'
_cell_length_a   3.93300200
_cell_length_b   7.21537781
_cell_length_c   7.21537733
_cell_angle_alpha   120.00000000
_cell_angle_beta   90.00000000
_cell_angle_gamma   90.00000000
_symmetry_Int_Tables_number   1
_chemical_formula_structural   DyY2(AlGe)3
_chemical_formula_sum   'Y2 Dy1 Al3 Ge3'
_cell_volume   177.32620606
_cell_formula_units_Z   1
loop_
 _symmetry_equiv_pos_site_id
 _symmetry_equiv_pos_as_xyz
  1  'x, y, z'
loop_
 _atom_site_type_symbol
 _atom_site_label
 _atom_site_symmetry_multiplicity
 _atom_site_fract_x
 _atom_site_fract_y
 _atom_site_fract_z
 _atom_site_occupancy
  Y  Y0  1  0.50000000  0.58224800  0.58224798  1
  Y  Y1  1  0.50000000  0.00000000  0.41775201  1
  Dy  Dy2  1  0.50000000  0.41775200  -0.00000002  1
  Al  Al3  1  -0.00000000  0.24051400  0.24051399  1
  Al  Al4  1  -0.00000000  0.00000000  0.75948601  1
  Al  Al5  1  1.00000000  0.75948600  0.99999998  1
  Ge  Ge6  1  -0.00000000  0.66666667  0.33333330  1
  Ge  Ge7  1  -0.00000000  0.33333333  0.66666666  1
  Ge  Ge8  1  0.50000000  0.00000000  -0.00000000  1
