# generated using pymatgen
data_Ti2O3
_symmetry_space_group_name_H-M   'P 1'
_cell_length_a   5.33228064
_cell_length_b   5.33228064
_cell_length_c   5.60916281
_cell_angle_alpha   61.61988068
_cell_angle_beta   61.61988068
_cell_angle_gamma   59.99999619
_symmetry_Int_Tables_number   1
_chemical_formula_structural   Ti2O3
_chemical_formula_sum   'Ti4 O6'
_cell_volume   115.45678534
_cell_formula_units_Z   2
loop_
 _symmetry_equiv_pos_site_id
 _symmetry_equiv_pos_as_xyz
  1  'x, y, z'
loop_
 _atom_site_type_symbol
 _atom_site_label
 _atom_site_symmetry_multiplicity
 _atom_site_fract_x
 _atom_site_fract_y
 _atom_site_fract_z
 _atom_site_occupancy
  Ti  Ti0  1  0.78122204  0.78122197  0.65633391  1
  Ti  Ti1  1  0.50467402  0.50467398  0.48597794  1
  Ti  Ti2  1  0.99607904  0.99607896  0.01176291  1
  Ti  Ti3  1  0.28058501  0.28058499  0.15824497  1
  O  O4  1  0.05188204  0.65826797  0.86476594  1
  O  O5  1  0.42508400  0.05188200  0.86476595  1
  O  O6  1  0.65826801  0.42508398  0.86476593  1
  O  O7  1  0.92068999  0.15004099  0.36899395  1
  O  O8  1  0.56027505  0.92068996  0.36899392  1
  O  O9  1  0.15004103  0.56027498  0.36899395  1
