# generated using pymatgen
data_CeInPd3
_symmetry_space_group_name_H-M   'P 1'
_cell_length_a   4.55354786
_cell_length_b   4.55354786
_cell_length_c   10.71801567
_cell_angle_alpha   90.00000000
_cell_angle_beta   90.00000000
_cell_angle_gamma   90.00000000
_symmetry_Int_Tables_number   1
_chemical_formula_structural   CeInPd3
_chemical_formula_sum   'Ce2 In2 Pd6'
_cell_volume   222.23589103
_cell_formula_units_Z   2
loop_
 _symmetry_equiv_pos_site_id
 _symmetry_equiv_pos_as_xyz
  1  'x, y, z'
loop_
 _atom_site_type_symbol
 _atom_site_label
 _atom_site_symmetry_multiplicity
 _atom_site_fract_x
 _atom_site_fract_y
 _atom_site_fract_z
 _atom_site_occupancy
  Ce  Ce0  1  0.00000000  0.50000002  0.75067102  1
  Ce  Ce1  1  0.50000002  0.00000000  0.24932901  1
  In  In2  1  0.00000000  0.50000002  0.12597000  1
  In  In3  1  0.00000000  0.00000000  0.50000002  1
  Pd  Pd4  1  0.50000002  0.00000000  0.87403003  1
  Pd  Pd5  1  0.50000002  0.50000002  0.50000002  1
  Pd  Pd6  1  0.50000002  0.00000000  0.63089602  1
  Pd  Pd7  1  0.50000002  0.50000002  -0.00000000  1
  Pd  Pd8  1  0.00000000  0.00000000  0.00000000  1
  Pd  Pd9  1  0.00000000  0.50000002  0.36910401  1
