# generated using pymatgen
data_Fe2Mo
_symmetry_space_group_name_H-M   'P 1'
_cell_length_a   3.08293200
_cell_length_b   3.08293200
_cell_length_c   4.35295630
_cell_angle_alpha   110.73947906
_cell_angle_beta   110.73947906
_cell_angle_gamma   90.00000000
_symmetry_Int_Tables_number   1
_chemical_formula_structural   Fe2Mo
_chemical_formula_sum   'Fe2 Mo1'
_cell_volume   35.81053392
_cell_formula_units_Z   1
loop_
 _symmetry_equiv_pos_site_id
 _symmetry_equiv_pos_as_xyz
  1  'x, y, z'
loop_
 _atom_site_type_symbol
 _atom_site_label
 _atom_site_symmetry_multiplicity
 _atom_site_fract_x
 _atom_site_fract_y
 _atom_site_fract_z
 _atom_site_occupancy
  Fe  Fe0  1  0.00000000  0.00000000  0.00000000  1
  Fe  Fe1  1  0.66296498  0.66296499  0.32592996  1
  Mo  Mo2  1  0.33703499  0.33703500  0.67406997  1
