# generated using pymatgen
data_U3Tc4C
_symmetry_space_group_name_H-M   'P 1'
_cell_length_a   4.37513018
_cell_length_b   4.37513018
_cell_length_c   7.81325483
_cell_angle_alpha   90.00000000
_cell_angle_beta   90.00000000
_cell_angle_gamma   120.00000000
_symmetry_Int_Tables_number   1
_chemical_formula_structural   U3Tc4C
_chemical_formula_sum   'U3 Tc4 C1'
_cell_volume   129.52230955
_cell_formula_units_Z   1
loop_
 _symmetry_equiv_pos_site_id
 _symmetry_equiv_pos_as_xyz
  1  'x, y, z'
loop_
 _atom_site_type_symbol
 _atom_site_label
 _atom_site_symmetry_multiplicity
 _atom_site_fract_x
 _atom_site_fract_y
 _atom_site_fract_z
 _atom_site_occupancy
  U  U0  1  0.00000000  0.00000000  0.75000002  1
  U  U1  1  0.00000000  0.00000000  0.25000001  1
  U  U2  1  0.66666665  0.33333334  0.41520501  1
  Tc  Tc3  1  0.33333334  0.66666669  0.91520502  1
  Tc  Tc4  1  0.33333334  0.66666669  0.58479501  1
  Tc  Tc5  1  0.66666665  0.33333334  0.08479500  1
  C  C6  1  0.66666665  0.33333334  0.75000002  1
  Tc  Tc7  1  0.33333334  0.66666669  0.25000001  1
