# generated using pymatgen
data_BaAlN2Cl
_symmetry_space_group_name_H-M   'P 1'
_cell_length_a   3.93429589
_cell_length_b   3.93429589
_cell_length_c   6.85211897
_cell_angle_alpha   106.68358612
_cell_angle_beta   106.68358612
_cell_angle_gamma   90.00000000
_symmetry_Int_Tables_number   1
_chemical_formula_structural   BaAlN2Cl
_chemical_formula_sum   'Ba1 Al1 N2 Cl1'
_cell_volume   96.92695940
_cell_formula_units_Z   1
loop_
 _symmetry_equiv_pos_site_id
 _symmetry_equiv_pos_as_xyz
  1  'x, y, z'
loop_
 _atom_site_type_symbol
 _atom_site_label
 _atom_site_symmetry_multiplicity
 _atom_site_fract_x
 _atom_site_fract_y
 _atom_site_fract_z
 _atom_site_occupancy
  Ba  Ba0  1  0.66266904  0.66266903  0.32533804  1
  Al  Al1  1  0.33733102  0.33733101  0.67466203  1
  Cl  Cl2  1  0.00000000  0.00000000  0.00000000  1
  N  N3  1  0.75000003  0.25000001  0.50000003  1
  N  N4  1  0.25000003  0.75000003  0.50000003  1
