# generated using pymatgen
data_CeSiGe3
_symmetry_space_group_name_H-M   'P 1'
_cell_length_a   4.35853386
_cell_length_b   4.35853386
_cell_length_c   5.99160337
_cell_angle_alpha   111.32884216
_cell_angle_beta   111.32884216
_cell_angle_gamma   90.00000000
_symmetry_Int_Tables_number   1
_chemical_formula_structural   CeSiGe3
_chemical_formula_sum   'Ce1 Si1 Ge3'
_cell_volume   97.60908016
_cell_formula_units_Z   1
loop_
 _symmetry_equiv_pos_site_id
 _symmetry_equiv_pos_as_xyz
  1  'x, y, z'
loop_
 _atom_site_type_symbol
 _atom_site_label
 _atom_site_symmetry_multiplicity
 _atom_site_fract_x
 _atom_site_fract_y
 _atom_site_fract_z
 _atom_site_occupancy
  Ce  Ce0  1  0.00000000  0.00000000  0.00000000  1
  Ge  Ge1  1  0.62095005  0.62095003  0.24190005  1
  Si  Si2  1  0.37905003  0.37905002  0.75810005  1
  Ge  Ge3  1  0.75000004  0.25000001  0.50000004  1
  Ge  Ge4  1  0.25000003  0.75000004  0.50000005  1
