# generated using pymatgen
data_Mo2WS3
_symmetry_space_group_name_H-M   'P 1'
_cell_length_a   3.46778798
_cell_length_b   5.99820805
_cell_length_c   6.43489170
_cell_angle_alpha   89.78215790
_cell_angle_beta   90.00000000
_cell_angle_gamma   90.00000000
_symmetry_Int_Tables_number   1
_chemical_formula_structural   Mo2WS3
_chemical_formula_sum   'Mo2 W1 S3'
_cell_volume   133.84808599
_cell_formula_units_Z   1
loop_
 _symmetry_equiv_pos_site_id
 _symmetry_equiv_pos_as_xyz
  1  'x, y, z'
loop_
 _atom_site_type_symbol
 _atom_site_label
 _atom_site_symmetry_multiplicity
 _atom_site_fract_x
 _atom_site_fract_y
 _atom_site_fract_z
 _atom_site_occupancy
  W  W0  1  0.00000000  0.00000000  0.00000000  1
  Mo  Mo1  1  0.50000000  0.50000000  0.00000001  1
  S  S2  1  0.00000000  0.66250099  0.75867400  1
  Mo  Mo3  1  0.50000000  0.17055300  0.75490998  1
  S  S4  1  0.50000000  0.82944699  0.24509002  1
  S  S5  1  0.00000000  0.33749900  0.24132600  1
