# generated using pymatgen
data_H2
_symmetry_space_group_name_H-M   'P 1'
_cell_length_a   6.30166483
_cell_length_b   6.36808872
_cell_length_c   6.36808872
_cell_angle_alpha   87.77381897
_cell_angle_beta   74.44579315
_cell_angle_gamma   74.44579315
_symmetry_Int_Tables_number   1
_chemical_formula_structural   H2
_chemical_formula_sum   H16
_cell_volume   237.02301742
_cell_formula_units_Z   8
loop_
 _symmetry_equiv_pos_site_id
 _symmetry_equiv_pos_as_xyz
  1  'x, y, z'
loop_
 _atom_site_type_symbol
 _atom_site_label
 _atom_site_symmetry_multiplicity
 _atom_site_fract_x
 _atom_site_fract_y
 _atom_site_fract_z
 _atom_site_occupancy
  H  H0  1  0.49999999  0.05337200  0.94662802  1
  H  H1  1  0.00000003  0.39035699  0.60964297  1
  H  H2  1  0.10481607  0.85403798  0.50913594  1
  H  H3  1  0.89518401  0.49086399  0.14596202  1
  H  H4  1  0.50000002  0.48715199  0.51284799  1
  H  H5  1  0.00000007  0.80260998  0.19738994  1
  H  H6  1  0.13959107  0.86160498  0.26109194  1
  H  H7  1  0.86040903  0.73890798  0.13839499  1
  H  H8  1  0.65984601  0.44664199  0.65851500  1
  H  H9  1  0.34015402  0.34148499  0.55335799  1
  H  H10  1  0.05007003  0.37991199  0.28876397  1
  H  H11  1  0.94993002  0.71123598  0.62008800  1
  H  H12  1  0.96502399  0.37383399  0.92593103  1
  H  H13  1  0.03497601  0.07406900  0.62616599  1
  H  H14  1  0.63901601  0.45527799  0.26065100  1
  H  H15  1  0.36098405  0.73934898  0.54472196  1
