# generated using pymatgen
data_Na3TeO4
_symmetry_space_group_name_H-M   'P 1'
_cell_length_a   3.26224208
_cell_length_b   3.26224160
_cell_length_c   14.42790985
_cell_angle_alpha   90.00000000
_cell_angle_beta   90.00000000
_cell_angle_gamma   120.00000763
_symmetry_Int_Tables_number   1
_chemical_formula_structural   Na3TeO4
_chemical_formula_sum   'Na3 Te1 O4'
_cell_volume   132.97387522
_cell_formula_units_Z   1
loop_
 _symmetry_equiv_pos_site_id
 _symmetry_equiv_pos_as_xyz
  1  'x, y, z'
loop_
 _atom_site_type_symbol
 _atom_site_label
 _atom_site_symmetry_multiplicity
 _atom_site_fract_x
 _atom_site_fract_y
 _atom_site_fract_z
 _atom_site_occupancy
  Na  Na0  1  0.66666667  0.33333335  0.91092301  1
  Na  Na1  1  0.33333337  0.66666669  0.41092300  1
  Na  Na2  1  0.33333337  0.66666669  0.08907700  1
  Te  Te3  1  0.66666667  0.33333335  0.58907701  1
  O  O4  1  0.66666667  0.33333335  0.25000000  1
  O  O5  1  0.33333337  0.66666669  0.75000001  1
  O  O6  1  0.00000000  0.00000000  0.00000000  1
  O  O7  1  0.00000000  0.00000000  0.50000001  1
