# generated using pymatgen
data_CaNdS2
_symmetry_space_group_name_H-M   'P 1'
_cell_length_a   4.33395815
_cell_length_b   7.50802612
_cell_length_c   7.51131439
_cell_angle_alpha   99.61479187
_cell_angle_beta   90.00000000
_cell_angle_gamma   106.77545166
_symmetry_Int_Tables_number   1
_chemical_formula_structural   CaNdS2
_chemical_formula_sum   'Ca2 Nd2 S4'
_cell_volume   230.42449464
_cell_formula_units_Z   2
loop_
 _symmetry_equiv_pos_site_id
 _symmetry_equiv_pos_as_xyz
  1  'x, y, z'
loop_
 _atom_site_type_symbol
 _atom_site_label
 _atom_site_symmetry_multiplicity
 _atom_site_fract_x
 _atom_site_fract_y
 _atom_site_fract_z
 _atom_site_occupancy
  Nd  Nd0  1  0.37395192  0.74790401  0.11950898  1
  Nd  Nd1  1  0.62604795  0.25209600  0.88049101  1
  Ca  Ca2  1  0.87164390  0.74328801  0.62906799  1
  Ca  Ca3  1  0.12835597  0.25671200  0.37093200  1
  S  S4  1  0.49999989  1.00000001  0.49999998  1
  S  S5  1  0.75053293  0.50106600  0.24950899  1
  S  S6  1  0.00000000  0.00000000  0.00000000  1
  S  S7  1  0.24946694  0.49893400  0.75049100  1
