# generated using pymatgen
data_Nd4(ZrSn3)3
_symmetry_space_group_name_H-M   'P 1'
_cell_length_a   6.38759613
_cell_length_b   8.45936584
_cell_length_c   8.45936489
_cell_angle_alpha   120.00000000
_cell_angle_beta   90.00000000
_cell_angle_gamma   90.00000000
_symmetry_Int_Tables_number   1
_chemical_formula_structural   Nd4(ZrSn3)3
_chemical_formula_sum   'Nd4 Zr3 Sn9'
_cell_volume   395.86184706
_cell_formula_units_Z   1
loop_
 _symmetry_equiv_pos_site_id
 _symmetry_equiv_pos_as_xyz
  1  'x, y, z'
loop_
 _atom_site_type_symbol
 _atom_site_label
 _atom_site_symmetry_multiplicity
 _atom_site_fract_x
 _atom_site_fract_y
 _atom_site_fract_z
 _atom_site_occupancy
  Nd  Nd0  1  0.24999999  0.99999999  0.75663297  1
  Nd  Nd1  1  0.74999998  0.99999999  0.24336695  1
  Nd  Nd2  1  0.74999998  0.24336700  -0.00000001  1
  Nd  Nd3  1  0.24999999  0.24336700  0.24336700  1
  Sn  Sn4  1  0.24999999  0.75663299  -0.00000004  1
  Zr  Zr5  1  0.74999998  0.75663299  0.75663299  1
  Zr  Zr6  1  0.49999999  0.66666666  0.33333331  1
  Zr  Zr7  1  -0.00000000  0.33333333  0.66666668  1
  Sn  Sn8  1  0.49999999  0.33333333  0.66666668  1
  Sn  Sn9  1  0.99999998  0.66666666  0.33333331  1
  Sn  Sn10  1  0.24999999  0.60561099  0.60561099  1
  Sn  Sn11  1  0.74999998  0.60561099  -0.00000004  1
  Sn  Sn12  1  0.74999998  0.99999999  0.60561097  1
  Sn  Sn13  1  0.24999999  0.99999999  0.39438896  1
  Sn  Sn14  1  0.24999999  0.39438900  1.00000002  1
  Sn  Sn15  1  0.74999998  0.39438900  0.39438899  1
