# generated using pymatgen
data_Ti3Ni5
_symmetry_space_group_name_H-M   'P 1'
_cell_length_a   4.92935419
_cell_length_b   7.26224756
_cell_length_c   7.26224756
_cell_angle_alpha   83.38597870
_cell_angle_beta   70.16076660
_cell_angle_gamma   70.16076660
_symmetry_Int_Tables_number   1
_chemical_formula_structural   Ti3Ni5
_chemical_formula_sum   'Ti6 Ni10'
_cell_volume   230.03130743
_cell_formula_units_Z   2
loop_
 _symmetry_equiv_pos_site_id
 _symmetry_equiv_pos_as_xyz
  1  'x, y, z'
loop_
 _atom_site_type_symbol
 _atom_site_label
 _atom_site_symmetry_multiplicity
 _atom_site_fract_x
 _atom_site_fract_y
 _atom_site_fract_z
 _atom_site_occupancy
  Ti  Ti0  1  0.16758201  0.49999999  0.16483599  1
  Ti  Ti1  1  0.83241798  0.49999999  0.83516399  1
  Ti  Ti2  1  0.33241802  0.83516398  0.49999998  1
  Ti  Ti3  1  0.66758198  0.16483600  0.50000000  1
  Ti  Ti4  1  0.74999997  0.00000000  0.00000001  1
  Ti  Ti5  1  0.72166100  0.85242698  0.70080898  1
  Ni  Ni6  1  0.27489699  0.14757300  0.29919100  1
  Ni  Ni7  1  0.77833898  0.29919099  0.14757300  1
  Ni  Ni8  1  0.22510302  0.70080899  0.85242698  1
  Ni  Ni9  1  0.57408700  0.70080899  0.14757299  1
  Ni  Ni10  1  0.42246999  0.29919099  0.85242699  1
  Ni  Ni11  1  0.07753100  0.14757300  0.70080899  1
  Ni  Ni12  1  0.92591199  0.85242698  0.29919099  1
  Ni  Ni13  1  0.74999999  0.49999999  0.49999999  1
  Ni  Ni14  1  0.25000001  0.49999999  0.49999999  1
  Ni  Ni15  1  0.24999999  0.00000000  0.99999999  1
