# generated using pymatgen
data_U(FeC)2
_symmetry_space_group_name_H-M   'P 1'
_cell_length_a   3.80307007
_cell_length_b   3.80306983
_cell_length_c   6.13511276
_cell_angle_alpha   90.00000000
_cell_angle_beta   90.00000000
_cell_angle_gamma   120.00000000
_symmetry_Int_Tables_number   1
_chemical_formula_structural   U(FeC)2
_chemical_formula_sum   'U1 Fe2 C2'
_cell_volume   76.84609580
_cell_formula_units_Z   1
loop_
 _symmetry_equiv_pos_site_id
 _symmetry_equiv_pos_as_xyz
  1  'x, y, z'
loop_
 _atom_site_type_symbol
 _atom_site_label
 _atom_site_symmetry_multiplicity
 _atom_site_fract_x
 _atom_site_fract_y
 _atom_site_fract_z
 _atom_site_occupancy
  U  U0  1  0.00000000  0.00000000  0.00000000  1
  Fe  Fe1  1  0.66666664  0.33333332  0.36214901  1
  Fe  Fe2  1  0.33333330  0.66666665  0.63785102  1
  C  C3  1  0.33333330  0.66666665  0.24608701  1
  C  C4  1  0.66666664  0.33333332  0.75391303  1
