# generated using pymatgen
data_Ti3Ga8Ni5
_symmetry_space_group_name_H-M   'P 1'
_cell_length_a   4.94801092
_cell_length_b   7.27280998
_cell_length_c   7.27280998
_cell_angle_alpha   120.00000000
_cell_angle_beta   90.00000000
_cell_angle_gamma   90.00000000
_symmetry_Int_Tables_number   1
_chemical_formula_structural   Ti3Ga8Ni5
_chemical_formula_sum   'Ti3 Ga8 Ni5'
_cell_volume   226.65523951
_cell_formula_units_Z   1
loop_
 _symmetry_equiv_pos_site_id
 _symmetry_equiv_pos_as_xyz
  1  'x, y, z'
loop_
 _atom_site_type_symbol
 _atom_site_label
 _atom_site_symmetry_multiplicity
 _atom_site_fract_x
 _atom_site_fract_y
 _atom_site_fract_z
 _atom_site_occupancy
  Ti  Ti0  1  0.25000000  0.24287100  0.24287099  1
  Ti  Ti1  1  0.75000001  0.24287100  -0.00000000  1
  Ti  Ti2  1  0.75000001  0.99999999  0.24287098  1
  Ga  Ga3  1  0.25000000  0.99999999  0.75712896  1
  Ga  Ga4  1  0.25000000  0.75712900  -0.00000001  1
  Ga  Ga5  1  0.75000001  0.75712900  0.75712897  1
  Ga  Ga6  1  -0.00000000  0.66666666  0.33333331  1
  Ga  Ga7  1  0.50000001  0.33333333  0.66666665  1
  Ga  Ga8  1  -0.00000000  0.33333333  0.66666665  1
  Ga  Ga9  1  0.50000001  0.66666666  0.33333331  1
  Ni  Ni10  1  0.25000000  0.60753600  0.60753598  1
  Ga  Ga11  1  0.75000001  0.60753600  -0.00000001  1
  Ni  Ni12  1  0.75000001  0.00000000  0.60753599  1
  Ni  Ni13  1  0.25000000  0.00000000  0.39246399  1
  Ni  Ni14  1  0.25000000  0.39246400  0.99999997  1
  Ni  Ni15  1  0.75000001  0.39246400  0.39246398  1
