# generated using pymatgen
data_CaNd4HfZrNiO12
_symmetry_space_group_name_H-M   'P 1'
_cell_length_a   2.98508501
_cell_length_b   9.44186592
_cell_length_c   9.44186592
_cell_angle_alpha   90.00000000
_cell_angle_beta   90.00000000
_cell_angle_gamma   90.00000000
_symmetry_Int_Tables_number   1
_chemical_formula_structural   CaNd4HfZrNiO12
_chemical_formula_sum   'Ca1 Nd4 Hf1 Zr1 Ni1 O12'
_cell_volume   266.11684232
_cell_formula_units_Z   1
loop_
 _symmetry_equiv_pos_site_id
 _symmetry_equiv_pos_as_xyz
  1  'x, y, z'
loop_
 _atom_site_type_symbol
 _atom_site_label
 _atom_site_symmetry_multiplicity
 _atom_site_fract_x
 _atom_site_fract_y
 _atom_site_fract_z
 _atom_site_occupancy
  Ca  Ca0  1  -0.00000000  0.67478401  0.82104201  1
  Nd  Nd1  1  -0.00000000  0.32521600  0.17895800  1
  Nd  Nd2  1  -0.00000000  0.82104201  0.32521600  1
  Nd  Nd3  1  0.00000000  0.17895800  0.67478401  1
  Nd  Nd4  1  0.00000000  0.00000000  0.00000000  1
  Zr  Zr5  1  -0.00000000  0.50000000  0.50000000  1
  Hf  Hf6  1  0.00000000  0.87498701  0.61971201  1
  Ni  Ni7  1  0.00000000  0.12501300  0.38028800  1
  O  O8  1  -0.00000000  0.61971201  0.12501300  1
  O  O9  1  -0.00000000  0.38028800  0.87498701  1
  O  O10  1  0.50000000  0.71349501  0.56841600  1
  O  O11  1  0.50000000  0.28650500  0.43158400  1
  O  O12  1  0.50000000  0.77988301  0.07204800  1
  O  O13  1  0.50000000  0.22011700  0.92795201  1
  O  O14  1  0.50000000  0.56841600  0.28650500  1
  O  O15  1  0.50000000  0.43158400  0.71349501  1
  O  O16  1  0.50000000  0.07204800  0.22011700  1
  O  O17  1  0.50000000  0.92795201  0.77988301  1
  O  O18  1  0.50000000  0.00000000  0.50000000  1
  O  O19  1  0.50000000  0.50000000  0.00000000  1
