# generated using pymatgen
data_Ti7Ni11
_symmetry_space_group_name_H-M   'P 1'
_cell_length_a   3.46437907
_cell_length_b   6.66086006
_cell_length_c   11.52042294
_cell_angle_alpha   89.89650726
_cell_angle_beta   90.00000000
_cell_angle_gamma   90.00000000
_symmetry_Int_Tables_number   1
_chemical_formula_structural   Ti7Ni11
_chemical_formula_sum   'Ti7 Ni11'
_cell_volume   265.84189906
_cell_formula_units_Z   1
loop_
 _symmetry_equiv_pos_site_id
 _symmetry_equiv_pos_as_xyz
  1  'x, y, z'
loop_
 _atom_site_type_symbol
 _atom_site_label
 _atom_site_symmetry_multiplicity
 _atom_site_fract_x
 _atom_site_fract_y
 _atom_site_fract_z
 _atom_site_occupancy
  Ti  Ti0  1  0.00000000  0.50218000  0.16643399  1
  Ti  Ti1  1  -0.00000000  0.49836400  0.83432298  1
  Ti  Ti2  1  -0.00000000  0.00141600  0.33213500  1
  Ti  Ti3  1  0.49999999  0.00163900  0.00057800  1
  Ti  Ti4  1  0.49999999  0.49724200  0.49984399  1
  Ti  Ti5  1  0.00000000  0.99701299  0.66707898  1
  Ni  Ni6  1  -0.00000000  0.74385699  0.99855798  1
  Ti  Ti7  1  -0.00000000  0.23625900  0.50567599  1
  Ni  Ni8  1  0.00000000  0.63658999  0.63053899  1
  Ni  Ni9  1  0.00000000  0.13047700  0.12719700  1
  Ni  Ni10  1  0.00000000  0.12369800  0.86382399  1
  Ni  Ni11  1  0.00000000  0.63013899  0.37341799  1
  Ni  Ni12  1  0.49999999  0.89910999  0.50515098  1
  Ni  Ni13  1  0.49999999  0.39171600  0.99852198  1
  Ni  Ni14  1  0.49999999  0.80719899  0.79833798  1
  Ni  Ni15  1  0.49999999  0.30299000  0.30450999  1
  Ni  Ni16  1  0.49999999  0.29814400  0.69491299  1
  Ni  Ni17  1  0.49999999  0.80216599  0.19896199  1
