# generated using pymatgen
data_NdGe2
_symmetry_space_group_name_H-M   'P 1'
_cell_length_a   3.95505810
_cell_length_b   3.99639797
_cell_length_c   7.47205544
_cell_angle_alpha   105.51097107
_cell_angle_beta   105.34654999
_cell_angle_gamma   90.00000000
_symmetry_Int_Tables_number   1
_chemical_formula_structural   NdGe2
_chemical_formula_sum   'Nd2 Ge4'
_cell_volume   109.42514467
_cell_formula_units_Z   2
loop_
 _symmetry_equiv_pos_site_id
 _symmetry_equiv_pos_as_xyz
  1  'x, y, z'
loop_
 _atom_site_type_symbol
 _atom_site_label
 _atom_site_symmetry_multiplicity
 _atom_site_fract_x
 _atom_site_fract_y
 _atom_site_fract_z
 _atom_site_occupancy
  Nd  Nd0  1  0.87000196  0.87000199  0.74000397  1
  Nd  Nd1  1  0.13252198  0.63252199  0.26504398  1
  Ge  Ge2  1  0.53971698  0.03971700  0.07943400  1
  Ge  Ge3  1  0.29236799  0.29236800  0.58473599  1
  Ge  Ge4  1  0.46154798  0.46154800  0.92309598  1
  Ge  Ge5  1  0.70384398  0.20384400  0.40768799  1
