# generated using pymatgen
data_Nd3Y2Hf2NiO12
_symmetry_space_group_name_H-M   'P 1'
_cell_length_a   5.71046209
_cell_length_b   6.05481911
_cell_length_c   8.41845512
_cell_angle_alpha   90.00000000
_cell_angle_beta   90.00000000
_cell_angle_gamma   90.00000000
_symmetry_Int_Tables_number   1
_chemical_formula_structural   Nd3Y2Hf2NiO12
_chemical_formula_sum   'Nd3 Y2 Hf2 Ni1 O12'
_cell_volume   291.07494689
_cell_formula_units_Z   1
loop_
 _symmetry_equiv_pos_site_id
 _symmetry_equiv_pos_as_xyz
  1  'x, y, z'
loop_
 _atom_site_type_symbol
 _atom_site_label
 _atom_site_symmetry_multiplicity
 _atom_site_fract_x
 _atom_site_fract_y
 _atom_site_fract_z
 _atom_site_occupancy
  Hf  Hf0  1  0.99950998  0.50058199  0.51519699  1
  Nd  Nd1  1  0.00049000  0.49941799  0.01519700  1
  Y  Y2  1  0.49950999  0.99941798  0.01519700  1
  Y  Y3  1  0.50048999  0.00058200  0.51519699  1
  Nd  Nd4  1  0.99832198  0.93883098  0.79302699  1
  Nd  Nd5  1  0.50167799  0.43883099  0.79302699  1
  Hf  Hf6  1  0.49832199  0.56116899  0.29302700  1
  Ni  Ni7  1  0.00167800  0.06116900  0.29302700  1
  O  O8  1  0.80221799  0.79293499  0.43491899  1
  O  O9  1  0.11629400  0.44912699  0.25761300  1
  O  O10  1  0.88370599  0.55087299  0.75761299  1
  O  O11  1  0.15916700  0.16188800  0.52894299  1
  O  O12  1  0.65916699  0.33811199  0.02894300  1
  O  O13  1  0.34083299  0.66188799  0.52894299  1
  O  O14  1  0.84083299  0.83811199  0.02894300  1
  O  O15  1  0.61629399  0.05087300  0.75761299  1
  O  O16  1  0.19778200  0.20706500  0.93491899  1
  O  O17  1  0.69778199  0.29293499  0.43491899  1
  O  O18  1  0.38370599  0.94912698  0.25761300  1
  O  O19  1  0.30221800  0.70706499  0.93491899  1
