# generated using pymatgen
data_Dy3LuSn4
_symmetry_space_group_name_H-M   'P 1'
_cell_length_a   5.33851910
_cell_length_b   7.03036594
_cell_length_c   7.03036547
_cell_angle_alpha   120.00000000
_cell_angle_beta   90.00000000
_cell_angle_gamma   90.00000000
_symmetry_Int_Tables_number   1
_chemical_formula_structural   Dy3LuSn4
_chemical_formula_sum   'Dy3 Lu1 Sn4'
_cell_volume   228.51108149
_cell_formula_units_Z   1
loop_
 _symmetry_equiv_pos_site_id
 _symmetry_equiv_pos_as_xyz
  1  'x, y, z'
loop_
 _atom_site_type_symbol
 _atom_site_label
 _atom_site_symmetry_multiplicity
 _atom_site_fract_x
 _atom_site_fract_y
 _atom_site_fract_z
 _atom_site_occupancy
  Dy  Dy0  1  0.74999999  0.82347099  0.17652896  1
  Dy  Dy1  1  0.74999999  0.35305799  0.17652899  1
  Dy  Dy2  1  0.74999999  0.82347099  0.64694197  1
  Lu  Lu3  1  0.25000000  0.17652900  0.82347100  1
  Sn  Sn4  1  0.25000000  0.64694199  0.82347098  1
  Sn  Sn5  1  0.25000000  0.17652900  0.35305799  1
  Sn  Sn6  1  0.25000000  0.66666666  0.33333331  1
  Sn  Sn7  1  0.74999999  0.33333333  0.66666666  1
