# generated using pymatgen
data_YCuGeC2
_symmetry_space_group_name_H-M   'P 1'
_cell_length_a   3.88032794
_cell_length_b   3.88032794
_cell_length_c   6.89568281
_cell_angle_alpha   106.34134674
_cell_angle_beta   106.34134674
_cell_angle_gamma   90.00000000
_symmetry_Int_Tables_number   1
_chemical_formula_structural   YCuGeC2
_chemical_formula_sum   'Y1 Cu1 Ge1 C2'
_cell_volume   95.25462577
_cell_formula_units_Z   1
loop_
 _symmetry_equiv_pos_site_id
 _symmetry_equiv_pos_as_xyz
  1  'x, y, z'
loop_
 _atom_site_type_symbol
 _atom_site_label
 _atom_site_symmetry_multiplicity
 _atom_site_fract_x
 _atom_site_fract_y
 _atom_site_fract_z
 _atom_site_occupancy
  Cu  Cu0  1  0.34061702  0.34061701  0.68123403  1
  Y  Y1  1  0.65938304  0.65938302  0.31876604  1
  Ge  Ge2  1  0.00000000  0.00000000  0.00000000  1
  C  C3  1  0.75000003  0.25000001  0.50000004  1
  C  C4  1  0.25000003  0.75000002  0.50000004  1
