# generated using pymatgen
data_TiVTe3O2
_symmetry_space_group_name_H-M   'P 1'
_cell_length_a   3.47385192
_cell_length_b   6.08786058
_cell_length_c   6.33995295
_cell_angle_alpha   115.96501160
_cell_angle_beta   105.90035248
_cell_angle_gamma   90.00000000
_symmetry_Int_Tables_number   1
_chemical_formula_structural   TiVTe3O2
_chemical_formula_sum   'Ti1 V1 Te3 O2'
_cell_volume   114.81258582
_cell_formula_units_Z   1
loop_
 _symmetry_equiv_pos_site_id
 _symmetry_equiv_pos_as_xyz
  1  'x, y, z'
loop_
 _atom_site_type_symbol
 _atom_site_label
 _atom_site_symmetry_multiplicity
 _atom_site_fract_x
 _atom_site_fract_y
 _atom_site_fract_z
 _atom_site_occupancy
  V  V0  1  0.74116700  0.69387195  0.48233396  1
  Ti  Ti1  1  0.25883300  0.30612798  0.51766598  1
  Te  Te2  1  0.00000000  0.00000000  0.00000000  1
  Te  Te3  1  0.63565399  0.97884893  0.27130793  1
  Te  Te4  1  0.36434601  0.02115100  0.72869200  1
  O  O5  1  0.89307001  0.55548296  0.78613997  1
  O  O6  1  0.10692999  0.44451697  0.21385997  1
