# generated using pymatgen
data_LiMnCo4(CuS3)2
_symmetry_space_group_name_H-M   'P 1'
_cell_length_a   6.30661201
_cell_length_b   6.30661201
_cell_length_c   6.30661201
_cell_angle_alpha   60.00000000
_cell_angle_beta   60.00000000
_cell_angle_gamma   60.00000000
_symmetry_Int_Tables_number   1
_chemical_formula_structural   LiMnCo4(CuS3)2
_chemical_formula_sum   'Li1 Mn1 Co4 Cu2 S6'
_cell_volume   177.36721373
_cell_formula_units_Z   1
loop_
 _symmetry_equiv_pos_site_id
 _symmetry_equiv_pos_as_xyz
  1  'x, y, z'
loop_
 _atom_site_type_symbol
 _atom_site_label
 _atom_site_symmetry_multiplicity
 _atom_site_fract_x
 _atom_site_fract_y
 _atom_site_fract_z
 _atom_site_occupancy
  Li  Li0  1  0.00000000  0.00000000  0.00000000  1
  Mn  Mn1  1  0.74999998  0.74999998  0.74999998  1
  Co  Co2  1  0.87499998  0.37499999  0.37499999  1
  Co  Co3  1  0.37499999  0.37499999  0.87499998  1
  Co  Co4  1  0.37499999  0.37499999  0.37499999  1
  Co  Co5  1  0.37499999  0.87499998  0.37499999  1
  Cu  Cu6  1  0.60729998  0.60729898  0.17810200  1
  Cu  Cu7  1  0.60729998  0.60729898  0.60729898  1
  S  S8  1  0.60729998  0.17810200  0.60729898  1
  S  S9  1  0.57189698  0.14270100  0.14270100  1
  S  S10  1  0.14270000  0.57189798  0.14270100  1
  S  S11  1  0.14270000  0.14270100  0.14270100  1
  S  S12  1  0.17810300  0.60729898  0.60729898  1
  S  S13  1  0.14270000  0.14270100  0.57189798  1
