# generated using pymatgen
data_CeSbO
_symmetry_space_group_name_H-M   'P 1'
_cell_length_a   3.73768210
_cell_length_b   3.73768210
_cell_length_c   8.40537643
_cell_angle_alpha   90.00000000
_cell_angle_beta   90.00000000
_cell_angle_gamma   90.00000000
_symmetry_Int_Tables_number   1
_chemical_formula_structural   CeSbO
_chemical_formula_sum   'Ce2 Sb2 O2'
_cell_volume   117.42535732
_cell_formula_units_Z   2
loop_
 _symmetry_equiv_pos_site_id
 _symmetry_equiv_pos_as_xyz
  1  'x, y, z'
loop_
 _atom_site_type_symbol
 _atom_site_label
 _atom_site_symmetry_multiplicity
 _atom_site_fract_x
 _atom_site_fract_y
 _atom_site_fract_z
 _atom_site_occupancy
  Ce  Ce0  1  -0.00000000  0.49999999  0.73875096  1
  Ce  Ce1  1  0.49999999  0.00000000  0.26124899  1
  Sb  Sb2  1  0.00000000  0.00000000  0.00000000  1
  Sb  Sb3  1  0.49999999  0.49999999  -0.00000000  1
  O  O4  1  0.49999999  0.00000000  0.62119097  1
  O  O5  1  -0.00000000  0.49999999  0.37880898  1
