# generated using pymatgen
data_CeGa3Pd2
_symmetry_space_group_name_H-M   'P 1'
_cell_length_a   4.16057014
_cell_length_b   6.81295490
_cell_length_c   7.95015717
_cell_angle_alpha   90.00000000
_cell_angle_beta   90.00000000
_cell_angle_gamma   90.00000000
_symmetry_Int_Tables_number   1
_chemical_formula_structural   CeGa3Pd2
_chemical_formula_sum   'Ce2 Ga6 Pd4'
_cell_volume   225.35338026
_cell_formula_units_Z   2
loop_
 _symmetry_equiv_pos_site_id
 _symmetry_equiv_pos_as_xyz
  1  'x, y, z'
loop_
 _atom_site_type_symbol
 _atom_site_label
 _atom_site_symmetry_multiplicity
 _atom_site_fract_x
 _atom_site_fract_y
 _atom_site_fract_z
 _atom_site_occupancy
  Ce  Ce0  1  0.24999999  0.96414201  0.32152299  1
  Ce  Ce1  1  0.74999997  0.53585801  0.82152298  1
  Ga  Ga2  1  0.24999999  0.46414201  0.17847700  1
  Ga  Ga3  1  0.74999997  0.03585800  0.67847699  1
  Ga  Ga4  1  0.74999997  0.63668701  0.44122899  1
  Ga  Ga5  1  0.74999997  0.13668700  0.05877100  1
  Ga  Ga6  1  0.24999999  0.36331301  0.55877099  1
  Ga  Ga7  1  0.24999999  0.86331301  0.94122898  1
  Pd  Pd8  1  0.74999997  0.76376101  0.12387900  1
  Pd  Pd9  1  0.74999997  0.26376100  0.37612099  1
  Pd  Pd10  1  0.24999999  0.23623900  0.87612098  1
  Pd  Pd11  1  0.24999999  0.73623901  0.62387899  1
