# generated using pymatgen
data_Na7Bi
_symmetry_space_group_name_H-M   'P 1'
_cell_length_a   4.40976620
_cell_length_b   8.04353428
_cell_length_c   8.04353428
_cell_angle_alpha   120.00000000
_cell_angle_beta   90.00000000
_cell_angle_gamma   90.00000000
_symmetry_Int_Tables_number   1
_chemical_formula_structural   Na7Bi
_chemical_formula_sum   'Na7 Bi1'
_cell_volume   247.08138650
_cell_formula_units_Z   1
loop_
 _symmetry_equiv_pos_site_id
 _symmetry_equiv_pos_as_xyz
  1  'x, y, z'
loop_
 _atom_site_type_symbol
 _atom_site_label
 _atom_site_symmetry_multiplicity
 _atom_site_fract_x
 _atom_site_fract_y
 _atom_site_fract_z
 _atom_site_occupancy
  Na  Na0  1  0.24999999  0.33333332  0.66666666  1
  Na  Na1  1  0.74999997  0.66666665  0.33333334  1
  Na  Na2  1  0.24999999  0.38769999  0.08567401  1
  Na  Na3  1  0.74999997  0.08567400  0.69797399  1
  Na  Na4  1  0.74999997  0.61229998  0.91432600  1
  Na  Na5  1  0.24999999  0.91432598  0.30202601  1
  Bi  Bi6  1  0.24999999  0.69797398  0.61230000  1
  Na  Na7  1  0.74999997  0.30202599  0.38770000  1
