# generated using pymatgen
data_Li6Mg2CuO6
_symmetry_space_group_name_H-M   'P 1'
_cell_length_a   6.79079056
_cell_length_b   6.79079056
_cell_length_c   6.79079056
_cell_angle_alpha   60.00000000
_cell_angle_beta   60.00000000
_cell_angle_gamma   60.00000000
_symmetry_Int_Tables_number   1
_chemical_formula_structural   Li6Mg2CuO6
_chemical_formula_sum   'Li6 Mg2 Cu1 O6'
_cell_volume   221.43486948
_cell_formula_units_Z   1
loop_
 _symmetry_equiv_pos_site_id
 _symmetry_equiv_pos_as_xyz
  1  'x, y, z'
loop_
 _atom_site_type_symbol
 _atom_site_label
 _atom_site_symmetry_multiplicity
 _atom_site_fract_x
 _atom_site_fract_y
 _atom_site_fract_z
 _atom_site_occupancy
  Li  Li0  1  0.49999999  0.00000000  0.49999999  1
  Li  Li1  1  -0.00000000  0.49999999  0.49999999  1
  Li  Li2  1  0.49999999  0.49999999  -0.00000000  1
  Li  Li3  1  -0.00000000  0.99999999  0.49999999  1
  Li  Li4  1  0.49999999  0.00000000  -0.00000000  1
  Li  Li5  1  -0.00000000  0.49999999  -0.00000000  1
  Mg  Mg6  1  0.00000000  0.00000000  0.00000000  1
  Mg  Mg7  1  0.21968700  0.78031299  0.21968700  1
  O  O8  1  0.74999999  0.74999999  0.74999999  1
  O  O9  1  0.21968700  0.78031299  0.78031299  1
  O  O10  1  0.21968700  0.21968700  0.78031299  1
  O  O11  1  0.78031299  0.21968700  0.21968700  1
  O  O12  1  0.78031299  0.78031299  0.21968700  1
  O  O13  1  0.25000000  0.25000000  0.25000000  1
  Cu  Cu14  1  0.78031299  0.21968700  0.78031299  1
