# generated using pymatgen
data_TiNi8
_symmetry_space_group_name_H-M   'P 1'
_cell_length_a   6.07873917
_cell_length_b   6.07873917
_cell_length_c   8.63965988
_cell_angle_alpha   90.00000000
_cell_angle_beta   90.00000000
_cell_angle_gamma   90.00000000
_symmetry_Int_Tables_number   1
_chemical_formula_structural   TiNi8
_chemical_formula_sum   'Ti2 Ni16'
_cell_volume   319.24467578
_cell_formula_units_Z   2
loop_
 _symmetry_equiv_pos_site_id
 _symmetry_equiv_pos_as_xyz
  1  'x, y, z'
loop_
 _atom_site_type_symbol
 _atom_site_label
 _atom_site_symmetry_multiplicity
 _atom_site_fract_x
 _atom_site_fract_y
 _atom_site_fract_z
 _atom_site_occupancy
  Ti  Ti0  1  0.49999999  0.49999999  0.50000001  1
  Ti  Ti1  1  0.00000000  0.00000000  0.50000001  1
  Ni  Ni2  1  -0.00000000  0.49999999  0.76785301  1
  Ni  Ni3  1  0.49999999  0.00000000  0.23214700  1
  Ni  Ni4  1  -0.00000000  0.49999999  0.23716000  1
  Ni  Ni5  1  0.49999999  0.00000000  0.76284001  1
  Ni  Ni6  1  -0.00000000  0.49999999  0.03388100  1
  Ni  Ni7  1  0.49999999  0.00000000  0.96611901  1
  Ni  Ni8  1  -0.00000000  0.49999999  0.49004201  1
  Ni  Ni9  1  0.49999999  0.00000000  0.50995801  1
  Ni  Ni10  1  0.22881099  0.27118899  0.27530600  1
  Ni  Ni11  1  0.77118898  0.27118899  0.27530600  1
  Ni  Ni12  1  0.22881099  0.72881098  0.27530600  1
  Ni  Ni13  1  0.77118898  0.72881098  0.27530600  1
  Ni  Ni14  1  0.27118899  0.22881099  0.72469401  1
  Ni  Ni15  1  0.72881098  0.22881099  0.72469401  1
  Ni  Ni16  1  0.27118899  0.77118898  0.72469401  1
  Ni  Ni17  1  0.72881098  0.77118898  0.72469401  1
