# generated using pymatgen
data_NaHfZr6Ti2(Ni4O)2
_symmetry_space_group_name_H-M   'P 1'
_cell_length_a   3.88351798
_cell_length_b   8.80353546
_cell_length_c   14.51503944
_cell_angle_alpha   90.00000000
_cell_angle_beta   90.00000000
_cell_angle_gamma   90.00000000
_symmetry_Int_Tables_number   1
_chemical_formula_structural   NaHfZr6Ti2(Ni4O)2
_chemical_formula_sum   'Na1 Hf1 Zr6 Ti2 Ni8 O2'
_cell_volume   496.25015859
_cell_formula_units_Z   1
loop_
 _symmetry_equiv_pos_site_id
 _symmetry_equiv_pos_as_xyz
  1  'x, y, z'
loop_
 _atom_site_type_symbol
 _atom_site_label
 _atom_site_symmetry_multiplicity
 _atom_site_fract_x
 _atom_site_fract_y
 _atom_site_fract_z
 _atom_site_occupancy
  Na  Na0  1  0.75000000  0.56425397  0.67527398  1
  Zr  Zr1  1  0.25000000  0.43574598  0.32472599  1
  Ti  Ti2  1  0.75000000  0.06425400  0.82472597  1
  Zr  Zr3  1  0.25000000  0.93574595  0.17527399  1
  Ti  Ti4  1  0.25000000  0.66342297  0.94237397  1
  Zr  Zr5  1  0.75000000  0.33657698  0.05762600  1
  Hf  Hf6  1  0.25000000  0.16342299  0.55762598  1
  Zr  Zr7  1  0.75000000  0.83657696  0.44237399  1
  Zr  Zr8  1  0.75000000  0.82610096  0.00522900  1
  Zr  Zr9  1  0.25000000  0.17389899  0.99477097  1
  Ni  Ni10  1  0.75000000  0.32610098  0.49477098  1
  Ni  Ni11  1  0.25000000  0.67389896  0.50522898  1
  Ni  Ni12  1  0.25000000  0.52043897  0.10172900  1
  Ni  Ni13  1  0.75000000  0.47956097  0.89827097  1
  Ni  Ni14  1  0.25000000  0.02043900  0.39827099  1
  Ni  Ni15  1  0.75000000  0.97956095  0.60172898  1
  O  O16  1  0.25000000  0.78161296  0.79051898  1
  Ni  Ni17  1  0.75000000  0.21838699  0.20948099  1
  O  O18  1  0.25000000  0.28161299  0.70948098  1
  Ni  Ni19  1  0.75000000  0.71838696  0.29051899  1
