# generated using pymatgen
data_Li2O2
_symmetry_space_group_name_H-M   'P 1'
_cell_length_a   3.15889812
_cell_length_b   5.32194519
_cell_length_c   10.42095661
_cell_angle_alpha   96.49953461
_cell_angle_beta   90.00000000
_cell_angle_gamma   90.00000000
_symmetry_Int_Tables_number   1
_chemical_formula_structural   Li2O2
_chemical_formula_sum   'Li7 O7'
_cell_volume   174.06573443
_cell_formula_units_Z   3
loop_
 _symmetry_equiv_pos_site_id
 _symmetry_equiv_pos_as_xyz
  1  'x, y, z'
loop_
 _atom_site_type_symbol
 _atom_site_label
 _atom_site_symmetry_multiplicity
 _atom_site_fract_x
 _atom_site_fract_y
 _atom_site_fract_z
 _atom_site_occupancy
  Li  Li0  1  0.15628299  0.76396397  0.94273201  1
  Li  Li1  1  0.15628299  0.73603597  0.55726800  1
  Li  Li2  1  0.84371697  0.26396399  0.44273201  1
  Li  Li3  1  0.84371697  0.23603599  0.05726800  1
  Li  Li4  1  0.34865999  0.74999997  0.25000000  1
  Li  Li5  1  0.65133998  0.24999999  0.75000001  1
  O  O6  1  0.65896098  0.58632498  0.87574701  1
  Li  Li7  1  0.85146697  0.60376598  0.39560100  1
  O  O8  1  0.65896098  0.91367496  0.62425300  1
  O  O9  1  0.85146697  0.89623397  0.10439899  1
  O  O10  1  0.14853299  0.10376600  0.89560102  1
  O  O11  1  0.34103899  0.08632500  0.37574701  1
  O  O12  1  0.14853299  0.39623398  0.60439901  1
  O  O13  1  0.34103899  0.41367498  0.12425300  1
