# generated using pymatgen
data_Nd3Sn5
_symmetry_space_group_name_H-M   'P 1'
_cell_length_a   5.25629520
_cell_length_b   7.16711187
_cell_length_c   7.16711187
_cell_angle_alpha   120.00000000
_cell_angle_beta   90.00000000
_cell_angle_gamma   90.00000000
_symmetry_Int_Tables_number   1
_chemical_formula_structural   Nd3Sn5
_chemical_formula_sum   'Nd3 Sn5'
_cell_volume   233.82920166
_cell_formula_units_Z   1
loop_
 _symmetry_equiv_pos_site_id
 _symmetry_equiv_pos_as_xyz
  1  'x, y, z'
loop_
 _atom_site_type_symbol
 _atom_site_label
 _atom_site_symmetry_multiplicity
 _atom_site_fract_x
 _atom_site_fract_y
 _atom_site_fract_z
 _atom_site_occupancy
  Nd  Nd0  1  0.74999997  0.66666668  0.33333333  1
  Nd  Nd1  1  0.24999999  0.33333334  0.66666667  1
  Nd  Nd2  1  0.74999997  0.15509900  0.31019800  1
  Sn  Sn3  1  0.74999997  0.15509900  0.84490201  1
  Sn  Sn4  1  0.74999997  0.68980301  0.84490200  1
  Sn  Sn5  1  0.24999999  0.84490101  0.68980200  1
  Sn  Sn6  1  0.24999999  0.84490101  0.15509800  1
  Sn  Sn7  1  0.24999999  0.31019700  0.15509800  1
