# generated using pymatgen
data_CaP2
_symmetry_space_group_name_H-M   'P 1'
_cell_length_a   3.79071808
_cell_length_b   3.80573201
_cell_length_c   20.48964500
_cell_angle_alpha   84.67127991
_cell_angle_beta   90.00000000
_cell_angle_gamma   90.00000000
_symmetry_Int_Tables_number   1
_chemical_formula_structural   CaP2
_chemical_formula_sum   'Ca6 P12'
_cell_volume   294.31551280
_cell_formula_units_Z   6
loop_
 _symmetry_equiv_pos_site_id
 _symmetry_equiv_pos_as_xyz
  1  'x, y, z'
loop_
 _atom_site_type_symbol
 _atom_site_label
 _atom_site_symmetry_multiplicity
 _atom_site_fract_x
 _atom_site_fract_y
 _atom_site_fract_z
 _atom_site_occupancy
  Ca  Ca0  1  0.49999999  0.10797900  0.78404202  1
  Ca  Ca1  1  0.49999999  0.89202100  0.21595800  1
  Ca  Ca2  1  0.99999998  0.28391500  0.43217001  1
  Ca  Ca3  1  0.00000000  0.71608500  0.56783001  1
  Ca  Ca4  1  0.00000000  0.50000000  -0.00000001  1
  Ca  Ca5  1  0.49999999  0.44514200  0.10971600  1
  P  P6  1  0.49999999  0.55485800  0.89028402  1
  P  P7  1  0.49999999  0.33565600  0.32868801  1
  P  P8  1  0.49999999  0.66434400  0.67131201  1
  P  P9  1  0.49999999  0.22817900  0.54364201  1
  P  P10  1  0.49999999  0.00000000  0.00000000  1
  P  P11  1  0.00000000  0.94538900  0.10922199  1
  P  P12  1  0.99999998  0.05461100  0.89077802  1
  P  P13  1  0.00000000  0.83504500  0.32991000  1
  P  P14  1  0.99999998  0.16495500  0.67009002  1
  P  P15  1  0.00000000  0.61189300  0.77621402  1
  P  P16  1  0.00000000  0.38810700  0.22378600  1
  P  P17  1  0.49999999  0.77182100  0.45635801  1
