# generated using pymatgen
data_Li3TeO4
_symmetry_space_group_name_H-M   'P 1'
_cell_length_a   5.66659880
_cell_length_b   7.11509943
_cell_length_c   7.22332335
_cell_angle_alpha   68.82704926
_cell_angle_beta   85.45152283
_cell_angle_gamma   68.66015625
_symmetry_Int_Tables_number   1
_chemical_formula_structural   Li3TeO4
_chemical_formula_sum   'Li6 Te2 O8'
_cell_volume   252.49755485
_cell_formula_units_Z   2
loop_
 _symmetry_equiv_pos_site_id
 _symmetry_equiv_pos_as_xyz
  1  'x, y, z'
loop_
 _atom_site_type_symbol
 _atom_site_label
 _atom_site_symmetry_multiplicity
 _atom_site_fract_x
 _atom_site_fract_y
 _atom_site_fract_z
 _atom_site_occupancy
  Li  Li0  1  0.91130104  0.95578402  0.52417304  1
  Li  Li1  1  0.25753701  0.31578201  0.61804402  1
  Li  Li2  1  0.67358403  0.60497801  0.92777204  1
  Li  Li3  1  0.02355700  0.97014002  0.02415203  1
  Li  Li4  1  0.56478802  0.66175301  0.40515203  1
  Li  Li5  1  0.38873401  0.23495001  0.15674501  1
  Te  Te6  1  0.41194202  0.66772201  0.07520902  1
  O  O7  1  0.22464401  0.58056701  0.58204003  1
  Te  Te8  1  0.91530403  0.64537601  0.01380302  1
  O  O9  1  0.72306703  0.93614202  0.24600304  1
  O  O10  1  0.98490704  0.30120601  0.54920503  1
  O  O11  1  0.74657703  0.32485001  0.98482104  1
  O  O12  1  0.33207601  0.15273700  0.87492503  1
  O  O13  1  0.60936802  0.74752402  0.67208704  1
  O  O14  1  0.49839702  0.23771801  0.46219602  1
  O  O15  1  0.21761701  0.97117202  0.27677303  1
