# generated using pymatgen
data_LiCuAgPd
_symmetry_space_group_name_H-M   'P 1'
_cell_length_a   4.17171383
_cell_length_b   4.81109619
_cell_length_c   4.17171383
_cell_angle_alpha   115.69314575
_cell_angle_beta   90.00000000
_cell_angle_gamma   115.69314575
_symmetry_Int_Tables_number   1
_chemical_formula_structural   LiCuAgPd
_chemical_formula_sum   'Li1 Cu1 Ag1 Pd1'
_cell_volume   66.14370465
_cell_formula_units_Z   1
loop_
 _symmetry_equiv_pos_site_id
 _symmetry_equiv_pos_as_xyz
  1  'x, y, z'
loop_
 _atom_site_type_symbol
 _atom_site_label
 _atom_site_symmetry_multiplicity
 _atom_site_fract_x
 _atom_site_fract_y
 _atom_site_fract_z
 _atom_site_occupancy
  Li  Li0  1  0.00000000  0.00000000  0.00000000  1
  Ag  Ag1  1  0.50000002  0.00000000  0.50000002  1
  Cu  Cu2  1  0.24999999  0.49999998  0.75000001  1
  Pd  Pd3  1  0.75000001  0.49999998  0.24999999  1
