# generated using pymatgen
data_DyGe3
_symmetry_space_group_name_H-M   'P 1'
_cell_length_a   4.41466522
_cell_length_b   6.67578888
_cell_length_c   10.11709690
_cell_angle_alpha   90.00000000
_cell_angle_beta   90.00000000
_cell_angle_gamma   90.00000000
_symmetry_Int_Tables_number   1
_chemical_formula_structural   DyGe3
_chemical_formula_sum   'Dy4 Ge12'
_cell_volume   298.16473641
_cell_formula_units_Z   4
loop_
 _symmetry_equiv_pos_site_id
 _symmetry_equiv_pos_as_xyz
  1  'x, y, z'
loop_
 _atom_site_type_symbol
 _atom_site_label
 _atom_site_symmetry_multiplicity
 _atom_site_fract_x
 _atom_site_fract_y
 _atom_site_fract_z
 _atom_site_occupancy
  Dy  Dy0  1  0.24999999  0.27973401  0.66253101  1
  Dy  Dy1  1  0.24999999  0.77973401  0.83746901  1
  Dy  Dy2  1  0.74999996  0.72026601  0.33746900  1
  Dy  Dy3  1  0.74999996  0.22026600  0.16253100  1
  Ge  Ge4  1  0.24999999  0.53623801  0.10370500  1
  Ge  Ge5  1  0.24999999  0.03623800  0.39629500  1
  Ge  Ge6  1  0.74999996  0.46376201  0.89629501  1
  Ge  Ge7  1  0.74999996  0.96376202  0.60370501  1
  Ge  Ge8  1  0.24999999  0.91751602  0.14806100  1
  Ge  Ge9  1  0.24999999  0.41751601  0.35193900  1
  Ge  Ge10  1  0.74999996  0.08248400  0.85193901  1
  Ge  Ge11  1  0.74999996  0.58248401  0.64806101  1
  Ge  Ge12  1  0.24999999  0.21681900  0.95689201  1
  Ge  Ge13  1  0.24999999  0.71681901  0.54310801  1
  Ge  Ge14  1  0.74999996  0.78318101  0.04310800  1
  Ge  Ge15  1  0.74999996  0.28318101  0.45689200  1
