# generated using pymatgen
data_Ti2MnCrCuO3
_symmetry_space_group_name_H-M   'P 1'
_cell_length_a   5.33332825
_cell_length_b   5.33332825
_cell_length_c   5.59181166
_cell_angle_alpha   61.51768875
_cell_angle_beta   61.51768875
_cell_angle_gamma   59.99999619
_symmetry_Int_Tables_number   1
_chemical_formula_structural   Ti2MnCrCuO3
_chemical_formula_sum   'Ti2 Mn1 Cr1 Cu1 O3'
_cell_volume   114.98067956
_cell_formula_units_Z   1
loop_
 _symmetry_equiv_pos_site_id
 _symmetry_equiv_pos_as_xyz
  1  'x, y, z'
loop_
 _atom_site_type_symbol
 _atom_site_label
 _atom_site_symmetry_multiplicity
 _atom_site_fract_x
 _atom_site_fract_y
 _atom_site_fract_z
 _atom_site_occupancy
  Mn  Mn0  1  0.49999998  0.50000000  0.50000001  1
  Ti  Ti1  1  0.00000000  0.00000000  0.00000000  1
  Cr  Cr2  1  0.36403499  0.12923100  0.75307100  1
  Ti  Ti3  1  0.75366299  0.36403500  0.75307101  1
  Cu  Cu4  1  0.87076899  0.24633700  0.24692901  1
  O  O5  1  0.24633698  0.63596500  0.24692901  1
  O  O6  1  0.63596497  0.87076900  0.24692902  1
  O  O7  1  0.12923098  0.75366300  0.75307101  1
