# generated using pymatgen
data_Dy2Lu(InPd)3
_symmetry_space_group_name_H-M   'P 1'
_cell_length_a   4.10363388
_cell_length_b   7.38240004
_cell_length_c   7.38240099
_cell_angle_alpha   119.99999237
_cell_angle_beta   90.00000000
_cell_angle_gamma   90.00000000
_symmetry_Int_Tables_number   1
_chemical_formula_structural   Dy2Lu(InPd)3
_chemical_formula_sum   'Dy2 Lu1 In3 Pd3'
_cell_volume   193.68432655
_cell_formula_units_Z   1
loop_
 _symmetry_equiv_pos_site_id
 _symmetry_equiv_pos_as_xyz
  1  'x, y, z'
loop_
 _atom_site_type_symbol
 _atom_site_label
 _atom_site_symmetry_multiplicity
 _atom_site_fract_x
 _atom_site_fract_y
 _atom_site_fract_z
 _atom_site_occupancy
  Dy  Dy0  1  0.50000001  0.58802498  0.99999995  1
  Dy  Dy1  1  0.50000001  0.41197498  0.41197497  1
  Lu  Lu2  1  0.50000001  0.99999996  0.58802492  1
  In  In3  1  -0.00000000  0.24323699  0.99999997  1
  In  In4  1  -0.00000000  0.75676297  0.75676294  1
  In  In5  1  -0.00000000  0.99999996  0.24323693  1
  Pd  Pd6  1  -0.00000000  0.33333332  0.66666664  1
  Pd  Pd7  1  -0.00000000  0.66666664  0.33333328  1
  Pd  Pd8  1  0.50000001  0.00000000  -0.00000000  1
