# generated using pymatgen
data_BaLa5PrBi
_symmetry_space_group_name_H-M   'P 1'
_cell_length_a   6.18257809
_cell_length_b   6.18257856
_cell_length_c   10.89138794
_cell_angle_alpha   90.00000000
_cell_angle_beta   90.00000000
_cell_angle_gamma   120.00000000
_symmetry_Int_Tables_number   1
_chemical_formula_structural   BaLa5PrBi
_chemical_formula_sum   'Ba1 La5 Pr1 Bi1'
_cell_volume   360.53971670
_cell_formula_units_Z   1
loop_
 _symmetry_equiv_pos_site_id
 _symmetry_equiv_pos_as_xyz
  1  'x, y, z'
loop_
 _atom_site_type_symbol
 _atom_site_label
 _atom_site_symmetry_multiplicity
 _atom_site_fract_x
 _atom_site_fract_y
 _atom_site_fract_z
 _atom_site_occupancy
  Ba  Ba0  1  0.66666667  0.33333333  0.42172500  1
  Pr  Pr1  1  0.33333335  0.66666665  0.92172501  1
  La  La2  1  0.33333335  0.66666665  0.57827500  1
  La  La3  1  0.66666667  0.33333333  0.07827500  1
  La  La4  1  0.00000000  0.00000000  0.25000000  1
  La  La5  1  0.00000000  0.00000000  0.75000000  1
  La  La6  1  0.33333335  0.66666665  0.25000000  1
  Bi  Bi7  1  0.66666667  0.33333333  0.75000000  1
