# generated using pymatgen
data_Ba2Ca2LaBi3(SbO5)2
_symmetry_space_group_name_H-M   'P 1'
_cell_length_a   3.75405192
_cell_length_b   3.75405192
_cell_length_c   22.52899170
_cell_angle_alpha   90.00000000
_cell_angle_beta   90.00000000
_cell_angle_gamma   90.00000000
_symmetry_Int_Tables_number   1
_chemical_formula_structural   Ba2Ca2LaBi3(SbO5)2
_chemical_formula_sum   'Ba2 Ca2 La1 Bi3 Sb2 O10'
_cell_volume   317.49895883
_cell_formula_units_Z   1
loop_
 _symmetry_equiv_pos_site_id
 _symmetry_equiv_pos_as_xyz
  1  'x, y, z'
loop_
 _atom_site_type_symbol
 _atom_site_label
 _atom_site_symmetry_multiplicity
 _atom_site_fract_x
 _atom_site_fract_y
 _atom_site_fract_z
 _atom_site_occupancy
  Ca  Ca0  1  0.00000000  0.00000000  0.24978000  1
  Ba  Ba1  1  0.50000001  0.50000001  0.50000001  1
  La  La2  1  0.00000000  0.00000000  0.75022001  1
  Ba  Ba3  1  0.50000001  0.50000001  0.00000000  1
  Bi  Bi4  1  -0.00000000  0.50000001  0.12355500  1
  Ca  Ca5  1  0.50000001  0.00000000  0.37502901  1
  Sb  Sb6  1  -0.00000000  0.50000001  0.62497101  1
  Sb  Sb7  1  0.50000001  0.00000000  0.87644501  1
  Bi  Bi8  1  0.50000001  0.00000000  0.12355500  1
  Bi  Bi9  1  -0.00000000  0.50000001  0.37502901  1
  O  O10  1  0.50000001  0.00000000  0.62497101  1
  O  O11  1  -0.00000000  0.50000001  0.87644501  1
  O  O12  1  0.50000001  0.50000001  0.17532600  1
  O  O13  1  0.00000000  0.00000000  0.42683201  1
  O  O14  1  0.50000001  0.50000001  0.67703501  1
  O  O15  1  0.00000000  0.00000000  0.92879701  1
  O  O16  1  0.00000000  0.00000000  0.07120300  1
  O  O17  1  0.50000001  0.50000001  0.32296500  1
  O  O18  1  0.00000000  0.00000000  0.57316801  1
  O  O19  1  0.50000001  0.50000001  0.82467401  1
