# generated using pymatgen
data_Dy2AlIn(Sn2Pd)2
_symmetry_space_group_name_H-M   'P 1'
_cell_length_a   3.22084308
_cell_length_b   3.22084308
_cell_length_c   16.06086540
_cell_angle_alpha   90.00000000
_cell_angle_beta   90.00000000
_cell_angle_gamma   90.00000000
_symmetry_Int_Tables_number   1
_chemical_formula_structural   Dy2AlIn(Sn2Pd)2
_chemical_formula_sum   'Dy2 Al1 In1 Sn4 Pd2'
_cell_volume   166.61268934
_cell_formula_units_Z   1
loop_
 _symmetry_equiv_pos_site_id
 _symmetry_equiv_pos_as_xyz
  1  'x, y, z'
loop_
 _atom_site_type_symbol
 _atom_site_label
 _atom_site_symmetry_multiplicity
 _atom_site_fract_x
 _atom_site_fract_y
 _atom_site_fract_z
 _atom_site_occupancy
  Dy  Dy0  1  0.49999999  0.49999999  0.10073700  1
  Dy  Dy1  1  0.49999999  0.49999999  0.29989201  1
  Al  Al2  1  0.49999999  0.49999999  0.50000002  1
  In  In3  1  0.49999999  0.49999999  0.70010803  1
  Sn  Sn4  1  0.49999999  0.49999999  0.89926303  1
  Sn  Sn5  1  0.00000000  0.00000000  0.20099301  1
  Sn  Sn6  1  0.00000000  0.00000000  0.40036401  1
  Sn  Sn7  1  0.00000000  0.00000000  0.59963602  1
  Pd  Pd8  1  0.00000000  0.00000000  0.79900703  1
  Pd  Pd9  1  0.00000000  0.00000000  0.00000000  1
