# generated using pymatgen
data_Ca4Zr(NiO4)3
_symmetry_space_group_name_H-M   'P 1'
_cell_length_a   5.64325380
_cell_length_b   5.64822006
_cell_length_c   7.96934605
_cell_angle_alpha   90.00000000
_cell_angle_beta   90.00000000
_cell_angle_gamma   90.00000000
_symmetry_Int_Tables_number   1
_chemical_formula_structural   Ca4Zr(NiO4)3
_chemical_formula_sum   'Ca4 Zr1 Ni3 O12'
_cell_volume   254.01764027
_cell_formula_units_Z   1
loop_
 _symmetry_equiv_pos_site_id
 _symmetry_equiv_pos_as_xyz
  1  'x, y, z'
loop_
 _atom_site_type_symbol
 _atom_site_label
 _atom_site_symmetry_multiplicity
 _atom_site_fract_x
 _atom_site_fract_y
 _atom_site_fract_z
 _atom_site_occupancy
  Ca  Ca0  1  0.78672503  0.49452999  0.50000000  1
  Ca  Ca1  1  0.21327501  0.99452999  0.00000000  1
  Ca  Ca2  1  0.29020201  0.00711000  0.50000000  1
  Ca  Ca3  1  0.70979802  0.50710999  -0.00000000  1
  Ni  Ni4  1  0.24964301  0.49998399  0.75066200  1
  Zr  Zr5  1  0.75035703  0.99998399  0.25066200  1
  Ni  Ni6  1  0.24964301  0.49998399  0.24933800  1
  Ni  Ni7  1  0.75035703  0.99998399  0.74933800  1
  O  O8  1  0.95405203  0.70347999  0.79389000  1
  O  O9  1  0.46266102  0.78805999  0.20968500  1
  O  O10  1  0.53733902  0.28806000  0.29031500  1
  O  O11  1  0.04594800  0.20348000  0.70611000  1
  O  O12  1  0.53733902  0.28806000  0.70968500  1
  O  O13  1  0.04594800  0.20348000  0.29389000  1
  O  O14  1  0.95405203  0.70347999  0.20611000  1
  O  O15  1  0.46266102  0.78805999  0.79031500  1
  O  O16  1  0.24222201  0.58842099  0.50000000  1
  O  O17  1  0.73588703  0.92689199  0.50000000  1
  O  O18  1  0.26411301  0.42689200  -0.00000000  1
  O  O19  1  0.75777803  0.08842100  0.00000000  1
