# generated using pymatgen
data_Ac3La(NdPb)2
_symmetry_space_group_name_H-M   'P 1'
_cell_length_a   6.41646194
_cell_length_b   7.83892393
_cell_length_c   7.83892393
_cell_angle_alpha   120.00000000
_cell_angle_beta   90.00000000
_cell_angle_gamma   90.00000000
_symmetry_Int_Tables_number   1
_chemical_formula_structural   Ac3La(NdPb)2
_chemical_formula_sum   'Ac3 La1 Nd2 Pb2'
_cell_volume   341.45946434
_cell_formula_units_Z   1
loop_
 _symmetry_equiv_pos_site_id
 _symmetry_equiv_pos_as_xyz
  1  'x, y, z'
loop_
 _atom_site_type_symbol
 _atom_site_label
 _atom_site_symmetry_multiplicity
 _atom_site_fract_x
 _atom_site_fract_y
 _atom_site_fract_z
 _atom_site_occupancy
  Ac  Ac0  1  0.25000000  0.16846500  0.33692999  1
  Ac  Ac1  1  0.25000000  0.66307000  0.83153496  1
  Ac  Ac2  1  0.25000000  0.16846500  0.83153497  1
  Nd  Nd3  1  0.75000001  0.83153500  0.66306996  1
  Nd  Nd4  1  0.75000001  0.33693000  0.16846499  1
  La  La5  1  0.75000001  0.83153500  0.16846498  1
  Pb  Pb6  1  0.75000001  0.33333333  0.66666664  1
  Pb  Pb7  1  0.25000000  0.66666666  0.33333331  1
