# generated using pymatgen
data_CaMn(NiO3)2
_symmetry_space_group_name_H-M   'P 1'
_cell_length_a   5.35251999
_cell_length_b   6.74783278
_cell_length_c   6.74783278
_cell_angle_alpha   84.86372375
_cell_angle_beta   77.95307159
_cell_angle_gamma   77.95307159
_symmetry_Int_Tables_number   1
_chemical_formula_structural   CaMn(NiO3)2
_chemical_formula_sum   'Ca2 Mn2 Ni4 O12'
_cell_volume   232.83169713
_cell_formula_units_Z   2
loop_
 _symmetry_equiv_pos_site_id
 _symmetry_equiv_pos_as_xyz
  1  'x, y, z'
loop_
 _atom_site_type_symbol
 _atom_site_label
 _atom_site_symmetry_multiplicity
 _atom_site_fract_x
 _atom_site_fract_y
 _atom_site_fract_z
 _atom_site_occupancy
  Ca  Ca0  1  0.49999997  0.30207800  0.69792197  1
  Ca  Ca1  1  -0.00000003  0.69991199  0.30008799  1
  Mn  Mn2  1  -0.00000000  0.10227200  0.89772798  1
  Mn  Mn3  1  0.49999994  0.90053899  0.09946098  1
  Ni  Ni4  1  0.51451097  0.37775800  0.19829998  1
  Ni  Ni5  1  0.48548895  0.80169999  0.62224197  1
  Ni  Ni6  1  0.98732794  0.62142099  0.80201395  1
  Ni  Ni7  1  0.01267199  0.19798600  0.37857899  1
  O  O8  1  0.74710796  0.36585200  0.33444097  1
  O  O9  1  0.25289196  0.66555899  0.63414798  1
  O  O10  1  0.75974895  0.63926599  0.66185496  1
  O  O11  1  0.24025098  0.33814500  0.36073399  1
  O  O12  1  0.42796596  0.60845299  0.11605798  1
  O  O13  1  0.57203394  0.88394199  0.39154697  1
  O  O14  1  0.06071898  0.39139900  0.88911398  1
  O  O15  1  0.93928097  0.11088600  0.60860096  1
  O  O16  1  0.60773997  0.20097700  0.03514198  1
  O  O17  1  0.39225994  0.96485799  0.79902297  1
  O  O18  1  0.90071394  0.79603399  0.96903595  1
  O  O19  1  0.09928600  0.03096400  0.20396599  1
