# generated using pymatgen
data_Ce2Mg6ZnSi4Ni
_symmetry_space_group_name_H-M   'P 1'
_cell_length_a   4.19244194
_cell_length_b   8.03137684
_cell_length_c   8.06350994
_cell_angle_alpha   71.63549805
_cell_angle_beta   74.93208313
_cell_angle_gamma   74.87036133
_symmetry_Int_Tables_number   1
_chemical_formula_structural   Ce2Mg6ZnSi4Ni
_chemical_formula_sum   'Ce2 Mg6 Zn1 Si4 Ni1'
_cell_volume   244.02236430
_cell_formula_units_Z   1
loop_
 _symmetry_equiv_pos_site_id
 _symmetry_equiv_pos_as_xyz
  1  'x, y, z'
loop_
 _atom_site_type_symbol
 _atom_site_label
 _atom_site_symmetry_multiplicity
 _atom_site_fract_x
 _atom_site_fract_y
 _atom_site_fract_z
 _atom_site_occupancy
  Ce  Ce0  1  0.30415108  0.69020399  0.70149399  1
  Ce  Ce1  1  0.69584905  0.30979600  0.29850599  1
  Mg  Mg2  1  0.00000000  0.00000000  0.00000000  1
  Mg  Mg3  1  0.86147811  0.85858399  0.41845996  1
  Mg  Mg4  1  0.13852202  0.14141600  0.58154002  1
  Mg  Mg5  1  0.14081607  0.58699599  0.13137197  1
  Mg  Mg6  1  0.85918406  0.41300400  0.86862801  1
  Mg  Mg7  1  0.00000006  0.49999999  0.50000000  1
  Zn  Zn8  1  0.34521801  0.03244100  0.27712301  1
  Ni  Ni9  1  0.65478212  0.96755899  0.72287697  1
  Si  Si10  1  0.49864509  0.69719799  0.30551197  1
  Si  Si11  1  0.50135504  0.30280200  0.69448801  1
  Si  Si12  1  0.65724109  0.70357599  0.98194200  1
  Si  Si13  1  0.34275904  0.29642400  0.01805798  1
