# generated using pymatgen
data_Li7CuO8
_symmetry_space_group_name_H-M   'P 1'
_cell_length_a   5.85614681
_cell_length_b   5.85672569
_cell_length_c   5.85827541
_cell_angle_alpha   60.06471252
_cell_angle_beta   60.06933594
_cell_angle_gamma   60.10424805
_symmetry_Int_Tables_number   1
_chemical_formula_structural   Li7CuO8
_chemical_formula_sum   'Li7 Cu1 O8'
_cell_volume   142.33199624
_cell_formula_units_Z   1
loop_
 _symmetry_equiv_pos_site_id
 _symmetry_equiv_pos_as_xyz
  1  'x, y, z'
loop_
 _atom_site_type_symbol
 _atom_site_label
 _atom_site_symmetry_multiplicity
 _atom_site_fract_x
 _atom_site_fract_y
 _atom_site_fract_z
 _atom_site_occupancy
  Li  Li0  1  0.50000199  0.49999999  0.50000001  1
  Li  Li1  1  -0.00000000  0.49999799  0.99999801  1
  Li  Li2  1  0.49999999  0.99999998  0.99999801  1
  Li  Li3  1  0.99999899  0.00000100  0.49999800  1
  Li  Li4  1  0.99999398  0.99999598  0.00001801  1
  Li  Li5  1  0.50000099  0.99999598  0.50000001  1
  Li  Li6  1  0.99999598  0.50000499  0.49999701  1
  Cu  Cu7  1  0.50000399  0.50000099  0.99999701  1
  O  O8  1  0.25824500  0.25836399  0.25804700  1
  O  O9  1  0.75927199  0.25226899  0.75925101  1
  O  O10  1  0.25225199  0.75933698  0.75925701  1
  O  O11  1  0.74175499  0.74163598  0.74194901  1
  O  O12  1  0.75909099  0.75913598  0.25269101  1
  O  O13  1  0.24072799  0.74773398  0.24074701  1
  O  O14  1  0.74774999  0.24066199  0.24074300  1
  O  O15  1  0.24090900  0.24086599  0.74730700  1
