# generated using pymatgen
data_Cs4Bi3Te(I5O)2
_symmetry_space_group_name_H-M   'P 1'
_cell_length_a   4.31338882
_cell_length_b   9.73771477
_cell_length_c   16.07411385
_cell_angle_alpha   90.00000000
_cell_angle_beta   90.00000000
_cell_angle_gamma   90.00000000
_symmetry_Int_Tables_number   1
_chemical_formula_structural   Cs4Bi3Te(I5O)2
_chemical_formula_sum   'Cs4 Bi3 Te1 I10 O2'
_cell_volume   675.15377138
_cell_formula_units_Z   1
loop_
 _symmetry_equiv_pos_site_id
 _symmetry_equiv_pos_as_xyz
  1  'x, y, z'
loop_
 _atom_site_type_symbol
 _atom_site_label
 _atom_site_symmetry_multiplicity
 _atom_site_fract_x
 _atom_site_fract_y
 _atom_site_fract_z
 _atom_site_occupancy
  Cs  Cs0  1  0.75000003  0.06737200  0.67407201  1
  Cs  Cs1  1  0.25000001  0.93262802  0.32592800  1
  Cs  Cs2  1  0.75000003  0.56737201  0.82592801  1
  Te  Te3  1  0.25000001  0.43262801  0.17407200  1
  Cs  Cs4  1  0.75000003  0.33586201  0.44484500  1
  Bi  Bi5  1  0.25000001  0.66413802  0.55515501  1
  Bi  Bi6  1  0.75000003  0.83586202  0.05515500  1
  Bi  Bi7  1  0.25000001  0.16413800  0.94484501  1
  I  I8  1  0.25000001  0.02467400  0.09920600  1
  I  I9  1  0.75000003  0.97532602  0.90079401  1
  I  I10  1  0.25000001  0.52467401  0.40079400  1
  I  I11  1  0.75000003  0.47532601  0.59920601  1
  I  I12  1  0.25000001  0.17116500  0.50437600  1
  I  I13  1  0.75000003  0.82883502  0.49562400  1
  I  I14  1  0.25000001  0.67116502  0.99562401  1
  I  I15  1  0.75000003  0.32883501  0.00437600  1
  I  I16  1  0.75000003  0.21975401  0.29266000  1
  O  O17  1  0.25000001  0.78024602  0.70734001  1
  I  I18  1  0.75000003  0.71975402  0.20734000  1
  O  O19  1  0.25000001  0.28024601  0.79266001  1
