# generated using pymatgen
data_V3Fe4MoO8
_symmetry_space_group_name_H-M   'P 1'
_cell_length_a   4.96455479
_cell_length_b   5.20013380
_cell_length_c   7.01997614
_cell_angle_alpha   90.00000000
_cell_angle_beta   90.00000000
_cell_angle_gamma   90.00000000
_symmetry_Int_Tables_number   1
_chemical_formula_structural   V3Fe4MoO8
_chemical_formula_sum   'V3 Fe4 Mo1 O8'
_cell_volume   181.23015504
_cell_formula_units_Z   1
loop_
 _symmetry_equiv_pos_site_id
 _symmetry_equiv_pos_as_xyz
  1  'x, y, z'
loop_
 _atom_site_type_symbol
 _atom_site_label
 _atom_site_symmetry_multiplicity
 _atom_site_fract_x
 _atom_site_fract_y
 _atom_site_fract_z
 _atom_site_occupancy
  V  V0  1  0.74993403  0.06273500  0.37783199  1
  V  V1  1  0.25006601  0.56273502  0.62216799  1
  V  V2  1  0.75006603  0.56273502  0.37783199  1
  Fe  Fe3  1  0.24993401  0.06273500  0.62216799  1
  Fe  Fe4  1  0.13997301  0.81176703  0.93554998  1
  Fe  Fe5  1  0.86002704  0.31176701  0.06445000  1
  Mo  Mo6  1  0.36002702  0.31176701  0.93554998  1
  Fe  Fe7  1  0.63997303  0.81176703  0.06445000  1
  O  O8  1  0.24989401  0.56266902  0.24647600  1
  O  O9  1  0.75010603  0.06266900  0.75352399  1
  O  O10  1  0.25010601  0.06266900  0.24647600  1
  O  O11  1  0.74989403  0.56266902  0.75352399  1
  O  O12  1  0.52098102  0.31282801  0.23047200  1
  O  O13  1  0.47901902  0.81282803  0.76952798  1
  O  O14  1  0.97901904  0.81282803  0.23047200  1
  O  O15  1  0.02098100  0.31282801  0.76952798  1
