# generated using pymatgen
data_Mg
_symmetry_space_group_name_H-M   'P 1'
_cell_length_a   3.67399311
_cell_length_b   6.19948816
_cell_length_c   7.16385746
_cell_angle_alpha   107.10009003
_cell_angle_beta   90.00000000
_cell_angle_gamma   107.23636627
_symmetry_Int_Tables_number   1
_chemical_formula_structural   Mg
_chemical_formula_sum   Mg6
_cell_volume   148.27298876
_cell_formula_units_Z   6
loop_
 _symmetry_equiv_pos_site_id
 _symmetry_equiv_pos_as_xyz
  1  'x, y, z'
loop_
 _atom_site_type_symbol
 _atom_site_label
 _atom_site_symmetry_multiplicity
 _atom_site_fract_x
 _atom_site_fract_y
 _atom_site_fract_z
 _atom_site_occupancy
  Mg  Mg0  1  0.63846699  0.27693400  0.77707902  1
  Mg  Mg1  1  0.96361099  0.92722199  0.94985603  1
  Mg  Mg2  1  0.31107900  0.62215699  0.12124401  1
  Mg  Mg3  1  0.63941199  0.27882400  0.27843301  1
  Mg  Mg4  1  0.96567899  0.93135799  0.43224502  1
  Mg  Mg5  1  0.31508600  0.63017099  0.60780802  1
