# generated using pymatgen
data_Ce2AlGaPd2
_symmetry_space_group_name_H-M   'P 1'
_cell_length_a   4.42298079
_cell_length_b   4.42298079
_cell_length_c   7.19829512
_cell_angle_alpha   90.00000000
_cell_angle_beta   90.00000000
_cell_angle_gamma   90.00000000
_symmetry_Int_Tables_number   1
_chemical_formula_structural   Ce2AlGaPd2
_chemical_formula_sum   'Ce2 Al1 Ga1 Pd2'
_cell_volume   140.81851277
_cell_formula_units_Z   1
loop_
 _symmetry_equiv_pos_site_id
 _symmetry_equiv_pos_as_xyz
  1  'x, y, z'
loop_
 _atom_site_type_symbol
 _atom_site_label
 _atom_site_symmetry_multiplicity
 _atom_site_fract_x
 _atom_site_fract_y
 _atom_site_fract_z
 _atom_site_occupancy
  Ce  Ce0  1  0.50000002  0.00000000  0.36630199  1
  Ce  Ce1  1  0.00000000  0.50000002  0.63369799  1
  Al  Al2  1  0.50000002  0.50000002  -0.00000000  1
  Ga  Ga3  1  0.00000000  0.00000000  0.00000000  1
  Pd  Pd4  1  0.50000002  0.00000000  0.78246699  1
  Pd  Pd5  1  0.00000000  0.50000002  0.21753300  1
