# generated using pymatgen
data_Ce4SiP7
_symmetry_space_group_name_H-M   'P 1'
_cell_length_a   4.11627483
_cell_length_b   7.03489590
_cell_length_c   7.58032894
_cell_angle_alpha   90.00000000
_cell_angle_beta   90.00000000
_cell_angle_gamma   90.00000000
_symmetry_Int_Tables_number   1
_chemical_formula_structural   Ce4SiP7
_chemical_formula_sum   'Ce4 Si1 P7'
_cell_volume   219.50786757
_cell_formula_units_Z   1
loop_
 _symmetry_equiv_pos_site_id
 _symmetry_equiv_pos_as_xyz
  1  'x, y, z'
loop_
 _atom_site_type_symbol
 _atom_site_label
 _atom_site_symmetry_multiplicity
 _atom_site_fract_x
 _atom_site_fract_y
 _atom_site_fract_z
 _atom_site_occupancy
  Ce  Ce0  1  0.25000001  0.50716701  0.18559700  1
  Ce  Ce1  1  0.75000003  0.49283301  0.81440301  1
  Ce  Ce2  1  0.25000001  0.00716700  0.31440300  1
  Ce  Ce3  1  0.75000003  0.99283301  0.68559701  1
  Si  Si4  1  0.75000003  0.86328801  0.05848600  1
  P  P5  1  0.25000001  0.13671200  0.94151401  1
  P  P6  1  0.75000003  0.36328801  0.44151400  1
  P  P7  1  0.25000001  0.63671201  0.55848600  1
  P  P8  1  0.25000001  0.78987201  0.89001801  1
  P  P9  1  0.75000003  0.21012800  0.10998200  1
  P  P10  1  0.25000001  0.28987200  0.60998200  1
  P  P11  1  0.75000003  0.71012801  0.39001800  1
