# generated using pymatgen
data_NaHfO3
_symmetry_space_group_name_H-M   'P 1'
_cell_length_a   5.59127378
_cell_length_b   5.59127378
_cell_length_c   5.59127474
_cell_angle_alpha   60.94953537
_cell_angle_beta   60.94953537
_cell_angle_gamma   60.94953156
_symmetry_Int_Tables_number   1
_chemical_formula_structural   NaHfO3
_chemical_formula_sum   'Na2 Hf2 O6'
_cell_volume   126.24414997
_cell_formula_units_Z   2
loop_
 _symmetry_equiv_pos_site_id
 _symmetry_equiv_pos_as_xyz
  1  'x, y, z'
loop_
 _atom_site_type_symbol
 _atom_site_label
 _atom_site_symmetry_multiplicity
 _atom_site_fract_x
 _atom_site_fract_y
 _atom_site_fract_z
 _atom_site_occupancy
  Na  Na0  1  0.24986001  0.24986001  0.24985999  1
  Na  Na1  1  0.75014002  0.75014003  0.75013996  1
  Hf  Hf2  1  0.00000000  0.00000000  0.00000000  1
  Hf  Hf3  1  0.50000002  0.50000002  0.49999997  1
  O  O4  1  0.67885102  0.23692701  0.83930197  1
  O  O5  1  0.23692701  0.83930203  0.67885097  1
  O  O6  1  0.83930203  0.67885102  0.23692697  1
  O  O7  1  0.32114901  0.76307303  0.16069798  1
  O  O8  1  0.16069800  0.32114901  0.76307298  1
  O  O9  1  0.76307303  0.16069801  0.32114898  1
