# generated using pymatgen
data_Nd(Hf2Ni7)2
_symmetry_space_group_name_H-M   'P 1'
_cell_length_a   6.45293808
_cell_length_b   6.45293808
_cell_length_c   6.45293808
_cell_angle_alpha   83.08032227
_cell_angle_beta   83.08032227
_cell_angle_gamma   83.08032990
_symmetry_Int_Tables_number   1
_chemical_formula_structural   Nd(Hf2Ni7)2
_chemical_formula_sum   'Nd1 Hf4 Ni14'
_cell_volume   263.26760909
_cell_formula_units_Z   1
loop_
 _symmetry_equiv_pos_site_id
 _symmetry_equiv_pos_as_xyz
  1  'x, y, z'
loop_
 _atom_site_type_symbol
 _atom_site_label
 _atom_site_symmetry_multiplicity
 _atom_site_fract_x
 _atom_site_fract_y
 _atom_site_fract_z
 _atom_site_occupancy
  Nd  Nd0  1  0.34179802  0.34179800  0.34179802  1
  Hf  Hf1  1  0.65820204  0.65820201  0.65820204  1
  Hf  Hf2  1  0.00000000  0.00000000  0.49999998  1
  Hf  Hf3  1  0.50000006  1.00000001  0.00000007  1
  Hf  Hf4  1  0.00000002  0.50000001  0.00000002  1
  Ni  Ni5  1  0.29033504  0.70966501  0.00000005  1
  Ni  Ni6  1  0.00000001  0.29033500  0.70966499  1
  Ni  Ni7  1  0.70966506  1.00000001  0.29033507  1
  Ni  Ni8  1  0.00000003  0.70966501  0.29033502  1
  Ni  Ni9  1  0.29033500  0.00000000  0.70966499  1
  Ni  Ni10  1  0.70966503  0.29033500  0.00000005  1
  Ni  Ni11  1  0.65886304  0.65886301  0.15385606  1
  Ni  Ni12  1  0.15385603  0.65886301  0.65886301  1
  Ni  Ni13  1  0.65886302  0.15385600  0.65886302  1
  Ni  Ni14  1  0.34113702  0.34113700  0.84614400  1
  Ni  Ni15  1  0.84614403  0.34113700  0.34113704  1
  Ni  Ni16  1  0.34113705  0.84614401  0.34113704  1
  Ni  Ni17  1  0.09369401  0.09369400  0.09369401  1
  Ni  Ni18  1  0.90630606  0.90630601  0.90630605  1
