# generated using pymatgen
data_Nd4HfNi15
_symmetry_space_group_name_H-M   'P 1'
_cell_length_a   5.76894617
_cell_length_b   8.10316086
_cell_length_c   8.10316086
_cell_angle_alpha   76.45616150
_cell_angle_beta   69.14716339
_cell_angle_gamma   69.14716339
_symmetry_Int_Tables_number   1
_chemical_formula_structural   Nd4HfNi15
_chemical_formula_sum   'Nd4 Hf1 Ni15'
_cell_volume   328.28259093
_cell_formula_units_Z   1
loop_
 _symmetry_equiv_pos_site_id
 _symmetry_equiv_pos_as_xyz
  1  'x, y, z'
loop_
 _atom_site_type_symbol
 _atom_site_label
 _atom_site_symmetry_multiplicity
 _atom_site_fract_x
 _atom_site_fract_y
 _atom_site_fract_z
 _atom_site_occupancy
  Nd  Nd0  1  0.36866500  0.90345898  0.35921096  1
  Nd  Nd1  1  0.63133498  0.09654100  0.64078898  1
  Hf  Hf2  1  0.13133500  0.64078899  0.09654098  1
  Nd  Nd3  1  0.86866498  0.35921099  0.90345896  1
  Nd  Nd4  1  0.52451499  0.72548499  0.72548496  1
  Ni  Ni5  1  0.10610100  0.23798500  0.54981298  1
  Ni  Ni6  1  0.02451500  0.72548499  0.72548496  1
  Ni  Ni7  1  0.25000000  0.99999998  -0.00000003  1
  Ni  Ni8  1  0.97548497  0.27451499  0.27451498  1
  Ni  Ni9  1  0.39389799  0.45018699  0.76201596  1
  Ni  Ni10  1  0.89389898  0.76201498  0.45018696  1
  Ni  Ni11  1  0.60610199  0.54981299  0.23798397  1
  Ni  Ni12  1  0.47548499  0.27451499  0.27451498  1
  Ni  Ni13  1  0.74999999  0.99999998  -0.00000003  1
  Ni  Ni14  1  0.85992098  0.02396100  0.25619699  1
  Ni  Ni15  1  0.64007899  0.74380299  0.97603895  1
  Ni  Ni16  1  0.35992099  0.25619699  0.02396099  1
  Ni  Ni17  1  0.14007900  0.97603898  0.74380295  1
  Ni  Ni18  1  0.25000000  0.49999999  0.49999997  1
  Ni  Ni19  1  0.74999998  0.49999999  0.49999997  1
