# generated using pymatgen
data_Na5NiO3
_symmetry_space_group_name_H-M   'P 1'
_cell_length_a   4.02199602
_cell_length_b   7.54229403
_cell_length_c   7.62235451
_cell_angle_alpha   109.18384552
_cell_angle_beta   90.00000000
_cell_angle_gamma   105.46379852
_symmetry_Int_Tables_number   1
_chemical_formula_structural   Na5NiO3
_chemical_formula_sum   'Na5 Ni1 O3'
_cell_volume   209.50164685
_cell_formula_units_Z   1
loop_
 _symmetry_equiv_pos_site_id
 _symmetry_equiv_pos_as_xyz
  1  'x, y, z'
loop_
 _atom_site_type_symbol
 _atom_site_label
 _atom_site_symmetry_multiplicity
 _atom_site_fract_x
 _atom_site_fract_y
 _atom_site_fract_z
 _atom_site_occupancy
  Na  Na0  1  0.86183795  0.72367597  0.43431501  1
  Na  Na1  1  0.13816198  0.27632399  0.56568501  1
  Na  Na2  1  0.00000000  0.00000000  0.00000000  1
  Na  Na3  1  0.31914396  0.63828797  0.01164400  1
  Na  Na4  1  0.68085597  0.36171199  0.98835602  1
  Ni  Ni5  1  0.47758494  0.95516996  0.23771400  1
  O  O6  1  0.52241499  0.04483000  0.76228602  1
  O  O7  1  0.79763696  0.59527398  0.82588802  1
  O  O8  1  0.20236297  0.40472598  0.17411200  1
