# generated using pymatgen
data_Cr6Si6Os3W
_symmetry_space_group_name_H-M   'P 1'
_cell_length_a   5.72946405
_cell_length_b   5.72946405
_cell_length_c   5.72946405
_cell_angle_alpha   90.00000000
_cell_angle_beta   90.00000000
_cell_angle_gamma   90.00000000
_symmetry_Int_Tables_number   1
_chemical_formula_structural   Cr6Si6Os3W
_chemical_formula_sum   'Cr6 Si6 Os3 W1'
_cell_volume   188.07973196
_cell_formula_units_Z   1
loop_
 _symmetry_equiv_pos_site_id
 _symmetry_equiv_pos_as_xyz
  1  'x, y, z'
loop_
 _atom_site_type_symbol
 _atom_site_label
 _atom_site_symmetry_multiplicity
 _atom_site_fract_x
 _atom_site_fract_y
 _atom_site_fract_z
 _atom_site_occupancy
  Cr  Cr0  1  0.75190299  0.75190299  0.24809700  1
  Cr  Cr1  1  0.75190299  0.75190299  0.75190299  1
  Cr  Cr2  1  0.75190299  0.24809700  0.24809700  1
  Cr  Cr3  1  0.24809700  0.24809700  0.75190299  1
  Cr  Cr4  1  0.24809700  0.75190299  0.75190299  1
  Si  Si5  1  -0.00000000  0.50000000  -0.00000000  1
  Si  Si6  1  0.00000000  0.00000000  0.00000000  1
  Si  Si7  1  0.24809700  0.75190299  0.24809700  1
  Cr  Cr8  1  0.75190299  0.24809700  0.75190299  1
  Si  Si9  1  0.50000000  0.00000000  0.00000000  1
  W  W10  1  0.24809700  0.24809700  0.24809700  1
  Si  Si11  1  0.00000000  0.00000000  0.50000000  1
  Os  Os12  1  0.50000000  0.50000000  0.50000000  1
  Si  Si13  1  -0.00000000  0.50000000  0.50000000  1
  Os  Os14  1  0.50000000  0.50000000  0.00000000  1
  Os  Os15  1  0.50000000  0.00000000  0.50000000  1
