# generated using pymatgen
data_U4FeGe6
_symmetry_space_group_name_H-M   'P 1'
_cell_length_a   6.34015179
_cell_length_b   6.34063530
_cell_length_c   7.41172504
_cell_angle_alpha   81.78389740
_cell_angle_beta   73.39117432
_cell_angle_gamma   60.00252151
_symmetry_Int_Tables_number   1
_chemical_formula_structural   U4FeGe6
_chemical_formula_sum   'U4 Fe1 Ge6'
_cell_volume   247.27782098
_cell_formula_units_Z   1
loop_
 _symmetry_equiv_pos_site_id
 _symmetry_equiv_pos_as_xyz
  1  'x, y, z'
loop_
 _atom_site_type_symbol
 _atom_site_label
 _atom_site_symmetry_multiplicity
 _atom_site_fract_x
 _atom_site_fract_y
 _atom_site_fract_z
 _atom_site_occupancy
  U  U0  1  0.16657699  0.66684603  0.50000001  1
  U  U1  1  0.83342301  0.33315401  0.50000003  1
  U  U2  1  0.00000000  0.00000000  0.00000000  1
  U  U3  1  0.33287000  0.33426001  0.00000002  1
  Fe  Fe4  1  0.66713000  0.66574003  0.00000004  1
  Ge  Ge5  1  0.39966799  0.66752903  0.80171802  1
  Ge  Ge6  1  0.73211701  0.00000000  0.80097002  1
  Ge  Ge7  1  0.06719699  0.33247101  0.80171800  1
  Ge  Ge8  1  0.26788301  0.00000000  0.19903001  1
  Ge  Ge9  1  0.60033200  0.33247101  0.19828203  1
  Ge  Ge10  1  0.93280300  0.66752903  0.19828205  1
