# generated using pymatgen
data_LiMn4CrC6
_symmetry_space_group_name_H-M   'P 1'
_cell_length_a   4.81241226
_cell_length_b   4.81240988
_cell_length_c   5.69031811
_cell_angle_alpha   90.00148010
_cell_angle_beta   90.00154114
_cell_angle_gamma   88.12065125
_symmetry_Int_Tables_number   1
_chemical_formula_structural   LiMn4CrC6
_chemical_formula_sum   'Li1 Mn4 Cr1 C6'
_cell_volume   131.71289946
_cell_formula_units_Z   1
loop_
 _symmetry_equiv_pos_site_id
 _symmetry_equiv_pos_as_xyz
  1  'x, y, z'
loop_
 _atom_site_type_symbol
 _atom_site_label
 _atom_site_symmetry_multiplicity
 _atom_site_fract_x
 _atom_site_fract_y
 _atom_site_fract_z
 _atom_site_occupancy
  Li  Li0  1  0.49999801  0.49999802  0.75007100  1
  Mn  Mn1  1  0.49999901  0.49999902  0.24998201  1
  Mn  Mn2  1  0.00000300  0.00000300  0.97371698  1
  Mn  Mn3  1  0.99999902  0.99999904  0.52621903  1
  Mn  Mn4  1  0.19101100  0.19101101  0.24992400  1
  C  C5  1  0.22043000  0.22043101  0.75008299  1
  Cr  Cr6  1  0.80898701  0.80898703  0.24993502  1
  C  C7  1  0.77957101  0.77957003  0.75009801  1
  C  C8  1  0.71308401  0.28691901  0.99669099  1
  C  C9  1  0.71305701  0.28694201  0.50329299  1
  C  C10  1  0.28691901  0.71308503  0.99669201  1
  C  C11  1  0.28694201  0.71305803  0.50329402  1
