# generated using pymatgen
data_BaCa2Ge2C3
_symmetry_space_group_name_H-M   'P 1'
_cell_length_a   3.96938205
_cell_length_b   3.96938205
_cell_length_c   9.68938732
_cell_angle_alpha   90.00000000
_cell_angle_beta   90.00000000
_cell_angle_gamma   90.00000000
_symmetry_Int_Tables_number   1
_chemical_formula_structural   BaCa2Ge2C3
_chemical_formula_sum   'Ba1 Ca2 Ge2 C3'
_cell_volume   152.66592695
_cell_formula_units_Z   1
loop_
 _symmetry_equiv_pos_site_id
 _symmetry_equiv_pos_as_xyz
  1  'x, y, z'
loop_
 _atom_site_type_symbol
 _atom_site_label
 _atom_site_symmetry_multiplicity
 _atom_site_fract_x
 _atom_site_fract_y
 _atom_site_fract_z
 _atom_site_occupancy
  Ba  Ba0  1  0.00000000  0.00000000  0.49999998  1
  Ca  Ca1  1  0.49999999  0.00000000  0.14930300  1
  Ca  Ca2  1  0.49999999  0.00000000  0.85069697  1
  Ge  Ge3  1  -0.00000000  0.49999999  0.85069697  1
  Ge  Ge4  1  -0.00000000  0.49999999  0.14930300  1
  C  C5  1  0.49999999  0.49999999  0.72895298  1
  C  C6  1  0.49999999  0.49999999  0.27104699  1
  C  C7  1  0.00000000  0.00000000  0.00000000  1
