# generated using pymatgen
data_Li7VO8
_symmetry_space_group_name_H-M   'P 1'
_cell_length_a   5.32241917
_cell_length_b   5.39633608
_cell_length_c   6.31172180
_cell_angle_alpha   90.00000000
_cell_angle_beta   90.00000000
_cell_angle_gamma   109.02460480
_symmetry_Int_Tables_number   1
_chemical_formula_structural   Li7VO8
_chemical_formula_sum   'Li7 V1 O8'
_cell_volume   171.38062221
_cell_formula_units_Z   1
loop_
 _symmetry_equiv_pos_site_id
 _symmetry_equiv_pos_as_xyz
  1  'x, y, z'
loop_
 _atom_site_type_symbol
 _atom_site_label
 _atom_site_symmetry_multiplicity
 _atom_site_fract_x
 _atom_site_fract_y
 _atom_site_fract_z
 _atom_site_occupancy
  Li  Li0  1  0.00000002  0.74999999  0.38669501  1
  Li  Li1  1  0.00000001  0.25000000  0.61330502  1
  Li  Li2  1  0.50000000  0.74999999  0.15750200  1
  Li  Li3  1  0.50000000  0.74999999  0.57861702  1
  Li  Li4  1  0.49999999  0.25000000  0.42138301  1
  Li  Li5  1  0.49999999  0.25000000  0.84249803  1
  V  V6  1  0.00000002  0.74999999  0.85087303  1
  Li  Li7  1  0.00000001  0.25000000  0.14912700  1
  O  O8  1  0.25159901  0.98624899  0.62632902  1
  O  O9  1  0.23587300  0.49279899  0.89171403  1
  O  O10  1  0.25159900  0.48624899  0.37367101  1
  O  O11  1  0.23587301  0.99279899  0.10828600  1
  O  O12  1  0.74840099  0.51375099  0.62632902  1
  O  O13  1  0.76412699  0.50720099  0.10828600  1
  O  O14  1  0.74840098  0.01375100  0.37367101  1
  O  O15  1  0.76412698  0.00720100  0.89171403  1
