# generated using pymatgen
data_Th3FeB3Ru5
_symmetry_space_group_name_H-M   'P 1'
_cell_length_a   5.92934799
_cell_length_b   5.92934799
_cell_length_c   10.87135410
_cell_angle_alpha   90.00000000
_cell_angle_beta   90.00000000
_cell_angle_gamma   90.00000000
_symmetry_Int_Tables_number   1
_chemical_formula_structural   Th3FeB3Ru5
_chemical_formula_sum   'Th3 Fe1 B3 Ru5'
_cell_volume   382.20601835
_cell_formula_units_Z   1
loop_
 _symmetry_equiv_pos_site_id
 _symmetry_equiv_pos_as_xyz
  1  'x, y, z'
loop_
 _atom_site_type_symbol
 _atom_site_label
 _atom_site_symmetry_multiplicity
 _atom_site_fract_x
 _atom_site_fract_y
 _atom_site_fract_z
 _atom_site_occupancy
  B  B0  1  -0.00000000  0.50000000  0.25000000  1
  Th  Th1  1  0.50000000  0.00000000  0.74999999  1
  Th  Th2  1  0.00000000  0.00000000  0.00000000  1
  Th  Th3  1  0.00000000  0.00000000  0.50000000  1
  B  B4  1  0.22852100  0.26451800  0.12351400  1
  Ru  Ru5  1  0.77147900  0.73548300  0.12351400  1
  Fe  Fe6  1  0.26451800  0.77147900  0.87648599  1
  B  B7  1  0.77147900  0.26451800  0.37648600  1
  Ru  Ru8  1  0.73548300  0.22852100  0.87648599  1
  Ru  Ru9  1  0.22852100  0.73548300  0.37648600  1
  Ru  Ru10  1  0.73548300  0.77147900  0.62351399  1
  Ru  Ru11  1  0.26451800  0.22852100  0.62351399  1
