# generated using pymatgen
data_KFeSe3
_symmetry_space_group_name_H-M   'P 1'
_cell_length_a   3.90628600
_cell_length_b   8.40866661
_cell_length_c   14.23908615
_cell_angle_alpha   90.00000000
_cell_angle_beta   90.00000000
_cell_angle_gamma   90.00000000
_symmetry_Int_Tables_number   1
_chemical_formula_structural   KFeSe3
_chemical_formula_sum   'K4 Fe4 Se12'
_cell_volume   467.70637410
_cell_formula_units_Z   4
loop_
 _symmetry_equiv_pos_site_id
 _symmetry_equiv_pos_as_xyz
  1  'x, y, z'
loop_
 _atom_site_type_symbol
 _atom_site_label
 _atom_site_symmetry_multiplicity
 _atom_site_fract_x
 _atom_site_fract_y
 _atom_site_fract_z
 _atom_site_occupancy
  K  K0  1  0.25000000  0.93230104  0.17530800  1
  K  K1  1  0.75000000  0.06769900  0.82469199  1
  K  K2  1  0.75000000  0.56769903  0.67530799  1
  K  K3  1  0.25000000  0.43230102  0.32469200  1
  Fe  Fe4  1  0.25000000  0.66897703  0.94249499  1
  Fe  Fe5  1  0.75000000  0.33102302  0.05750500  1
  Fe  Fe6  1  0.75000000  0.83102304  0.44249500  1
  Fe  Fe7  1  0.25000000  0.16897701  0.55750499  1
  Se  Se8  1  0.25000000  0.52927502  0.10526800  1
  Se  Se9  1  0.75000000  0.47072502  0.89473199  1
  Se  Se10  1  0.75000000  0.97072504  0.60526799  1
  Se  Se11  1  0.25000000  0.02927500  0.39473200  1
  Se  Se12  1  0.25000000  0.65361103  0.50533599  1
  Se  Se13  1  0.75000000  0.34638902  0.49466399  1
  Se  Se14  1  0.75000000  0.84638904  0.00533600  1
  Se  Se15  1  0.25000000  0.15361101  0.99466399  1
  Se  Se16  1  0.25000000  0.78998504  0.78481299  1
  Se  Se17  1  0.75000000  0.21001501  0.21518700  1
  Se  Se18  1  0.75000000  0.71001503  0.28481300  1
  Se  Se19  1  0.25000000  0.28998501  0.71518699  1
