# generated using pymatgen
data_Nd3Ni5Sn3
_symmetry_space_group_name_H-M   'P 1'
_cell_length_a   4.31554413
_cell_length_b   4.34339380
_cell_length_c   13.28963280
_cell_angle_alpha   99.40504456
_cell_angle_beta   99.34420013
_cell_angle_gamma   90.00000000
_symmetry_Int_Tables_number   1
_chemical_formula_structural   Nd3Ni5Sn3
_chemical_formula_sum   'Nd3 Ni5 Sn3'
_cell_volume   242.40276381
_cell_formula_units_Z   1
loop_
 _symmetry_equiv_pos_site_id
 _symmetry_equiv_pos_as_xyz
  1  'x, y, z'
loop_
 _atom_site_type_symbol
 _atom_site_label
 _atom_site_symmetry_multiplicity
 _atom_site_fract_x
 _atom_site_fract_y
 _atom_site_fract_z
 _atom_site_occupancy
  Nd  Nd0  1  0.00000000  0.00000000  0.00000000  1
  Nd  Nd1  1  0.64518198  0.14518201  0.29036399  1
  Nd  Nd2  1  0.35481798  0.85481803  0.70963597  1
  Ni  Ni3  1  0.75030197  0.75030203  0.50060397  1
  Ni  Ni4  1  0.24969799  0.24969801  0.49939598  1
  Sn  Sn5  1  0.54819498  0.54819502  0.09638999  1
  Ni  Ni6  1  0.45180498  0.45180502  0.90360997  1
  Ni  Ni7  1  0.90541997  0.40542002  0.81083997  1
  Ni  Ni8  1  0.09457999  0.59458002  0.18915998  1
  Sn  Sn9  1  0.80922698  0.30922701  0.61845398  1
  Sn  Sn10  1  0.19077299  0.69077303  0.38154598  1
