# generated using pymatgen
data_NbAlFe11
_symmetry_space_group_name_H-M   'P 1'
_cell_length_a   4.70739603
_cell_length_b   6.44814920
_cell_length_c   6.44814920
_cell_angle_alpha   82.42343903
_cell_angle_beta   68.59123993
_cell_angle_gamma   68.59123993
_symmetry_Int_Tables_number   1
_chemical_formula_structural   NbAlFe11
_chemical_formula_sum   'Nb1 Al1 Fe11'
_cell_volume   169.64837928
_cell_formula_units_Z   1
loop_
 _symmetry_equiv_pos_site_id
 _symmetry_equiv_pos_as_xyz
  1  'x, y, z'
loop_
 _atom_site_type_symbol
 _atom_site_label
 _atom_site_symmetry_multiplicity
 _atom_site_fract_x
 _atom_site_fract_y
 _atom_site_fract_z
 _atom_site_occupancy
  Al  Al0  1  0.00637904  0.99362096  0.99362100  1
  Nb  Nb1  1  0.63329900  0.36670098  0.36670102  1
  Fe  Fe2  1  0.50032403  0.99753796  0.50031503  1
  Fe  Fe3  1  0.00182304  0.99753796  0.50031502  1
  Fe  Fe4  1  0.50032401  0.50031498  0.99753800  1
  Fe  Fe5  1  0.00182302  0.50031498  0.99753799  1
  Fe  Fe6  1  0.72723802  0.77276197  0.77276203  1
  Fe  Fe7  1  0.27617900  0.22382099  0.22382101  1
  Fe  Fe8  1  0.49926202  0.77901197  0.22246403  1
  Fe  Fe9  1  0.49926200  0.22246399  0.77901200  1
  Fe  Fe10  1  0.35454402  0.64545597  0.64545601  1
  Fe  Fe11  1  0.99977199  0.35716798  0.64328903  1
  Fe  Fe12  1  0.99977201  0.64328797  0.35716804  1
