# generated using pymatgen
data_Cs2RbBrCl5
_symmetry_space_group_name_H-M   'P 1'
_cell_length_a   8.37473488
_cell_length_b   8.37473488
_cell_length_c   8.37473488
_cell_angle_alpha   60.00000000
_cell_angle_beta   60.00000000
_cell_angle_gamma   60.00000000
_symmetry_Int_Tables_number   1
_chemical_formula_structural   Cs2RbBrCl5
_chemical_formula_sum   'Cs2 Rb1 Br1 Cl5'
_cell_volume   415.33468807
_cell_formula_units_Z   1
loop_
 _symmetry_equiv_pos_site_id
 _symmetry_equiv_pos_as_xyz
  1  'x, y, z'
loop_
 _atom_site_type_symbol
 _atom_site_label
 _atom_site_symmetry_multiplicity
 _atom_site_fract_x
 _atom_site_fract_y
 _atom_site_fract_z
 _atom_site_occupancy
  Cs  Cs0  1  0.75000002  0.75000002  0.75000002  1
  Cs  Cs1  1  0.25000001  0.25000001  0.25000001  1
  Rb  Rb2  1  0.00000000  0.00000000  0.00000000  1
  Br  Br3  1  0.23256401  0.76743602  0.23256401  1
  Cl  Cl4  1  0.76743602  0.23256401  0.76743602  1
  Cl  Cl5  1  0.23256401  0.76743602  0.76743602  1
  Cl  Cl6  1  0.76743602  0.23256401  0.23256401  1
  Cl  Cl7  1  0.23256401  0.23256401  0.76743602  1
  Cl  Cl8  1  0.76743602  0.76743602  0.23256401  1
