# generated using pymatgen
data_Nd3TiNi16
_symmetry_space_group_name_H-M   'P 1'
_cell_length_a   5.65899611
_cell_length_b   7.87461901
_cell_length_c   7.87461901
_cell_angle_alpha   75.00546265
_cell_angle_beta   68.94163513
_cell_angle_gamma   68.94163513
_symmetry_Int_Tables_number   1
_chemical_formula_structural   Nd3TiNi16
_chemical_formula_sum   'Nd3 Ti1 Ni16'
_cell_volume   302.20223240
_cell_formula_units_Z   1
loop_
 _symmetry_equiv_pos_site_id
 _symmetry_equiv_pos_as_xyz
  1  'x, y, z'
loop_
 _atom_site_type_symbol
 _atom_site_label
 _atom_site_symmetry_multiplicity
 _atom_site_fract_x
 _atom_site_fract_y
 _atom_site_fract_z
 _atom_site_occupancy
  Ti  Ti0  1  0.63108299  0.10575900  0.63207497  1
  Nd  Nd1  1  0.36891694  0.89424100  0.36792501  1
  Nd  Nd2  1  0.86891697  0.36792500  0.89424097  1
  Nd  Nd3  1  0.13108296  0.63207500  0.10575902  1
  Ni  Ni4  1  0.25000000  0.00000000  0.99999998  1
  Ni  Ni5  1  0.75000000  0.00000000  -0.00000003  1
  Ni  Ni6  1  0.98351498  0.26648500  0.26648497  1
  Ni  Ni7  1  0.51648495  0.73351500  0.73351500  1
  Ni  Ni8  1  0.01648495  0.73351500  0.73351501  1
  Ni  Ni9  1  0.48351498  0.26648500  0.26648499  1
  Ni  Ni10  1  0.39248797  0.45509100  0.75993199  1
  Ni  Ni11  1  0.60751196  0.54490900  0.24006799  1
  Ni  Ni12  1  0.89248895  0.75993100  0.45509099  1
  Ni  Ni13  1  0.10751098  0.24006900  0.54490900  1
  Ni  Ni14  1  0.63415995  0.75383200  0.97784799  1
  Ni  Ni15  1  0.13415993  0.97784799  0.75383202  1
  Ni  Ni16  1  0.24999996  0.50000000  0.50000000  1
  Ni  Ni17  1  0.74999996  0.50000000  0.49999998  1
  Ni  Ni18  1  0.36583998  0.24616800  0.02215200  1
  Ni  Ni19  1  0.86584000  0.02215200  0.24616797  1
