# generated using pymatgen
data_LiFeH4
_symmetry_space_group_name_H-M   'P 1'
_cell_length_a   2.88311005
_cell_length_b   4.05521393
_cell_length_c   4.66680002
_cell_angle_alpha   90.00000000
_cell_angle_beta   90.00000000
_cell_angle_gamma   90.00000000
_symmetry_Int_Tables_number   1
_chemical_formula_structural   LiFeH4
_chemical_formula_sum   'Li1 Fe1 H4'
_cell_volume   54.56248989
_cell_formula_units_Z   1
loop_
 _symmetry_equiv_pos_site_id
 _symmetry_equiv_pos_as_xyz
  1  'x, y, z'
loop_
 _atom_site_type_symbol
 _atom_site_label
 _atom_site_symmetry_multiplicity
 _atom_site_fract_x
 _atom_site_fract_y
 _atom_site_fract_z
 _atom_site_occupancy
  Li  Li0  1  0.00000000  0.36357101  0.80389200  1
  H  H1  1  0.49999999  0.63642901  0.69610800  1
  H  H2  1  0.00000000  0.36357101  0.19610800  1
  Fe  Fe3  1  0.49999999  0.63642901  0.30389200  1
  H  H4  1  0.00000000  0.84831302  0.00000000  1
  H  H5  1  0.49999999  0.15168700  0.50000000  1
