# generated using pymatgen
data_Li2CaSnO4
_symmetry_space_group_name_H-M   'P 1'
_cell_length_a   4.38401985
_cell_length_b   4.38401985
_cell_length_c   5.66804647
_cell_angle_alpha   112.75125122
_cell_angle_beta   112.75125122
_cell_angle_gamma   90.00000000
_symmetry_Int_Tables_number   1
_chemical_formula_structural   Li2CaSnO4
_chemical_formula_sum   'Li2 Ca1 Sn1 O4'
_cell_volume   91.20101575
_cell_formula_units_Z   1
loop_
 _symmetry_equiv_pos_site_id
 _symmetry_equiv_pos_as_xyz
  1  'x, y, z'
loop_
 _atom_site_type_symbol
 _atom_site_label
 _atom_site_symmetry_multiplicity
 _atom_site_fract_x
 _atom_site_fract_y
 _atom_site_fract_z
 _atom_site_occupancy
  Li  Li0  1  0.00000000  0.00000000  0.00000000  1
  Li  Li1  1  0.75000000  0.25000000  0.49999994  1
  Ca  Ca2  1  0.24999997  0.75000000  0.49999993  1
  Sn  Sn3  1  0.49999998  0.50000000  -0.00000005  1
  O  O4  1  0.26769799  0.26769800  0.53539595  1
  O  O5  1  0.01769798  0.51769800  0.03539597  1
  O  O6  1  0.73230198  0.73230200  0.46460391  1
  O  O7  1  0.48230196  0.98230201  0.96460389  1
