# generated using pymatgen
data_Li2O2
_symmetry_space_group_name_H-M   'P 1'
_cell_length_a   5.19108534
_cell_length_b   5.19108534
_cell_length_c   9.14819717
_cell_angle_alpha   73.51753998
_cell_angle_beta   73.51753998
_cell_angle_gamma   60.00000763
_symmetry_Int_Tables_number   1
_chemical_formula_structural   Li2O2
_chemical_formula_sum   'Li8 O8'
_cell_volume   201.71017375
_cell_formula_units_Z   4
loop_
 _symmetry_equiv_pos_site_id
 _symmetry_equiv_pos_as_xyz
  1  'x, y, z'
loop_
 _atom_site_type_symbol
 _atom_site_label
 _atom_site_symmetry_multiplicity
 _atom_site_fract_x
 _atom_site_fract_y
 _atom_site_fract_z
 _atom_site_occupancy
  Li  Li0  1  0.67995497  0.67995500  0.96013501  1
  Li  Li1  1  0.32004499  0.32004500  0.03986500  1
  Li  Li2  1  0.17995499  0.17995500  0.46013501  1
  Li  Li3  1  0.82004497  0.82004500  0.53986500  1
  Li  Li4  1  0.93761696  0.93761700  0.18714899  1
  Li  Li5  1  0.06238300  0.06238300  0.81285102  1
  Li  Li6  1  0.43761698  0.43761700  0.68714901  1
  Li  Li7  1  0.56238298  0.56238300  0.31285100  1
  O  O8  1  0.00000000  0.00000000  0.00000000  1
  O  O9  1  0.49999998  0.50000000  0.50000000  1
  O  O10  1  0.24999998  0.69390900  0.25000000  1
  O  O11  1  0.80609099  0.25000000  0.25000000  1
  O  O12  1  0.69390897  0.80609100  0.24999999  1
  O  O13  1  0.74999998  0.30609100  0.75000001  1
  O  O14  1  0.19390898  0.75000000  0.75000001  1
  O  O15  1  0.30609099  0.19390900  0.75000001  1
