# generated using pymatgen
data_Li2Fe4BC2
_symmetry_space_group_name_H-M   'P 1'
_cell_length_a   3.70867395
_cell_length_b   5.60033083
_cell_length_c   5.60033083
_cell_angle_alpha   90.00000000
_cell_angle_beta   90.00000000
_cell_angle_gamma   90.00000000
_symmetry_Int_Tables_number   1
_chemical_formula_structural   Li2Fe4BC2
_chemical_formula_sum   'Li2 Fe4 B1 C2'
_cell_volume   116.31775732
_cell_formula_units_Z   1
loop_
 _symmetry_equiv_pos_site_id
 _symmetry_equiv_pos_as_xyz
  1  'x, y, z'
loop_
 _atom_site_type_symbol
 _atom_site_label
 _atom_site_symmetry_multiplicity
 _atom_site_fract_x
 _atom_site_fract_y
 _atom_site_fract_z
 _atom_site_occupancy
  Li  Li0  1  -0.00000000  0.50000002  0.00000000  1
  Li  Li1  1  0.00000000  0.00000000  0.50000002  1
  Fe  Fe2  1  0.50000001  0.00000000  -0.00000000  1
  Fe  Fe3  1  0.50000001  0.50000002  0.50000002  1
  Fe  Fe4  1  0.50000001  0.72874602  0.27125401  1
  B  B5  1  0.50000001  0.27125401  0.72874602  1
  Fe  Fe6  1  0.00000000  0.00000000  0.00000000  1
  C  C7  1  0.50000001  0.72874602  0.72874602  1
  C  C8  1  0.50000001  0.27125401  0.27125401  1
