# generated using pymatgen
data_Tl6GeS5
_symmetry_space_group_name_H-M   'P 1'
_cell_length_a   4.38042784
_cell_length_b   4.38042784
_cell_length_c   24.15756416
_cell_angle_alpha   90.00000000
_cell_angle_beta   90.00000000
_cell_angle_gamma   120.00000000
_symmetry_Int_Tables_number   1
_chemical_formula_structural   Tl6GeS5
_chemical_formula_sum   'Tl6 Ge1 S5'
_cell_volume   401.43647812
_cell_formula_units_Z   1
loop_
 _symmetry_equiv_pos_site_id
 _symmetry_equiv_pos_as_xyz
  1  'x, y, z'
loop_
 _atom_site_type_symbol
 _atom_site_label
 _atom_site_symmetry_multiplicity
 _atom_site_fract_x
 _atom_site_fract_y
 _atom_site_fract_z
 _atom_site_occupancy
  Tl  Tl0  1  0.66666669  0.33333335  0.91939003  1
  Tl  Tl1  1  0.33333335  0.66666670  0.08061000  1
  Tl  Tl2  1  0.66666669  0.33333335  0.66596802  1
  Tl  Tl3  1  0.33333335  0.66666670  0.33403201  1
  Tl  Tl4  1  0.66666669  0.33333335  0.41560401  1
  Tl  Tl5  1  0.33333335  0.66666670  0.58439602  1
  Ge  Ge6  1  0.66666669  0.33333335  0.15033301  1
  S  S7  1  0.33333335  0.66666670  0.84966703  1
  S  S8  1  0.00000000  0.00000000  0.73479703  1
  S  S9  1  0.00000000  0.00000000  0.26520301  1
  S  S10  1  0.00000000  0.00000000  0.00000000  1
  S  S11  1  0.00000000  0.00000000  0.50000002  1
