# generated using pymatgen
data_NbFe7Mo4
_symmetry_space_group_name_H-M   'P 1'
_cell_length_a   4.67955208
_cell_length_b   4.67955208
_cell_length_c   7.79476690
_cell_angle_alpha   90.00000000
_cell_angle_beta   90.00000000
_cell_angle_gamma   120.00000000
_symmetry_Int_Tables_number   1
_chemical_formula_structural   NbFe7Mo4
_chemical_formula_sum   'Nb1 Fe7 Mo4'
_cell_volume   147.82310961
_cell_formula_units_Z   1
loop_
 _symmetry_equiv_pos_site_id
 _symmetry_equiv_pos_as_xyz
  1  'x, y, z'
loop_
 _atom_site_type_symbol
 _atom_site_label
 _atom_site_symmetry_multiplicity
 _atom_site_fract_x
 _atom_site_fract_y
 _atom_site_fract_z
 _atom_site_occupancy
  Fe  Fe0  1  0.00000000  0.00000000  0.00000000  1
  Nb  Nb1  1  0.00000000  0.00000000  0.50000001  1
  Fe  Fe2  1  0.82953399  0.65906800  0.75000001  1
  Fe  Fe3  1  0.65906900  0.82953500  0.25000000  1
  Fe  Fe4  1  0.17046601  0.82953500  0.25000000  1
  Fe  Fe5  1  0.82953399  0.17046500  0.75000001  1
  Fe  Fe6  1  0.34093100  0.17046500  0.75000001  1
  Fe  Fe7  1  0.17046600  0.34093200  0.25000000  1
  Mo  Mo8  1  0.66666666  0.33333334  0.06874700  1
  Mo  Mo9  1  0.33333334  0.66666667  0.56874701  1
  Mo  Mo10  1  0.33333334  0.66666667  0.93125301  1
  Mo  Mo11  1  0.66666666  0.33333334  0.43125301  1
