# generated using pymatgen
data_PrNd6ZrO9
_symmetry_space_group_name_H-M   'P 1'
_cell_length_a   3.39652491
_cell_length_b   10.19993591
_cell_length_c   10.19993496
_cell_angle_alpha   120.00000000
_cell_angle_beta   90.00000000
_cell_angle_gamma   90.00000000
_symmetry_Int_Tables_number   1
_chemical_formula_structural   PrNd6ZrO9
_chemical_formula_sum   'Pr1 Nd6 Zr1 O9'
_cell_volume   306.02737761
_cell_formula_units_Z   1
loop_
 _symmetry_equiv_pos_site_id
 _symmetry_equiv_pos_as_xyz
  1  'x, y, z'
loop_
 _atom_site_type_symbol
 _atom_site_label
 _atom_site_symmetry_multiplicity
 _atom_site_fract_x
 _atom_site_fract_y
 _atom_site_fract_z
 _atom_site_occupancy
  Nd  Nd0  1  0.50000001  0.26316900  0.46052801  1
  Nd  Nd1  1  0.50000001  0.19735900  0.73683202  1
  Nd  Nd2  1  0.50000001  0.53947299  0.80264201  1
  Nd  Nd3  1  0.50000001  0.73683099  0.19735798  1
  Nd  Nd4  1  0.50000001  0.46052699  0.26316799  1
  Nd  Nd5  1  0.50000001  0.80264099  0.53947199  1
  Pr  Pr6  1  0.00000000  0.00000000  0.45426002  1
  Zr  Zr7  1  1.00000003  0.45425999  -0.00000002  1
  O  O8  1  1.00000003  0.54573999  0.54574000  1
  O  O9  1  1.00000003  0.33333333  0.66666668  1
  O  O10  1  -0.00000000  0.66666666  0.33333332  1
  O  O11  1  0.00000000  0.00000000  0.70435203  1
  O  O12  1  1.00000003  0.70435199  -0.00000003  1
  O  O13  1  1.00000003  0.29564800  0.29564800  1
  O  O14  1  0.50000001  0.00000000  0.27148901  1
  O  O15  1  0.50000001  0.27148900  1.00000003  1
  O  O16  1  0.50000001  0.72851099  0.72851100  1
