# generated using pymatgen
data_Ca7As2PO8
_symmetry_space_group_name_H-M   'P 1'
_cell_length_a   3.36294603
_cell_length_b   9.64623070
_cell_length_c   9.71161175
_cell_angle_alpha   89.92118073
_cell_angle_beta   90.00891113
_cell_angle_gamma   89.99905396
_symmetry_Int_Tables_number   1
_chemical_formula_structural   Ca7As2PO8
_chemical_formula_sum   'Ca7 As2 P1 O8'
_cell_volume   315.04198693
_cell_formula_units_Z   1
loop_
 _symmetry_equiv_pos_site_id
 _symmetry_equiv_pos_as_xyz
  1  'x, y, z'
loop_
 _atom_site_type_symbol
 _atom_site_label
 _atom_site_symmetry_multiplicity
 _atom_site_fract_x
 _atom_site_fract_y
 _atom_site_fract_z
 _atom_site_occupancy
  Ca  Ca0  1  0.00001803  0.62410302  0.31231396  1
  Ca  Ca1  1  0.50016605  0.80975503  0.87672194  1
  Ca  Ca2  1  0.49983402  0.19024501  0.12327798  1
  Ca  Ca3  1  0.99998204  0.37589701  0.68768596  1
  P  P4  1  0.99977906  0.71538303  0.05965895  1
  Ca  Ca5  1  0.50020002  0.21456301  0.55438898  1
  Ca  Ca6  1  0.49988604  0.55846202  0.78105796  1
  Ca  Ca7  1  0.99987707  0.94605704  0.71796093  1
  As  As8  1  0.00012300  0.05394300  0.28203899  1
  O  O9  1  0.50011403  0.44153802  0.21894197  1
  O  O10  1  0.49980005  0.78543703  0.44561095  1
  As  As11  1  0.00022102  0.28461701  0.94034098  1
  O  O12  1  0.00000000  0.00000000  0.00000000  1
  O  O13  1  0.00020804  0.69953503  0.62643995  1
  O  O14  1  0.49947702  0.12750800  0.80260898  1
  O  O15  1  0.50052306  0.87249203  0.19739094  1
  O  O16  1  0.99979203  0.30046501  0.37355997  1
  O  O17  1  0.50000004  0.50000002  0.49999996  1
