# generated using pymatgen
data_Hf3FeNi8
_symmetry_space_group_name_H-M   'P 1'
_cell_length_a   4.33372498
_cell_length_b   5.16832495
_cell_length_c   9.39144516
_cell_angle_alpha   89.55755615
_cell_angle_beta   90.00000000
_cell_angle_gamma   90.00000000
_symmetry_Int_Tables_number   1
_chemical_formula_structural   Hf3FeNi8
_chemical_formula_sum   'Hf3 Fe1 Ni8'
_cell_volume   210.34424591
_cell_formula_units_Z   1
loop_
 _symmetry_equiv_pos_site_id
 _symmetry_equiv_pos_as_xyz
  1  'x, y, z'
loop_
 _atom_site_type_symbol
 _atom_site_label
 _atom_site_symmetry_multiplicity
 _atom_site_fract_x
 _atom_site_fract_y
 _atom_site_fract_z
 _atom_site_occupancy
  Fe  Fe0  1  0.00000000  0.50000001  0.49999999  1
  Hf  Hf1  1  0.00000000  0.50000001  0.00000000  1
  Hf  Hf2  1  0.00000000  0.00000000  0.49999999  1
  Hf  Hf3  1  0.00000000  0.25370100  0.24957400  1
  Ni  Ni4  1  -0.00000000  0.74629901  0.75042599  1
  Ni  Ni5  1  0.00000000  0.00000000  0.00000000  1
  Ni  Ni6  1  0.50000000  0.24888000  0.08682900  1
  Ni  Ni7  1  0.50000000  0.74905101  0.58779699  1
  Ni  Ni8  1  0.50000000  0.75112001  0.91317099  1
  Ni  Ni9  1  0.50000000  0.25094900  0.41220299  1
  Ni  Ni10  1  0.00000000  0.24658100  0.75053799  1
  Ni  Ni11  1  -0.00000000  0.75341901  0.24946200  1
