# generated using pymatgen
data_Ba7Bi5AsP7
_symmetry_space_group_name_H-M   'P 1'
_cell_length_a   7.42064619
_cell_length_b   8.36387444
_cell_length_c   13.84216309
_cell_angle_alpha   86.12863159
_cell_angle_beta   81.24571228
_cell_angle_gamma   63.66537094
_symmetry_Int_Tables_number   1
_chemical_formula_structural   Ba7Bi5AsP7
_chemical_formula_sum   'Ba7 Bi5 As1 P7'
_cell_volume   760.98817134
_cell_formula_units_Z   1
loop_
 _symmetry_equiv_pos_site_id
 _symmetry_equiv_pos_as_xyz
  1  'x, y, z'
loop_
 _atom_site_type_symbol
 _atom_site_label
 _atom_site_symmetry_multiplicity
 _atom_site_fract_x
 _atom_site_fract_y
 _atom_site_fract_z
 _atom_site_occupancy
  Ba  Ba0  1  0.00749500  0.12145400  0.84410702  1
  Ba  Ba1  1  0.87105098  0.12145400  0.65589299  1
  Ba  Ba2  1  0.99250499  0.87854602  0.15589296  1
  Ba  Ba3  1  0.12894900  0.87854602  0.34410699  1
  Ba  Ba4  1  0.66828599  0.36814501  0.79507500  1
  Ba  Ba5  1  0.96356898  0.36814501  0.70492499  1
  Ba  Ba6  1  0.33171400  0.63185502  0.20492499  1
  As  As7  1  0.03643100  0.63185502  0.29507499  1
  Bi  Bi8  1  0.24409900  0.81118502  0.96688900  1
  Bi  Bi9  1  0.94471599  0.81118502  0.53311098  1
  Bi  Bi10  1  0.75590099  0.18881500  0.03311098  1
  Bi  Bi11  1  0.05528400  0.18881500  0.46688901  1
  P  P12  1  0.22323200  0.28214601  0.90966801  1
  Bi  Bi13  1  0.49462199  0.28214601  0.59033200  1
  P  P14  1  0.77676799  0.71785402  0.09033197  1
  P  P15  1  0.50537799  0.71785402  0.40966798  1
  P  P16  1  0.29312400  0.90324902  0.69463099  1
  P  P17  1  0.80362699  0.90324902  0.80536898  1
  P  P18  1  0.70687599  0.09675100  0.30536899  1
  P  P19  1  0.19637300  0.09675100  0.19463100  1
