# generated using pymatgen
data_AcTh
_symmetry_space_group_name_H-M   'P 1'
_cell_length_a   4.41465330
_cell_length_b   4.41465330
_cell_length_c   8.43981457
_cell_angle_alpha   104.47938538
_cell_angle_beta   104.47938538
_cell_angle_gamma   90.28520966
_symmetry_Int_Tables_number   1
_chemical_formula_structural   AcTh
_chemical_formula_sum   'Ac1 Th1'
_cell_volume   153.80186755
_cell_formula_units_Z   1
loop_
 _symmetry_equiv_pos_site_id
 _symmetry_equiv_pos_as_xyz
  1  'x, y, z'
loop_
 _atom_site_type_symbol
 _atom_site_label
 _atom_site_symmetry_multiplicity
 _atom_site_fract_x
 _atom_site_fract_y
 _atom_site_fract_z
 _atom_site_occupancy
  Ac  Ac0  1  0.63618299  0.36381699  0.75000006  1
  Th  Th1  1  0.36381700  0.63618299  0.25000004  1
