# generated using pymatgen
data_CeGe2
_symmetry_space_group_name_H-M   'P 1'
_cell_length_a   4.30541086
_cell_length_b   6.84854221
_cell_length_c   7.62765217
_cell_angle_alpha   90.00000000
_cell_angle_beta   90.00000000
_cell_angle_gamma   90.00000000
_symmetry_Int_Tables_number   1
_chemical_formula_structural   CeGe2
_chemical_formula_sum   'Ce4 Ge8'
_cell_volume   224.90733503
_cell_formula_units_Z   4
loop_
 _symmetry_equiv_pos_site_id
 _symmetry_equiv_pos_as_xyz
  1  'x, y, z'
loop_
 _atom_site_type_symbol
 _atom_site_label
 _atom_site_symmetry_multiplicity
 _atom_site_fract_x
 _atom_site_fract_y
 _atom_site_fract_z
 _atom_site_occupancy
  Ce  Ce0  1  0.25000001  0.00568500  0.30642299  1
  Ce  Ce1  1  0.25000001  0.50568498  0.19357700  1
  Ce  Ce2  1  0.75000002  0.99431497  0.69357698  1
  Ce  Ce3  1  0.75000002  0.49431498  0.80642298  1
  Ge  Ge4  1  0.25000001  0.28931599  0.60953699  1
  Ge  Ge5  1  0.25000001  0.78931598  0.89046298  1
  Ge  Ge6  1  0.75000002  0.71068398  0.39046299  1
  Ge  Ge7  1  0.75000002  0.21068399  0.10953700  1
  Ge  Ge8  1  0.25000001  0.15944700  0.93428398  1
  Ge  Ge9  1  0.25000001  0.65944698  0.56571599  1
  Ge  Ge10  1  0.75000002  0.84055297  0.06571600  1
  Ge  Ge11  1  0.75000002  0.34055299  0.43428399  1
