# generated using pymatgen
data_Ta3Ti2Ni3
_symmetry_space_group_name_H-M   'P 1'
_cell_length_a   4.34966516
_cell_length_b   5.54046011
_cell_length_c   5.54046011
_cell_angle_alpha   120.00000000
_cell_angle_beta   90.00000000
_cell_angle_gamma   90.00000000
_symmetry_Int_Tables_number   1
_chemical_formula_structural   Ta3Ti2Ni3
_chemical_formula_sum   'Ta3 Ti2 Ni3'
_cell_volume   115.63202278
_cell_formula_units_Z   1
loop_
 _symmetry_equiv_pos_site_id
 _symmetry_equiv_pos_as_xyz
  1  'x, y, z'
loop_
 _atom_site_type_symbol
 _atom_site_label
 _atom_site_symmetry_multiplicity
 _atom_site_fract_x
 _atom_site_fract_y
 _atom_site_fract_z
 _atom_site_occupancy
  Ta  Ta0  1  0.24999999  0.84393898  0.68787797  1
  Ta  Ta1  1  0.74999997  0.68787798  0.84393896  1
  Ta  Ta2  1  0.74999997  0.15606100  0.84393897  1
  Ti  Ti3  1  0.24999999  0.84393898  0.15606098  1
  Ti  Ti4  1  0.24999999  0.31212199  0.15606099  1
  Ni  Ni5  1  0.74999997  0.15606100  0.31212199  1
  Ni  Ni6  1  0.74999997  0.66666665  0.33333331  1
  Ni  Ni7  1  0.24999999  0.33333333  0.66666664  1
