# generated using pymatgen
data_Ce2GaPd5
_symmetry_space_group_name_H-M   'P 1'
_cell_length_a   4.46489191
_cell_length_b   4.46489191
_cell_length_c   8.69577408
_cell_angle_alpha   90.00000000
_cell_angle_beta   90.00000000
_cell_angle_gamma   120.00000000
_symmetry_Int_Tables_number   1
_chemical_formula_structural   Ce2GaPd5
_chemical_formula_sum   'Ce2 Ga1 Pd5'
_cell_volume   150.12768195
_cell_formula_units_Z   1
loop_
 _symmetry_equiv_pos_site_id
 _symmetry_equiv_pos_as_xyz
  1  'x, y, z'
loop_
 _atom_site_type_symbol
 _atom_site_label
 _atom_site_symmetry_multiplicity
 _atom_site_fract_x
 _atom_site_fract_y
 _atom_site_fract_z
 _atom_site_occupancy
  Ce  Ce0  1  0.33333335  0.66666670  0.74999999  1
  Ce  Ce1  1  0.66666668  0.33333335  0.25000000  1
  Ga  Ga2  1  0.00000000  0.00000000  0.50000000  1
  Pd  Pd3  1  0.00000000  0.00000000  0.00000000  1
  Pd  Pd4  1  0.66666668  0.33333335  0.58945199  1
  Pd  Pd5  1  0.33333335  0.66666670  0.41054800  1
  Pd  Pd6  1  0.33333335  0.66666670  0.08945200  1
  Pd  Pd7  1  0.66666668  0.33333335  0.91054799  1
