# generated using pymatgen
data_NdY3TlSn2Ge9
_symmetry_space_group_name_H-M   'P 1'
_cell_length_a   4.45106983
_cell_length_b   4.51581907
_cell_length_c   22.62601852
_cell_angle_alpha   90.00000000
_cell_angle_beta   90.00000000
_cell_angle_gamma   90.00000000
_symmetry_Int_Tables_number   1
_chemical_formula_structural   NdY3TlSn2Ge9
_chemical_formula_sum   'Nd1 Y3 Tl1 Sn2 Ge9'
_cell_volume   454.78808674
_cell_formula_units_Z   1
loop_
 _symmetry_equiv_pos_site_id
 _symmetry_equiv_pos_as_xyz
  1  'x, y, z'
loop_
 _atom_site_type_symbol
 _atom_site_label
 _atom_site_symmetry_multiplicity
 _atom_site_fract_x
 _atom_site_fract_y
 _atom_site_fract_z
 _atom_site_occupancy
  Tl  Tl0  1  0.25000001  0.72503099  0.11885900  1
  Y  Y1  1  0.75000003  0.27496900  0.88114102  1
  Y  Y2  1  0.75000003  0.22503100  0.38114101  1
  Nd  Nd3  1  0.25000001  0.77496899  0.61885901  1
  Sn  Sn4  1  0.25000001  0.22342100  0.25005801  1
  Y  Y5  1  0.75000003  0.77657899  0.74994202  1
  Ge  Ge6  1  0.75000003  0.72342099  0.24994201  1
  Sn  Sn7  1  0.25000001  0.27657900  0.75005802  1
  Ge  Ge8  1  0.25000001  0.72553599  0.31915701  1
  Ge  Ge9  1  0.75000003  0.27446400  0.68084301  1
  Ge  Ge10  1  0.75000003  0.22553600  0.18084300  1
  Ge  Ge11  1  0.25000001  0.77446399  0.81915702  1
  Ge  Ge12  1  0.25000001  0.21469300  0.00162200  1
  Ge  Ge13  1  0.75000003  0.78530699  0.99837802  1
  Ge  Ge14  1  0.75000003  0.71469299  0.49837801  1
  Ge  Ge15  1  0.25000001  0.28530700  0.50162201  1
