# generated using pymatgen
data_Nd4Ge9
_symmetry_space_group_name_H-M   'P 1'
_cell_length_a   3.95162511
_cell_length_b   4.13739109
_cell_length_c   15.71822262
_cell_angle_alpha   90.00000000
_cell_angle_beta   90.00000000
_cell_angle_gamma   90.00000000
_symmetry_Int_Tables_number   1
_chemical_formula_structural   Nd4Ge9
_chemical_formula_sum   'Nd4 Ge9'
_cell_volume   256.98379993
_cell_formula_units_Z   1
loop_
 _symmetry_equiv_pos_site_id
 _symmetry_equiv_pos_as_xyz
  1  'x, y, z'
loop_
 _atom_site_type_symbol
 _atom_site_label
 _atom_site_symmetry_multiplicity
 _atom_site_fract_x
 _atom_site_fract_y
 _atom_site_fract_z
 _atom_site_occupancy
  Nd  Nd0  1  0.24999999  0.00000000  0.09993300  1
  Nd  Nd1  1  0.24999999  0.49999999  0.60778701  1
  Nd  Nd2  1  0.74999998  0.49999999  0.39921501  1
  Nd  Nd3  1  0.74999998  0.00000000  0.89615502  1
  Ge  Ge4  1  0.24999999  0.00000000  0.31109101  1
  Ge  Ge5  1  0.24999999  0.00000000  0.46044401  1
  Ge  Ge6  1  0.24999999  0.49999999  0.94439902  1
  Ge  Ge7  1  0.74999998  0.49999999  0.05587600  1
  Ge  Ge8  1  0.74999998  0.00000000  0.56735001  1
  Ge  Ge9  1  0.24999999  0.49999999  0.23934501  1
  Ge  Ge10  1  0.24999999  0.00000000  0.74914402  1
  Ge  Ge11  1  0.74999998  0.00000000  0.23347801  1
  Ge  Ge12  1  0.74999998  0.49999999  0.75378402  1
