# generated using pymatgen
data_Ce2MgInSn9Ge
_symmetry_space_group_name_H-M   'P 1'
_cell_length_a   4.49221277
_cell_length_b   4.49221277
_cell_length_c   21.26251030
_cell_angle_alpha   90.00000000
_cell_angle_beta   90.00000000
_cell_angle_gamma   90.00000000
_symmetry_Int_Tables_number   1
_chemical_formula_structural   Ce2MgInSn9Ge
_chemical_formula_sum   'Ce2 Mg1 In1 Sn9 Ge1'
_cell_volume   429.07693888
_cell_formula_units_Z   1
loop_
 _symmetry_equiv_pos_site_id
 _symmetry_equiv_pos_as_xyz
  1  'x, y, z'
loop_
 _atom_site_type_symbol
 _atom_site_label
 _atom_site_symmetry_multiplicity
 _atom_site_fract_x
 _atom_site_fract_y
 _atom_site_fract_z
 _atom_site_occupancy
  Ce  Ce0  1  -0.00000000  0.50000003  0.13798300  1
  Ce  Ce1  1  0.50000003  0.00000000  0.86201703  1
  Mg  Mg2  1  -0.00000000  0.50000003  0.60230902  1
  In  In3  1  0.50000003  0.00000000  0.39769101  1
  Sn  Sn4  1  0.00000000  0.00000000  0.00000000  1
  Sn  Sn5  1  0.50000003  0.50000003  -0.00000000  1
  Sn  Sn6  1  0.00000000  0.00000000  0.72209302  1
  Sn  Sn7  1  0.50000003  0.50000003  0.27790701  1
  Sn  Sn8  1  -0.00000000  0.50000003  0.44181901  1
  Sn  Sn9  1  0.50000003  0.00000000  0.55818102  1
  Sn  Sn10  1  -0.00000000  0.50000003  0.93001203  1
  Ge  Ge11  1  0.50000003  0.00000000  0.06998800  1
  Sn  Sn12  1  0.00000000  0.00000000  0.27790701  1
  Sn  Sn13  1  0.50000003  0.50000003  0.72209302  1
