# generated using pymatgen
data_CsRb3
_symmetry_space_group_name_H-M   'P 1'
_cell_length_a   5.44396400
_cell_length_b   8.23774147
_cell_length_c   10.36718464
_cell_angle_alpha   90.00000000
_cell_angle_beta   90.00000000
_cell_angle_gamma   90.00000000
_symmetry_Int_Tables_number   1
_chemical_formula_structural   CsRb3
_chemical_formula_sum   'Cs1 Rb3'
_cell_volume   464.92643102
_cell_formula_units_Z   1
loop_
 _symmetry_equiv_pos_site_id
 _symmetry_equiv_pos_as_xyz
  1  'x, y, z'
loop_
 _atom_site_type_symbol
 _atom_site_label
 _atom_site_symmetry_multiplicity
 _atom_site_fract_x
 _atom_site_fract_y
 _atom_site_fract_z
 _atom_site_occupancy
  Rb  Rb0  1  0.83923100  0.74999996  0.86811303  1
  Rb  Rb1  1  0.66076900  0.74999996  0.36811301  1
  Cs  Cs2  1  0.16076900  0.24999999  0.13188700  1
  Rb  Rb3  1  0.33923100  0.24999999  0.63188702  1
