# generated using pymatgen
data_Se
_symmetry_space_group_name_H-M   'P 1'
_cell_length_a   3.49796605
_cell_length_b   3.49796557
_cell_length_c   39.67822266
_cell_angle_alpha   90.00000000
_cell_angle_beta   90.00000000
_cell_angle_gamma   120.00000000
_symmetry_Int_Tables_number   1
_chemical_formula_structural   Se
_chemical_formula_sum   Se12
_cell_volume   420.44961878
_cell_formula_units_Z   12
loop_
 _symmetry_equiv_pos_site_id
 _symmetry_equiv_pos_as_xyz
  1  'x, y, z'
loop_
 _atom_site_type_symbol
 _atom_site_label
 _atom_site_symmetry_multiplicity
 _atom_site_fract_x
 _atom_site_fract_y
 _atom_site_fract_z
 _atom_site_occupancy
  Se  Se0  1  0.66666663  0.33333333  0.67203701  1
  Se  Se1  1  0.66666663  0.33333333  0.29601500  1
  Se  Se2  1  0.33333328  0.66666666  0.57679100  1
  Se  Se3  1  0.33333328  0.66666666  0.48388800  1
  Se  Se4  1  0.66666663  0.33333333  0.76438401  1
  Se  Se5  1  0.66666663  0.33333333  0.38892000  1
  Se  Se6  1  0.33333328  0.66666666  0.71822401  1
  Se  Se7  1  0.66666663  0.33333333  0.90608501  1
  Se  Se8  1  0.66666663  0.33333333  0.53034100  1
  Se  Se9  1  0.33333328  0.66666666  0.34245000  1
  Se  Se10  1  0.33333328  0.66666666  0.94697101  1
  Se  Se11  1  0.33333328  0.66666666  0.86514701  1
