# generated using pymatgen
data_CeFe(BC)2
_symmetry_space_group_name_H-M   'P 1'
_cell_length_a   3.67685294
_cell_length_b   3.67685294
_cell_length_c   6.28344107
_cell_angle_alpha   90.00000000
_cell_angle_beta   90.00000000
_cell_angle_gamma   90.00000000
_symmetry_Int_Tables_number   1
_chemical_formula_structural   CeFe(BC)2
_chemical_formula_sum   'Ce1 Fe1 B2 C2'
_cell_volume   84.94739527
_cell_formula_units_Z   1
loop_
 _symmetry_equiv_pos_site_id
 _symmetry_equiv_pos_as_xyz
  1  'x, y, z'
loop_
 _atom_site_type_symbol
 _atom_site_label
 _atom_site_symmetry_multiplicity
 _atom_site_fract_x
 _atom_site_fract_y
 _atom_site_fract_z
 _atom_site_occupancy
  Ce  Ce0  1  0.00000000  0.00000000  0.00000000  1
  Fe  Fe1  1  0.50000001  0.50000001  0.49999999  1
  B  B2  1  0.50000001  0.50000001  0.78503199  1
  B  B3  1  0.50000001  0.50000001  0.21496800  1
  C  C4  1  0.50000001  0.00000000  0.49999999  1
  C  C5  1  -0.00000000  0.50000001  0.49999999  1
