# generated using pymatgen
data_TmNbFe10
_symmetry_space_group_name_H-M   'P 1'
_cell_length_a   4.86891413
_cell_length_b   4.86891460
_cell_length_c   8.12078285
_cell_angle_alpha   90.00000000
_cell_angle_beta   90.00000000
_cell_angle_gamma   119.99999237
_symmetry_Int_Tables_number   1
_chemical_formula_structural   TmNbFe10
_chemical_formula_sum   'Tm1 Nb1 Fe10'
_cell_volume   166.72197077
_cell_formula_units_Z   1
loop_
 _symmetry_equiv_pos_site_id
 _symmetry_equiv_pos_as_xyz
  1  'x, y, z'
loop_
 _atom_site_type_symbol
 _atom_site_label
 _atom_site_symmetry_multiplicity
 _atom_site_fract_x
 _atom_site_fract_y
 _atom_site_fract_z
 _atom_site_occupancy
  Fe  Fe0  1  0.33333328  0.66666666  0.55833601  1
  Tm  Tm1  1  0.33333328  0.66666666  0.93469002  1
  Nb  Nb2  1  0.00000000  0.00000000  0.07658100  1
  Fe  Fe3  1  0.66666663  0.33333333  0.49746201  1
  Fe  Fe4  1  0.66666663  0.33333333  0.99495002  1
  Fe  Fe5  1  0.49561896  0.50438099  0.25477900  1
  Fe  Fe6  1  0.49561893  0.99123799  0.25477900  1
  Fe  Fe7  1  0.00876197  0.50438099  0.25477900  1
  Fe  Fe8  1  0.84002597  0.15997300  0.74578201  1
  Fe  Fe9  1  0.84002594  0.68005199  0.74578201  1
  Fe  Fe10  1  0.31994698  0.15997300  0.74578201  1
  Fe  Fe11  1  0.00000000  0.00000000  0.43628101  1
