# generated using pymatgen
data_K5BiO4
_symmetry_space_group_name_H-M   'P 1'
_cell_length_a   4.91261387
_cell_length_b   7.02294445
_cell_length_c   7.16907310
_cell_angle_alpha   90.00000000
_cell_angle_beta   90.00000000
_cell_angle_gamma   90.66257477
_symmetry_Int_Tables_number   1
_chemical_formula_structural   K5BiO4
_chemical_formula_sum   'K5 Bi1 O4'
_cell_volume   247.32375569
_cell_formula_units_Z   1
loop_
 _symmetry_equiv_pos_site_id
 _symmetry_equiv_pos_as_xyz
  1  'x, y, z'
loop_
 _atom_site_type_symbol
 _atom_site_label
 _atom_site_symmetry_multiplicity
 _atom_site_fract_x
 _atom_site_fract_y
 _atom_site_fract_z
 _atom_site_occupancy
  K  K0  1  0.61865205  0.49079301  0.26325200  1
  K  K1  1  0.48301102  0.06629800  0.30904900  1
  K  K2  1  0.51698907  0.93370202  0.80904899  1
  K  K3  1  0.38134804  0.50920701  0.76325199  1
  K  K4  1  0.99397108  0.82356702  0.42304599  1
  Bi  Bi5  1  0.00602901  0.17643300  0.92304599  1
  O  O6  1  0.49134406  0.75435701  0.49935999  1
  O  O7  1  0.50865603  0.24564300  0.99935999  1
  O  O8  1  0.99105407  0.73040101  0.00529400  1
  O  O9  1  0.00894602  0.26959901  0.50529399  1
