# generated using pymatgen
data_Ti2Ni17
_symmetry_space_group_name_H-M   'P 1'
_cell_length_a   5.54441118
_cell_length_b   5.54441118
_cell_length_c   5.54441118
_cell_angle_alpha   82.84412384
_cell_angle_beta   82.84412384
_cell_angle_gamma   82.84412384
_symmetry_Int_Tables_number   1
_chemical_formula_structural   Ti2Ni17
_chemical_formula_sum   'Ti2 Ni17'
_cell_volume   166.76058105
_cell_formula_units_Z   1
loop_
 _symmetry_equiv_pos_site_id
 _symmetry_equiv_pos_as_xyz
  1  'x, y, z'
loop_
 _atom_site_type_symbol
 _atom_site_label
 _atom_site_symmetry_multiplicity
 _atom_site_fract_x
 _atom_site_fract_y
 _atom_site_fract_z
 _atom_site_occupancy
  Ti  Ti0  1  0.83616098  0.83616099  0.83616104  1
  Ti  Ti1  1  0.16383900  0.16383900  0.16383901  1
  Ni  Ni2  1  0.59898699  0.59898699  0.59898703  1
  Ni  Ni3  1  0.40101299  0.40101299  0.40101302  1
  Ni  Ni4  1  0.49999999  0.49999999  1.00000004  1
  Ni  Ni5  1  -0.00000000  0.49999999  0.50000002  1
  Ni  Ni6  1  0.49999999  0.00000000  0.50000002  1
  Ni  Ni7  1  0.20480599  0.49999999  0.79519403  1
  Ni  Ni8  1  0.79519399  0.20480600  0.50000002  1
  Ni  Ni9  1  0.49999999  0.79519399  0.20480601  1
  Ni  Ni10  1  0.79519399  0.49999999  0.20480601  1
  Ni  Ni11  1  0.20480599  0.79519399  0.50000002  1
  Ni  Ni12  1  0.49999999  0.20480600  0.79519403  1
  Ni  Ni13  1  0.84640899  0.33981900  0.84640903  1
  Ni  Ni14  1  0.84640898  0.84640899  0.33981902  1
  Ni  Ni15  1  0.33981899  0.84640899  0.84640903  1
  Ni  Ni16  1  0.66018099  0.15359100  0.15359101  1
  Ni  Ni17  1  0.15359099  0.66018099  0.15359101  1
  Ni  Ni18  1  0.15359100  0.15359100  0.66018102  1
