# generated using pymatgen
data_UGe2
_symmetry_space_group_name_H-M   'P 1'
_cell_length_a   3.73175693
_cell_length_b   6.63684988
_cell_length_c   6.63684940
_cell_angle_alpha   120.00000000
_cell_angle_beta   90.00000000
_cell_angle_gamma   90.00000000
_symmetry_Int_Tables_number   1
_chemical_formula_structural   UGe2
_chemical_formula_sum   'U3 Ge6'
_cell_volume   142.35343027
_cell_formula_units_Z   3
loop_
 _symmetry_equiv_pos_site_id
 _symmetry_equiv_pos_as_xyz
  1  'x, y, z'
loop_
 _atom_site_type_symbol
 _atom_site_label
 _atom_site_symmetry_multiplicity
 _atom_site_fract_x
 _atom_site_fract_y
 _atom_site_fract_z
 _atom_site_occupancy
  U  U0  1  0.50000001  0.58566599  -0.00000004  1
  U  U1  1  0.50000001  0.41433399  0.41433397  1
  U  U2  1  0.50000001  0.00000000  0.58566600  1
  Ge  Ge3  1  1.00000002  0.33333333  0.66666665  1
  Ge  Ge4  1  -0.00000000  0.66666666  0.33333329  1
  Ge  Ge5  1  0.50000001  0.00000000  -0.00000000  1
  Ge  Ge6  1  -0.00000000  0.24698800  -0.00000002  1
  Ge  Ge7  1  1.00000002  0.75301199  0.75301195  1
  Ge  Ge8  1  0.00000000  0.00000000  0.24698800  1
