# generated using pymatgen
data_Li4Mn3O
_symmetry_space_group_name_H-M   'P 1'
_cell_length_a   3.97122550
_cell_length_b   3.97122550
_cell_length_c   6.86350870
_cell_angle_alpha   73.18395233
_cell_angle_beta   73.18395233
_cell_angle_gamma   60.00000763
_symmetry_Int_Tables_number   1
_chemical_formula_structural   Li4Mn3O
_chemical_formula_sum   'Li4 Mn3 O1'
_cell_volume   88.35518389
_cell_formula_units_Z   1
loop_
 _symmetry_equiv_pos_site_id
 _symmetry_equiv_pos_as_xyz
  1  'x, y, z'
loop_
 _atom_site_type_symbol
 _atom_site_label
 _atom_site_symmetry_multiplicity
 _atom_site_fract_x
 _atom_site_fract_y
 _atom_site_fract_z
 _atom_site_occupancy
  Li  Li0  1  0.00000000  0.00000000  0.00000000  1
  Li  Li1  1  0.50000001  0.50000001  0.49999996  1
  Li  Li2  1  0.62298701  0.62298701  0.13103896  1
  Li  Li3  1  0.12662100  0.12662100  0.62013699  1
  Mn  Mn4  1  0.87337901  0.87337901  0.37986294  1
  O  O5  1  0.37701300  0.37701300  0.86896097  1
  Mn  Mn6  1  0.25160600  0.25160600  0.24518198  1
  Mn  Mn7  1  0.74839401  0.74839401  0.75481794  1
