# generated using pymatgen
data_Dy2ErSn5
_symmetry_space_group_name_H-M   'P 1'
_cell_length_a   5.17302418
_cell_length_b   6.62749815
_cell_length_c   6.62749767
_cell_angle_alpha   120.00000000
_cell_angle_beta   90.00000000
_cell_angle_gamma   90.00000000
_symmetry_Int_Tables_number   1
_chemical_formula_structural   Dy2ErSn5
_chemical_formula_sum   'Dy2 Er1 Sn5'
_cell_volume   196.77700173
_cell_formula_units_Z   1
loop_
 _symmetry_equiv_pos_site_id
 _symmetry_equiv_pos_as_xyz
  1  'x, y, z'
loop_
 _atom_site_type_symbol
 _atom_site_label
 _atom_site_symmetry_multiplicity
 _atom_site_fract_x
 _atom_site_fract_y
 _atom_site_fract_z
 _atom_site_occupancy
  Dy  Dy0  1  0.74999997  0.33333332  0.66666663  1
  Dy  Dy1  1  0.24999999  0.66666663  0.33333329  1
  Er  Er2  1  0.74999997  0.83608596  0.16391295  1
  Sn  Sn3  1  0.74999997  0.83608596  0.67217193  1
  Sn  Sn4  1  0.74999997  0.32782698  0.16391298  1
  Sn  Sn5  1  0.24999999  0.67217297  0.83608693  1
  Sn  Sn6  1  0.24999999  0.16391399  0.32782798  1
  Sn  Sn7  1  0.24999999  0.16391399  0.83608696  1
