# generated using pymatgen
data_Li5VO8
_symmetry_space_group_name_H-M   'P 1'
_cell_length_a   5.81422901
_cell_length_b   5.81422901
_cell_length_c   5.93003464
_cell_angle_alpha   61.08891678
_cell_angle_beta   61.08891678
_cell_angle_gamma   60.16810226
_symmetry_Int_Tables_number   1
_chemical_formula_structural   Li5VO8
_chemical_formula_sum   'Li5 V1 O8'
_cell_volume   144.22746262
_cell_formula_units_Z   1
loop_
 _symmetry_equiv_pos_site_id
 _symmetry_equiv_pos_as_xyz
  1  'x, y, z'
loop_
 _atom_site_type_symbol
 _atom_site_label
 _atom_site_symmetry_multiplicity
 _atom_site_fract_x
 _atom_site_fract_y
 _atom_site_fract_z
 _atom_site_occupancy
  Li  Li0  1  0.00000000  0.00000000  0.50000002  1
  Li  Li1  1  0.50000000  0.50000001  0.50000002  1
  Li  Li2  1  -0.00000000  0.50000001  -0.00000000  1
  Li  Li3  1  0.50000000  0.50000001  -0.00000000  1
  Li  Li4  1  0.50000001  0.00000000  1.00000004  1
  V  V5  1  0.00000000  0.00000000  0.00000000  1
  O  O6  1  0.75559601  0.28305600  0.21308500  1
  O  O7  1  0.28305600  0.75559601  0.21308500  1
  O  O8  1  0.75446100  0.75446101  0.20586200  1
  O  O9  1  0.26383500  0.26383500  0.20610401  1
  O  O10  1  0.73616500  0.73616501  0.79389603  1
  O  O11  1  0.24553900  0.24553900  0.79413803  1
  O  O12  1  0.71694401  0.24440400  0.78691503  1
  O  O13  1  0.24440400  0.71694401  0.78691503  1
