# generated using pymatgen
data_Li2VNi9
_symmetry_space_group_name_H-M   'P 1'
_cell_length_a   4.56491995
_cell_length_b   4.56491995
_cell_length_c   7.46210432
_cell_angle_alpha   72.18927765
_cell_angle_beta   72.18927765
_cell_angle_gamma   60.00000000
_symmetry_Int_Tables_number   1
_chemical_formula_structural   Li2VNi9
_chemical_formula_sum   'Li2 V1 Ni9'
_cell_volume   125.98697088
_cell_formula_units_Z   1
loop_
 _symmetry_equiv_pos_site_id
 _symmetry_equiv_pos_as_xyz
  1  'x, y, z'
loop_
 _atom_site_type_symbol
 _atom_site_label
 _atom_site_symmetry_multiplicity
 _atom_site_fract_x
 _atom_site_fract_y
 _atom_site_fract_z
 _atom_site_occupancy
  Li  Li0  1  0.86009200  0.86009201  0.41972402  1
  Li  Li1  1  0.13990800  0.13990800  0.58027602  1
  V  V2  1  0.00000000  0.00000000  0.00000000  1
  Ni  Ni3  1  0.92475701  0.41562700  0.24398902  1
  Ni  Ni4  1  0.41562700  0.41562700  0.24398901  1
  Ni  Ni5  1  0.41562700  0.92475701  0.24398902  1
  Ni  Ni6  1  0.07524300  0.58437301  0.75601102  1
  Ni  Ni7  1  0.58437300  0.58437301  0.75601103  1
  Ni  Ni8  1  0.58437301  0.07524300  0.75601102  1
  Ni  Ni9  1  0.66540000  0.66540001  0.00380001  1
  Ni  Ni10  1  0.33460000  0.33460000  0.99620003  1
  Ni  Ni11  1  0.50000000  0.50000001  0.50000002  1
