# generated using pymatgen
data_MgO2
_symmetry_space_group_name_H-M   'P 1'
_cell_length_a   4.66649008
_cell_length_b   4.66648388
_cell_length_c   9.08681393
_cell_angle_alpha   90.00000763
_cell_angle_beta   89.99997711
_cell_angle_gamma   89.99997711
_symmetry_Int_Tables_number   1
_chemical_formula_structural   MgO2
_chemical_formula_sum   'Mg6 O12'
_cell_volume   197.87537530
_cell_formula_units_Z   6
loop_
 _symmetry_equiv_pos_site_id
 _symmetry_equiv_pos_as_xyz
  1  'x, y, z'
loop_
 _atom_site_type_symbol
 _atom_site_label
 _atom_site_symmetry_multiplicity
 _atom_site_fract_x
 _atom_site_fract_y
 _atom_site_fract_z
 _atom_site_occupancy
  Mg  Mg0  1  0.50000001  0.50000001  0.16491002  1
  Mg  Mg1  1  0.00000000  0.00000000  0.33509200  1
  Mg  Mg2  1  0.00000000  0.00000000  0.66491701  1
  Mg  Mg3  1  0.50000001  0.50000001  0.83508202  1
  Mg  Mg4  1  0.00000100  0.00000100  0.99998001  1
  Mg  Mg5  1  0.49999901  0.50000001  0.50001802  1
  O  O6  1  0.70089501  0.70089502  0.00000202  1
  O  O7  1  0.20089402  0.79910602  0.49999802  1
  O  O8  1  0.79910599  0.20089501  0.49999802  1
  O  O9  1  0.29910600  0.29910501  0.00000201  1
  O  O10  1  0.69442801  0.69442902  0.66041303  1
  O  O11  1  0.19442702  0.80557202  0.83958802  1
  O  O12  1  0.19443702  0.80556202  0.16041701  1
  O  O13  1  0.69443601  0.69443702  0.33958302  1
  O  O14  1  0.80557299  0.19442801  0.83958802  1
  O  O15  1  0.30557200  0.30557101  0.66041301  1
  O  O16  1  0.30556400  0.30556301  0.33958301  1
  O  O17  1  0.80556299  0.19443701  0.16041702  1
