# generated using pymatgen
data_HfTi6Nb
_symmetry_space_group_name_H-M   'P 1'
_cell_length_a   4.52159309
_cell_length_b   5.61230421
_cell_length_c   5.61230421
_cell_angle_alpha   60.00000000
_cell_angle_beta   90.00000000
_cell_angle_gamma   90.00000000
_symmetry_Int_Tables_number   1
_chemical_formula_structural   HfTi6Nb
_chemical_formula_sum   'Hf1 Ti6 Nb1'
_cell_volume   123.34016235
_cell_formula_units_Z   1
loop_
 _symmetry_equiv_pos_site_id
 _symmetry_equiv_pos_as_xyz
  1  'x, y, z'
loop_
 _atom_site_type_symbol
 _atom_site_label
 _atom_site_symmetry_multiplicity
 _atom_site_fract_x
 _atom_site_fract_y
 _atom_site_fract_z
 _atom_site_occupancy
  Nb  Nb0  1  0.24999999  0.33333332  0.33333332  1
  Hf  Hf1  1  0.74999998  0.66666665  0.66666665  1
  Ti  Ti2  1  0.74999998  0.66520698  0.16739699  1
  Ti  Ti3  1  0.74999998  0.16739600  0.16739700  1
  Ti  Ti4  1  0.74999998  0.16739600  0.66520799  1
  Ti  Ti5  1  0.24999999  0.33479299  0.83260298  1
  Ti  Ti6  1  0.24999999  0.83260398  0.83260298  1
  Ti  Ti7  1  0.24999999  0.83260398  0.33479198  1
