# generated using pymatgen
data_Li2BeFeN6
_symmetry_space_group_name_H-M   'P 1'
_cell_length_a   5.36399889
_cell_length_b   5.36399889
_cell_length_c   5.36399889
_cell_angle_alpha   60.10166550
_cell_angle_beta   60.10166550
_cell_angle_gamma   60.10166931
_symmetry_Int_Tables_number   1
_chemical_formula_structural   Li2BeFeN6
_chemical_formula_sum   'Li2 Be1 Fe1 N6'
_cell_volume   109.38312133
_cell_formula_units_Z   1
loop_
 _symmetry_equiv_pos_site_id
 _symmetry_equiv_pos_as_xyz
  1  'x, y, z'
loop_
 _atom_site_type_symbol
 _atom_site_label
 _atom_site_symmetry_multiplicity
 _atom_site_fract_x
 _atom_site_fract_y
 _atom_site_fract_z
 _atom_site_occupancy
  Li  Li0  1  0.75000002  0.75000003  0.75000000  1
  Li  Li1  1  0.25000001  0.25000001  0.25000000  1
  Fe  Fe2  1  0.00000000  0.00000000  0.00000000  1
  Be  Be3  1  0.50000001  0.50000002  0.50000000  1
  N  N4  1  0.20600200  0.75000003  0.29399799  1
  N  N5  1  0.75000002  0.29399801  0.20600199  1
  N  N6  1  0.29399801  0.20600201  0.75000001  1
  N  N7  1  0.79399802  0.25000001  0.70600200  1
  N  N8  1  0.70600201  0.79399803  0.24999998  1
  N  N9  1  0.25000000  0.70600202  0.79399801  1
