# generated using pymatgen
data_CeGe3
_symmetry_space_group_name_H-M   'P 1'
_cell_length_a   4.54060888
_cell_length_b   4.54060888
_cell_length_c   6.42513084
_cell_angle_alpha   90.00000000
_cell_angle_beta   90.00000000
_cell_angle_gamma   90.00000000
_symmetry_Int_Tables_number   1
_chemical_formula_structural   CeGe3
_chemical_formula_sum   'Ce1 Ge3'
_cell_volume   132.46775163
_cell_formula_units_Z   1
loop_
 _symmetry_equiv_pos_site_id
 _symmetry_equiv_pos_as_xyz
  1  'x, y, z'
loop_
 _atom_site_type_symbol
 _atom_site_label
 _atom_site_symmetry_multiplicity
 _atom_site_fract_x
 _atom_site_fract_y
 _atom_site_fract_z
 _atom_site_occupancy
  Ge  Ge0  1  0.50000001  0.50000001  0.50000001  1
  Ce  Ce1  1  0.00000000  0.00000000  0.00000000  1
  Ge  Ge2  1  0.00000000  0.50000001  0.27178201  1
  Ge  Ge3  1  0.50000001  0.00000000  0.72821802  1
