# generated using pymatgen
data_MnNi
_symmetry_space_group_name_H-M   'P 1'
_cell_length_a   2.96608806
_cell_length_b   5.57782316
_cell_length_c   10.11295605
_cell_angle_alpha   90.00000000
_cell_angle_beta   90.00000000
_cell_angle_gamma   90.00000000
_symmetry_Int_Tables_number   1
_chemical_formula_structural   MnNi
_chemical_formula_sum   'Mn6 Ni6'
_cell_volume   167.31192701
_cell_formula_units_Z   6
loop_
 _symmetry_equiv_pos_site_id
 _symmetry_equiv_pos_as_xyz
  1  'x, y, z'
loop_
 _atom_site_type_symbol
 _atom_site_label
 _atom_site_symmetry_multiplicity
 _atom_site_fract_x
 _atom_site_fract_y
 _atom_site_fract_z
 _atom_site_occupancy
  Mn  Mn0  1  0.25000000  0.82469098  0.93514600  1
  Mn  Mn1  1  0.25000000  0.32469099  0.56485400  1
  Mn  Mn2  1  0.74999999  0.17530899  0.06485400  1
  Mn  Mn3  1  0.74999999  0.67530898  0.43514600  1
  Mn  Mn4  1  0.25000000  0.85332098  0.21358100  1
  Mn  Mn5  1  0.25000000  0.35332099  0.28641900  1
  Ni  Ni6  1  0.74999999  0.14667900  0.78641900  1
  Ni  Ni7  1  0.74999999  0.64667898  0.71358100  1
  Ni  Ni8  1  0.25000000  0.40231999  0.89817900  1
  Ni  Ni9  1  0.25000000  0.90231997  0.60182100  1
  Ni  Ni10  1  0.74999999  0.59767998  0.10182100  1
  Ni  Ni11  1  0.74999999  0.09768000  0.39817900  1
