# generated using pymatgen
data_NaScZn4
_symmetry_space_group_name_H-M   'P 1'
_cell_length_a   4.44985819
_cell_length_b   5.37392998
_cell_length_c   5.37392998
_cell_angle_alpha   60.00000000
_cell_angle_beta   90.00000000
_cell_angle_gamma   90.00000000
_symmetry_Int_Tables_number   1
_chemical_formula_structural   NaScZn4
_chemical_formula_sum   'Na1 Sc1 Zn4'
_cell_volume   111.29119584
_cell_formula_units_Z   1
loop_
 _symmetry_equiv_pos_site_id
 _symmetry_equiv_pos_as_xyz
  1  'x, y, z'
loop_
 _atom_site_type_symbol
 _atom_site_label
 _atom_site_symmetry_multiplicity
 _atom_site_fract_x
 _atom_site_fract_y
 _atom_site_fract_z
 _atom_site_occupancy
  Na  Na0  1  0.99999996  0.33333334  0.33333334  1
  Sc  Sc1  1  0.00000000  0.00000000  0.00000000  1
  Zn  Zn2  1  0.99999996  0.66666667  0.66666667  1
  Zn  Zn3  1  0.49999998  0.83394901  0.33210200  1
  Zn  Zn4  1  0.49999998  0.33210200  0.83394901  1
  Zn  Zn5  1  0.49999998  0.83394901  0.83394901  1
