# generated using pymatgen
data_Zr2VO4
_symmetry_space_group_name_H-M   'P 1'
_cell_length_a   3.40337396
_cell_length_b   5.96538448
_cell_length_c   6.52278805
_cell_angle_alpha   115.52313232
_cell_angle_beta   105.12248230
_cell_angle_gamma   90.00000000
_symmetry_Int_Tables_number   1
_chemical_formula_structural   Zr2VO4
_chemical_formula_sum   'Zr2 V1 O4'
_cell_volume   114.40212444
_cell_formula_units_Z   1
loop_
 _symmetry_equiv_pos_site_id
 _symmetry_equiv_pos_as_xyz
  1  'x, y, z'
loop_
 _atom_site_type_symbol
 _atom_site_label
 _atom_site_symmetry_multiplicity
 _atom_site_fract_x
 _atom_site_fract_y
 _atom_site_fract_z
 _atom_site_occupancy
  V  V0  1  0.24335899  0.20889500  0.48671798  1
  Zr  Zr1  1  0.76003395  0.79158400  0.52006794  1
  Zr  Zr2  1  0.49540497  0.49857100  0.99080996  1
  O  O3  1  0.86689596  0.53111700  0.73379195  1
  O  O4  1  0.13246197  0.48059800  0.26492397  1
  O  O5  1  0.38574200  0.04729900  0.77148399  1
  O  O6  1  0.61610094  0.94193600  0.23220194  1
