# generated using pymatgen
data_Ce3(AlSi3)2
_symmetry_space_group_name_H-M   'P 1'
_cell_length_a   4.47875786
_cell_length_b   6.96368980
_cell_length_c   8.45984077
_cell_angle_alpha   114.30371094
_cell_angle_beta   105.34954071
_cell_angle_gamma   90.00000000
_symmetry_Int_Tables_number   1
_chemical_formula_structural   Ce3(AlSi3)2
_chemical_formula_sum   'Ce3 Al2 Si6'
_cell_volume   230.10154113
_cell_formula_units_Z   1
loop_
 _symmetry_equiv_pos_site_id
 _symmetry_equiv_pos_as_xyz
  1  'x, y, z'
loop_
 _atom_site_type_symbol
 _atom_site_label
 _atom_site_symmetry_multiplicity
 _atom_site_fract_x
 _atom_site_fract_y
 _atom_site_fract_z
 _atom_site_occupancy
  Ce  Ce0  1  0.13149999  0.63150003  0.26300001  1
  Ce  Ce1  1  0.00000000  0.00000000  0.00000000  1
  Ce  Ce2  1  0.86850001  0.36850002  0.73699998  1
  Al  Al3  1  0.32965401  0.01773000  0.65930798  1
  Si  Si4  1  0.67034501  0.35842102  0.34069099  1
  Al  Al5  1  0.32965500  0.64157903  0.65930900  1
  Si  Si6  1  0.67034600  0.98227004  0.34069201  1
  Si  Si7  1  0.50000001  0.29707701  -0.00000000  1
  Si  Si8  1  0.50000000  0.70292303  0.00000001  1
  Si  Si9  1  0.21615700  0.21615701  0.43231400  1
  Si  Si10  1  0.78384301  0.78384303  0.56768600  1
