# generated using pymatgen
data_Mg2P2O7
_symmetry_space_group_name_H-M   'P 1'
_cell_length_a   4.77438402
_cell_length_b   5.65667343
_cell_length_c   5.65667343
_cell_angle_alpha   74.62876892
_cell_angle_beta   82.70917511
_cell_angle_gamma   97.29082489
_symmetry_Int_Tables_number   1
_chemical_formula_structural   Mg2P2O7
_chemical_formula_sum   'Mg2 P2 O7'
_cell_volume   144.04151379
_cell_formula_units_Z   1
loop_
 _symmetry_equiv_pos_site_id
 _symmetry_equiv_pos_as_xyz
  1  'x, y, z'
loop_
 _atom_site_type_symbol
 _atom_site_label
 _atom_site_symmetry_multiplicity
 _atom_site_fract_x
 _atom_site_fract_y
 _atom_site_fract_z
 _atom_site_occupancy
  Mg  Mg0  1  1.00000002  0.30803999  0.30804005  1
  Mg  Mg1  1  0.99999999  0.69195999  0.69196006  1
  P  P2  1  0.58964696  0.78123199  0.21876805  1
  P  P3  1  0.41035300  0.21876800  0.78123202  1
  O  O4  1  0.21895398  0.38539199  0.91516102  1
  O  O5  1  0.78104596  0.91516098  0.38539206  1
  O  O6  1  0.78104598  0.61460799  0.08483905  1
  O  O7  1  0.21895400  0.08483900  0.61460801  1
  O  O8  1  0.50000002  0.00000000  0.00000002  1
  O  O9  1  0.71425000  0.38299399  0.61700604  1
  O  O10  1  0.28574997  0.61700599  0.38299403  1
