# generated using pymatgen
data_Mg3AlSi7
_symmetry_space_group_name_H-M   'P 1'
_cell_length_a   4.25366211
_cell_length_b   4.25366211
_cell_length_c   11.06751633
_cell_angle_alpha   90.00000000
_cell_angle_beta   90.00000000
_cell_angle_gamma   90.00000000
_symmetry_Int_Tables_number   1
_chemical_formula_structural   Mg3AlSi7
_chemical_formula_sum   'Mg3 Al1 Si7'
_cell_volume   200.25167095
_cell_formula_units_Z   1
loop_
 _symmetry_equiv_pos_site_id
 _symmetry_equiv_pos_as_xyz
  1  'x, y, z'
loop_
 _atom_site_type_symbol
 _atom_site_label
 _atom_site_symmetry_multiplicity
 _atom_site_fract_x
 _atom_site_fract_y
 _atom_site_fract_z
 _atom_site_occupancy
  Mg  Mg0  1  0.00000000  0.00000000  0.69508298  1
  Mg  Mg1  1  0.00000000  0.00000000  0.30491699  1
  Mg  Mg2  1  0.49999999  0.00000000  0.88493397  1
  Al  Al3  1  0.00000000  0.49999999  0.88493397  1
  Si  Si4  1  0.49999999  0.00000000  0.11506600  1
  Si  Si5  1  0.00000000  0.49999999  0.11506600  1
  Si  Si6  1  0.49999999  0.00000000  0.49999999  1
  Si  Si7  1  0.00000000  0.49999999  0.49999999  1
  Si  Si8  1  0.49999999  0.49999999  0.70058098  1
  Si  Si9  1  0.49999999  0.49999999  0.29941899  1
  Si  Si10  1  0.00000000  0.00000000  0.00000000  1
