# generated using pymatgen
data_Ce2Pd3
_symmetry_space_group_name_H-M   'P 1'
_cell_length_a   5.83630753
_cell_length_b   5.83630753
_cell_length_c   6.92884016
_cell_angle_alpha   90.00000000
_cell_angle_beta   90.00000000
_cell_angle_gamma   118.49661255
_symmetry_Int_Tables_number   1
_chemical_formula_structural   Ce2Pd3
_chemical_formula_sum   'Ce4 Pd6'
_cell_volume   207.41937593
_cell_formula_units_Z   2
loop_
 _symmetry_equiv_pos_site_id
 _symmetry_equiv_pos_as_xyz
  1  'x, y, z'
loop_
 _atom_site_type_symbol
 _atom_site_label
 _atom_site_symmetry_multiplicity
 _atom_site_fract_x
 _atom_site_fract_y
 _atom_site_fract_z
 _atom_site_occupancy
  Ce  Ce0  1  0.66060401  0.33939601  0.91942798  1
  Ce  Ce1  1  0.33939600  0.66060401  0.08057200  1
  Ce  Ce2  1  0.83939602  0.16060400  0.41942799  1
  Ce  Ce3  1  0.16060400  0.83939601  0.58057199  1
  Pd  Pd4  1  0.00000000  0.00000000  0.00000000  1
  Pd  Pd5  1  0.50000001  0.50000001  0.49999999  1
  Pd  Pd6  1  0.63173901  0.86826101  0.74999998  1
  Pd  Pd7  1  0.86826101  0.63173901  0.24999999  1
  Pd  Pd8  1  0.36826101  0.13173900  0.24999999  1
  Pd  Pd9  1  0.13173900  0.36826101  0.74999998  1
