# generated using pymatgen
data_LiVGa2Cu(NiTe2)3
_symmetry_space_group_name_H-M   'P 1'
_cell_length_a   7.79855347
_cell_length_b   7.79855347
_cell_length_c   7.79855347
_cell_angle_alpha   60.00000000
_cell_angle_beta   60.00000000
_cell_angle_gamma   60.00000000
_symmetry_Int_Tables_number   1
_chemical_formula_structural   LiVGa2Cu(NiTe2)3
_chemical_formula_sum   'Li1 V1 Ga2 Cu1 Ni3 Te6'
_cell_volume   335.37228064
_cell_formula_units_Z   1
loop_
 _symmetry_equiv_pos_site_id
 _symmetry_equiv_pos_as_xyz
  1  'x, y, z'
loop_
 _atom_site_type_symbol
 _atom_site_label
 _atom_site_symmetry_multiplicity
 _atom_site_fract_x
 _atom_site_fract_y
 _atom_site_fract_z
 _atom_site_occupancy
  Li  Li0  1  0.50000000  0.50000000  0.50000000  1
  V  V1  1  0.25000000  0.25000000  0.25000000  1
  Ga  Ga2  1  0.87499999  0.37500000  0.87499999  1
  Ga  Ga3  1  0.37500000  0.87499999  0.87499999  1
  Ni  Ni4  1  0.87499999  0.87499999  0.87499999  1
  Ni  Ni5  1  0.87499999  0.87499999  0.37500000  1
  Cu  Cu6  1  0.11517000  0.65448800  0.11517100  1
  Ni  Ni7  1  0.11517000  0.11517100  0.65448800  1
  Te  Te8  1  0.11517000  0.11517100  0.11517100  1
  Te  Te9  1  0.09551300  0.63482900  0.63482900  1
  Te  Te10  1  0.65448700  0.11517100  0.11517100  1
  Te  Te11  1  0.63483000  0.63482900  0.09551200  1
  Te  Te12  1  0.63483000  0.63482900  0.63482900  1
  Te  Te13  1  0.63483000  0.09551200  0.63482900  1
