# generated using pymatgen
data_Ce3AlP8
_symmetry_space_group_name_H-M   'P 1'
_cell_length_a   4.01019192
_cell_length_b   6.43904209
_cell_length_c   6.95292091
_cell_angle_alpha   90.00000000
_cell_angle_beta   90.00000000
_cell_angle_gamma   90.00000000
_symmetry_Int_Tables_number   1
_chemical_formula_structural   Ce3AlP8
_chemical_formula_sum   'Ce3 Al1 P8'
_cell_volume   179.53689536
_cell_formula_units_Z   1
loop_
 _symmetry_equiv_pos_site_id
 _symmetry_equiv_pos_as_xyz
  1  'x, y, z'
loop_
 _atom_site_type_symbol
 _atom_site_label
 _atom_site_symmetry_multiplicity
 _atom_site_fract_x
 _atom_site_fract_y
 _atom_site_fract_z
 _atom_site_occupancy
  Ce  Ce0  1  0.75000002  0.00756900  0.20152400  1
  Ce  Ce1  1  0.25000001  0.99243099  0.79847601  1
  Ce  Ce2  1  0.75000002  0.50756899  0.29847600  1
  Al  Al3  1  0.25000001  0.49243099  0.70152401  1
  P  P4  1  0.25000001  0.29984200  0.09580000  1
  P  P5  1  0.75000002  0.70015799  0.90420001  1
  P  P6  1  0.25000001  0.79984199  0.40420001  1
  P  P7  1  0.75000002  0.20015800  0.59580001  1
  P  P8  1  0.25000001  0.68139599  0.07723800  1
  P  P9  1  0.75000002  0.31860400  0.92276201  1
  P  P10  1  0.25000001  0.18139600  0.42276201  1
  P  P11  1  0.75000002  0.81860399  0.57723801  1
