# generated using pymatgen
data_Li2PO3
_symmetry_space_group_name_H-M   'P 1'
_cell_length_a   2.83870506
_cell_length_b   4.29199982
_cell_length_c   4.53906107
_cell_angle_alpha   90.00000000
_cell_angle_beta   90.00000000
_cell_angle_gamma   90.00000000
_symmetry_Int_Tables_number   1
_chemical_formula_structural   Li2PO3
_chemical_formula_sum   'Li2 P1 O3'
_cell_volume   55.30265644
_cell_formula_units_Z   1
loop_
 _symmetry_equiv_pos_site_id
 _symmetry_equiv_pos_as_xyz
  1  'x, y, z'
loop_
 _atom_site_type_symbol
 _atom_site_label
 _atom_site_symmetry_multiplicity
 _atom_site_fract_x
 _atom_site_fract_y
 _atom_site_fract_z
 _atom_site_occupancy
  Li  Li0  1  0.49999999  0.22936201  0.82465399  1
  Li  Li1  1  0.49999999  0.77063803  0.17534600  1
  P  P2  1  0.00000000  0.27063801  0.32465400  1
  O  O3  1  0.00000000  0.72936203  0.67534599  1
  O  O4  1  0.49999999  0.50000002  0.49999999  1
  O  O5  1  0.00000000  0.00000000  0.00000000  1
