# generated using pymatgen
data_Cr6MoS7
_symmetry_space_group_name_H-M   'P 1'
_cell_length_a   7.55425501
_cell_length_b   7.57440901
_cell_length_c   7.60593081
_cell_angle_alpha   60.36578369
_cell_angle_beta   60.46453476
_cell_angle_gamma   60.50828934
_symmetry_Int_Tables_number   1
_chemical_formula_structural   Cr6MoS7
_chemical_formula_sum   'Cr6 Mo1 S7'
_cell_volume   310.83895796
_cell_formula_units_Z   1
loop_
 _symmetry_equiv_pos_site_id
 _symmetry_equiv_pos_as_xyz
  1  'x, y, z'
loop_
 _atom_site_type_symbol
 _atom_site_label
 _atom_site_symmetry_multiplicity
 _atom_site_fract_x
 _atom_site_fract_y
 _atom_site_fract_z
 _atom_site_occupancy
  Cr  Cr0  1  0.12407800  0.62419702  0.12418399  1
  Cr  Cr1  1  0.87590698  0.37578001  0.87580102  1
  Cr  Cr2  1  0.50000799  0.00000800  0.49999802  1
  Cr  Cr3  1  0.50002899  0.49998702  0.50003000  1
  Cr  Cr4  1  0.49994799  0.00000900  0.00001402  1
  Cr  Cr5  1  0.00003300  0.99995204  0.50002298  1
  S  S6  1  0.26943799  0.22371901  0.26918800  1
  Mo  Mo7  1  0.73080798  0.23019601  0.27543102  1
  S  S8  1  0.74304098  0.24402201  0.74196802  1
  S  S9  1  0.27609399  0.23057301  0.73124100  1
  S  S10  1  0.25702399  0.75586403  0.25803899  1
  S  S11  1  0.72387698  0.76953103  0.26869200  1
  S  S12  1  0.73054898  0.77630203  0.73074301  1
  S  S13  1  0.26915999  0.76986103  0.72464799  1
