# generated using pymatgen
data_CaSiC2
_symmetry_space_group_name_H-M   'P 1'
_cell_length_a   6.11591196
_cell_length_b   6.11591196
_cell_length_c   6.11591196
_cell_angle_alpha   90.00000000
_cell_angle_beta   90.00000000
_cell_angle_gamma   90.00000000
_symmetry_Int_Tables_number   1
_chemical_formula_structural   CaSiC2
_chemical_formula_sum   'Ca4 Si4 C8'
_cell_volume   228.76188958
_cell_formula_units_Z   4
loop_
 _symmetry_equiv_pos_site_id
 _symmetry_equiv_pos_as_xyz
  1  'x, y, z'
loop_
 _atom_site_type_symbol
 _atom_site_label
 _atom_site_symmetry_multiplicity
 _atom_site_fract_x
 _atom_site_fract_y
 _atom_site_fract_z
 _atom_site_occupancy
  Ca  Ca0  1  0.00000000  0.50000000  0.25000000  1
  Ca  Ca1  1  0.00000000  0.50000000  0.75000000  1
  Ca  Ca2  1  0.75000000  0.00000000  0.50000000  1
  Ca  Ca3  1  0.50000000  0.25000000  0.00000000  1
  Si  Si4  1  0.25000000  0.00000000  0.50000000  1
  Si  Si5  1  0.50000000  0.75000000  0.00000000  1
  Si  Si6  1  0.50000000  0.50000000  0.50000000  1
  Si  Si7  1  0.00000000  0.00000000  0.00000000  1
  C  C8  1  0.85197901  0.85197901  0.85197901  1
  C  C9  1  0.64802100  0.35197900  0.64802100  1
  C  C10  1  0.35197900  0.64802100  0.64802100  1
  C  C11  1  0.64802100  0.64802100  0.35197900  1
  C  C12  1  0.35197900  0.35197900  0.35197900  1
  C  C13  1  0.14802100  0.14802100  0.85197901  1
  C  C14  1  0.14802100  0.85197901  0.14802100  1
  C  C15  1  0.85197901  0.14802100  0.14802100  1
