# generated using pymatgen
data_Y8SnGe2Ru7Pt2
_symmetry_space_group_name_H-M   'P 1'
_cell_length_a   3.79012609
_cell_length_b   7.80370092
_cell_length_c   13.04086208
_cell_angle_alpha   90.00000000
_cell_angle_beta   90.00000000
_cell_angle_gamma   90.00000000
_symmetry_Int_Tables_number   1
_chemical_formula_structural   Y8SnGe2Ru7Pt2
_chemical_formula_sum   'Y8 Sn1 Ge2 Ru7 Pt2'
_cell_volume   385.70971390
_cell_formula_units_Z   1
loop_
 _symmetry_equiv_pos_site_id
 _symmetry_equiv_pos_as_xyz
  1  'x, y, z'
loop_
 _atom_site_type_symbol
 _atom_site_label
 _atom_site_symmetry_multiplicity
 _atom_site_fract_x
 _atom_site_fract_y
 _atom_site_fract_z
 _atom_site_occupancy
  Y  Y0  1  0.24999999  0.08899900  0.82785799  1
  Y  Y1  1  0.74999998  0.91100101  0.17214200  1
  Y  Y2  1  0.24999999  0.58899901  0.67214200  1
  Y  Y3  1  0.74999998  0.41100100  0.32785800  1
  Y  Y4  1  0.24999999  0.33723500  0.05130500  1
  Y  Y5  1  0.74999998  0.66276501  0.94869499  1
  Y  Y6  1  0.24999999  0.83723501  0.44869500  1
  Y  Y7  1  0.74999998  0.16276500  0.55130500  1
  Ge  Ge8  1  0.24999999  0.48976100  0.89388999  1
  Sn  Sn9  1  0.74999998  0.51023900  0.10611000  1
  Ru  Ru10  1  0.24999999  0.98976101  0.60611000  1
  Ru  Ru11  1  0.74999998  0.01023900  0.39389000  1
  Ru  Ru12  1  0.24999999  0.34070500  0.49413000  1
  Ru  Ru13  1  0.74999998  0.65929501  0.50587000  1
  Ru  Ru14  1  0.24999999  0.84070501  0.00587000  1
  Ru  Ru15  1  0.74999998  0.15929500  0.99412999  1
  Ge  Ge16  1  0.74999998  0.30636000  0.71262500  1
  Pt  Pt17  1  0.24999999  0.69364001  0.28737500  1
  Ru  Ru18  1  0.74999998  0.80636001  0.78737499  1
  Pt  Pt19  1  0.24999999  0.19364000  0.21262500  1
