# generated using pymatgen
data_Cs4HgTeSBr7
_symmetry_space_group_name_H-M   'P 1'
_cell_length_a   7.86265755
_cell_length_b   8.41218090
_cell_length_c   10.59912395
_cell_angle_alpha   90.00000000
_cell_angle_beta   109.72891235
_cell_angle_gamma   90.00000000
_symmetry_Int_Tables_number   1
_chemical_formula_structural   Cs4HgTeSBr7
_chemical_formula_sum   'Cs4 Hg1 Te1 S1 Br7'
_cell_volume   659.89698215
_cell_formula_units_Z   1
loop_
 _symmetry_equiv_pos_site_id
 _symmetry_equiv_pos_as_xyz
  1  'x, y, z'
loop_
 _atom_site_type_symbol
 _atom_site_label
 _atom_site_symmetry_multiplicity
 _atom_site_fract_x
 _atom_site_fract_y
 _atom_site_fract_z
 _atom_site_occupancy
  Cs  Cs0  1  0.30500101  0.74972501  0.96344003  1
  Cs  Cs1  1  0.69499903  0.24972500  0.03656003  1
  Cs  Cs2  1  0.20299601  0.74951301  0.41428102  1
  Cs  Cs3  1  0.79700403  0.24951300  0.58571904  1
  Te  Te4  1  0.69704303  0.75121401  0.78416104  1
  Hg  Hg5  1  0.30295701  0.25121400  0.21583902  1
  Br  Br6  1  0.48384502  0.49965501  0.72293203  1
  Br  Br7  1  0.51615502  0.99965501  0.27706803  1
  Br  Br8  1  0.51984402  0.50201101  0.27831803  1
  Br  Br9  1  0.48015602  0.00201100  0.72168203  1
  Br  Br10  1  0.86635003  0.76224801  0.04731904  1
  Br  Br11  1  0.13365001  0.26224800  0.95268102  1
  S  S12  1  0.91987504  0.76023401  0.64607005  1
  Br  Br13  1  0.08012500  0.26023400  0.35393001  1
