# generated using pymatgen
data_Na2TeSe2
_symmetry_space_group_name_H-M   'P 1'
_cell_length_a   4.65871382
_cell_length_b   4.65871429
_cell_length_c   7.77316809
_cell_angle_alpha   90.00000000
_cell_angle_beta   90.00000000
_cell_angle_gamma   120.00000000
_symmetry_Int_Tables_number   1
_chemical_formula_structural   Na2TeSe2
_chemical_formula_sum   'Na2 Te1 Se2'
_cell_volume   146.10356084
_cell_formula_units_Z   1
loop_
 _symmetry_equiv_pos_site_id
 _symmetry_equiv_pos_as_xyz
  1  'x, y, z'
loop_
 _atom_site_type_symbol
 _atom_site_label
 _atom_site_symmetry_multiplicity
 _atom_site_fract_x
 _atom_site_fract_y
 _atom_site_fract_z
 _atom_site_occupancy
  Na  Na0  1  0.33333337  0.66666668  0.26786400  1
  Na  Na1  1  0.66666671  0.33333334  0.73213599  1
  Te  Te2  1  0.00000000  0.00000000  0.00000000  1
  Se  Se3  1  0.66666671  0.33333334  0.36402400  1
  Se  Se4  1  0.33333337  0.66666668  0.63597599  1
