# generated using pymatgen
data_La2CeIn3
_symmetry_space_group_name_H-M   'P 1'
_cell_length_a   5.29878807
_cell_length_b   6.80163622
_cell_length_c   6.80163622
_cell_angle_alpha   74.52113342
_cell_angle_beta   67.07517242
_cell_angle_gamma   67.07517242
_symmetry_Int_Tables_number   1
_chemical_formula_structural   La2CeIn3
_chemical_formula_sum   'La2 Ce1 In3'
_cell_volume   206.01521811
_cell_formula_units_Z   1
loop_
 _symmetry_equiv_pos_site_id
 _symmetry_equiv_pos_as_xyz
  1  'x, y, z'
loop_
 _atom_site_type_symbol
 _atom_site_label
 _atom_site_symmetry_multiplicity
 _atom_site_fract_x
 _atom_site_fract_y
 _atom_site_fract_z
 _atom_site_occupancy
  La  La0  1  0.95086197  0.79913801  0.29913794  1
  La  La1  1  0.04913799  0.20086200  0.70086199  1
  Ce  Ce2  1  0.33699098  0.60889301  0.71712596  1
  In  In3  1  0.66300899  0.39110700  0.28287396  1
  In  In4  1  0.33698999  0.21712700  0.10889298  1
  In  In5  1  0.66300997  0.78287301  0.89110694  1
