# generated using pymatgen
data_Sn2Pd
_symmetry_space_group_name_H-M   'P 1'
_cell_length_a   6.79097509
_cell_length_b   6.79097509
_cell_length_c   6.79097509
_cell_angle_alpha   90.00000000
_cell_angle_beta   90.00000000
_cell_angle_gamma   90.00000000
_symmetry_Int_Tables_number   1
_chemical_formula_structural   Sn2Pd
_chemical_formula_sum   'Sn8 Pd4'
_cell_volume   313.18172584
_cell_formula_units_Z   4
loop_
 _symmetry_equiv_pos_site_id
 _symmetry_equiv_pos_as_xyz
  1  'x, y, z'
loop_
 _atom_site_type_symbol
 _atom_site_label
 _atom_site_symmetry_multiplicity
 _atom_site_fract_x
 _atom_site_fract_y
 _atom_site_fract_z
 _atom_site_occupancy
  Sn  Sn0  1  0.37615199  0.12384800  0.87615199  1
  Sn  Sn1  1  0.12384800  0.87615199  0.37615199  1
  Sn  Sn2  1  0.87615199  0.37615199  0.12384800  1
  Sn  Sn3  1  0.62384799  0.62384799  0.62384799  1
  Sn  Sn4  1  0.37615199  0.37615199  0.37615199  1
  Sn  Sn5  1  0.12384800  0.62384799  0.87615199  1
  Sn  Sn6  1  0.87615199  0.12384800  0.62384799  1
  Pd  Pd7  1  0.62384799  0.87615199  0.12384800  1
  Sn  Sn8  1  0.00000000  0.49999999  0.49999999  1
  Pd  Pd9  1  0.49999999  0.49999999  -0.00000000  1
  Pd  Pd10  1  0.49999999  0.00000000  0.49999999  1
  Pd  Pd11  1  0.00000000  0.00000000  0.00000000  1
