# generated using pymatgen
data_Nd5Sn3
_symmetry_space_group_name_H-M   'P 1'
_cell_length_a   6.58177280
_cell_length_b   9.53939533
_cell_length_c   9.53939438
_cell_angle_alpha   119.94895935
_cell_angle_beta   90.00000000
_cell_angle_gamma   90.00000000
_symmetry_Int_Tables_number   1
_chemical_formula_structural   Nd5Sn3
_chemical_formula_sum   'Nd10 Sn6'
_cell_volume   518.96528296
_cell_formula_units_Z   2
loop_
 _symmetry_equiv_pos_site_id
 _symmetry_equiv_pos_as_xyz
  1  'x, y, z'
loop_
 _atom_site_type_symbol
 _atom_site_label
 _atom_site_symmetry_multiplicity
 _atom_site_fract_x
 _atom_site_fract_y
 _atom_site_fract_z
 _atom_site_occupancy
  Nd  Nd0  1  0.50000101  0.66663098  0.33336503  1
  Nd  Nd1  1  0.50000101  0.33333332  0.66659937  1
  Nd  Nd2  1  0.00000100  0.33333332  0.66659937  1
  Nd  Nd3  1  0.00000100  0.66666665  0.33340070  1
  Nd  Nd4  1  0.25000001  0.75131298  0.75131305  1
  Nd  Nd5  1  0.24999901  0.24815599  0.99972405  1
  Nd  Nd6  1  0.24999901  0.99972297  0.24815504  1
  Nd  Nd7  1  0.75000002  0.24868699  0.24868702  1
  Nd  Nd8  1  0.74999902  0.75184398  0.00027602  1
  Nd  Nd9  1  0.74999902  0.00027700  0.75184503  1
  Sn  Sn10  1  0.25000201  0.38682299  0.38682303  1
  Sn  Sn11  1  0.25000001  0.61298998  0.00001302  1
  Sn  Sn12  1  0.25000001  0.00001300  0.61299003  1
  Sn  Sn13  1  0.75000202  0.61317698  0.61317704  1
  Sn  Sn14  1  0.75000002  0.38700999  0.99998705  1
  Sn  Sn15  1  0.75000002  0.99998697  0.38701005  1
