# generated using pymatgen
data_Ce3AlFe14
_symmetry_space_group_name_H-M   'P 1'
_cell_length_a   4.92185545
_cell_length_b   4.92185545
_cell_length_c   12.35815239
_cell_angle_alpha   78.51367950
_cell_angle_beta   78.51367950
_cell_angle_gamma   60.00000763
_symmetry_Int_Tables_number   1
_chemical_formula_structural   Ce3AlFe14
_chemical_formula_sum   'Ce3 Al1 Fe14'
_cell_volume   252.31679212
_cell_formula_units_Z   1
loop_
 _symmetry_equiv_pos_site_id
 _symmetry_equiv_pos_as_xyz
  1  'x, y, z'
loop_
 _atom_site_type_symbol
 _atom_site_label
 _atom_site_symmetry_multiplicity
 _atom_site_fract_x
 _atom_site_fract_y
 _atom_site_fract_z
 _atom_site_occupancy
  Ce  Ce0  1  0.94925193  0.94925199  0.15224405  1
  Ce  Ce1  1  0.85267994  0.85267999  0.44196003  1
  Al  Al2  1  0.14731999  0.14732000  0.55803999  1
  Ce  Ce3  1  0.05074800  0.05074800  0.84775598  1
  Fe  Fe4  1  -0.00000002  0.49999999  0.00000001  1
  Fe  Fe5  1  0.49999996  0.49999999  0.00000003  1
  Fe  Fe6  1  0.49999998  0.00000000  0.00000001  1
  Fe  Fe7  1  0.61165395  0.61165399  0.16503803  1
  Fe  Fe8  1  0.27809698  0.27809700  0.16570901  1
  Fe  Fe9  1  0.89107295  0.38981099  0.32930503  1
  Fe  Fe10  1  0.38981095  0.89107299  0.32930503  1
  Fe  Fe11  1  0.38981097  0.38981099  0.32930501  1
  Fe  Fe12  1  0.49999996  0.49999999  0.50000001  1
  Fe  Fe13  1  0.61018895  0.61018899  0.67069502  1
  Fe  Fe14  1  0.61018898  0.10892700  0.67069500  1
  Fe  Fe15  1  0.10892697  0.61018899  0.67069500  1
  Fe  Fe16  1  0.72190295  0.72190299  0.83429102  1
  Fe  Fe17  1  0.38834597  0.38834599  0.83496200  1
