# generated using pymatgen
data_NdGe2
_symmetry_space_group_name_H-M   'P 1'
_cell_length_a   4.10361385
_cell_length_b   4.10361385
_cell_length_c   8.42802429
_cell_angle_alpha   104.09028625
_cell_angle_beta   104.09028625
_cell_angle_gamma   90.00000000
_symmetry_Int_Tables_number   1
_chemical_formula_structural   NdGe2
_chemical_formula_sum   'Nd2 Ge4'
_cell_volume   133.24807767
_cell_formula_units_Z   2
loop_
 _symmetry_equiv_pos_site_id
 _symmetry_equiv_pos_as_xyz
  1  'x, y, z'
loop_
 _atom_site_type_symbol
 _atom_site_label
 _atom_site_symmetry_multiplicity
 _atom_site_fract_x
 _atom_site_fract_y
 _atom_site_fract_z
 _atom_site_occupancy
  Nd  Nd0  1  0.67388805  0.67388803  0.34777604  1
  Nd  Nd1  1  0.32611202  0.32611202  0.65222402  1
  Ge  Ge2  1  0.50000002  0.00000000  0.00000001  1
  Ge  Ge3  1  0.00000001  0.50000003  1.00000002  1
  Ge  Ge4  1  0.11850101  0.11850101  0.23700201  1
  Ge  Ge5  1  0.88149907  0.88149904  0.76299805  1
