# generated using pymatgen
data_Ti6VS8
_symmetry_space_group_name_H-M   'P 1'
_cell_length_a   6.48975277
_cell_length_b   6.48975277
_cell_length_c   6.48975277
_cell_angle_alpha   89.36886597
_cell_angle_beta   89.36886597
_cell_angle_gamma   89.36885834
_symmetry_Int_Tables_number   1
_chemical_formula_structural   Ti6VS8
_chemical_formula_sum   'Ti6 V1 S8'
_cell_volume   273.27882475
_cell_formula_units_Z   1
loop_
 _symmetry_equiv_pos_site_id
 _symmetry_equiv_pos_as_xyz
  1  'x, y, z'
loop_
 _atom_site_type_symbol
 _atom_site_label
 _atom_site_symmetry_multiplicity
 _atom_site_fract_x
 _atom_site_fract_y
 _atom_site_fract_z
 _atom_site_occupancy
  Ti  Ti0  1  0.00000000  0.00000000  0.00000000  1
  Ti  Ti1  1  0.77735695  0.58000499  0.43956107  1
  Ti  Ti2  1  0.43956094  0.77735698  0.58000506  1
  Ti  Ti3  1  0.22264297  0.41999499  0.56043804  1
  Ti  Ti4  1  0.58000496  0.43956099  0.77735706  1
  Ti  Ti5  1  0.56043797  0.22264300  0.41999504  1
  V  V6  1  0.41999495  0.56043799  0.22264305  1
  S  S7  1  0.12800095  0.75342999  0.36843805  1
  S  S8  1  0.24656995  0.63156199  0.87199906  1
  S  S9  1  0.87199897  0.24657000  0.63156206  1
  S  S10  1  0.23785498  0.23785500  0.23785503  1
  S  S11  1  0.36843798  0.12800100  0.75343004  1
  S  S12  1  0.75342996  0.36843799  0.12800105  1
  S  S13  1  0.76214493  0.76214498  0.76214508  1
  S  S14  1  0.63156193  0.87199898  0.24657007  1
