# generated using pymatgen
data_BaSbIO2
_symmetry_space_group_name_H-M   'P 1'
_cell_length_a   3.98601604
_cell_length_b   3.98601604
_cell_length_c   7.44038868
_cell_angle_alpha   105.53717041
_cell_angle_beta   105.53717041
_cell_angle_gamma   90.00000000
_symmetry_Int_Tables_number   1
_chemical_formula_structural   BaSbIO2
_chemical_formula_sum   'Ba1 Sb1 I1 O2'
_cell_volume   109.40494808
_cell_formula_units_Z   1
loop_
 _symmetry_equiv_pos_site_id
 _symmetry_equiv_pos_as_xyz
  1  'x, y, z'
loop_
 _atom_site_type_symbol
 _atom_site_label
 _atom_site_symmetry_multiplicity
 _atom_site_fract_x
 _atom_site_fract_y
 _atom_site_fract_z
 _atom_site_occupancy
  Ba  Ba0  1  0.32275401  0.32275400  0.64550800  1
  Sb  Sb1  1  0.64678402  0.64678400  0.29356803  1
  I  I2  1  0.99463903  0.99463900  0.98927803  1
  O  O3  1  0.75431201  0.25431200  0.50862401  1
  O  O4  1  0.25431202  0.75431200  0.50862401  1
