# generated using pymatgen
data_Mg3Mn(PO3)4
_symmetry_space_group_name_H-M   'P 1'
_cell_length_a   5.32471991
_cell_length_b   6.54044628
_cell_length_c   6.54044628
_cell_angle_alpha   83.59878540
_cell_angle_beta   78.12063599
_cell_angle_gamma   78.12063599
_symmetry_Int_Tables_number   1
_chemical_formula_structural   Mg3Mn(PO3)4
_chemical_formula_sum   'Mg3 Mn1 P4 O12'
_cell_volume   217.55694886
_cell_formula_units_Z   1
loop_
 _symmetry_equiv_pos_site_id
 _symmetry_equiv_pos_as_xyz
  1  'x, y, z'
loop_
 _atom_site_type_symbol
 _atom_site_label
 _atom_site_symmetry_multiplicity
 _atom_site_fract_x
 _atom_site_fract_y
 _atom_site_fract_z
 _atom_site_occupancy
  Mg  Mg0  1  0.75913901  0.67661499  0.30347106  1
  Mg  Mg1  1  0.25913901  0.30347099  0.67661502  1
  Mn  Mn2  1  0.79152098  0.19057500  0.38707704  1
  Mg  Mg3  1  0.29152101  0.38707699  0.19057503  1
  P  P4  1  0.73872997  0.09117600  0.91051803  1
  P  P5  1  0.23873004  0.91051798  0.09117604  1
  P  P6  1  0.71631800  0.61882899  0.81063605  1
  P  P7  1  0.21631804  0.81063598  0.61882904  1
  O  O8  1  0.87709596  0.02502400  0.17190404  1
  O  O9  1  0.67993597  0.08941800  0.64209803  1
  O  O10  1  0.02762102  0.33937199  0.38976801  1
  O  O11  1  0.62504402  0.79983198  0.97907105  1
  O  O12  1  0.79754499  0.37575599  0.88961805  1
  O  O13  1  0.48705002  0.64322199  0.66601904  1
  O  O14  1  0.12504405  0.97907098  0.79983204  1
  O  O15  1  0.29754504  0.88961798  0.37575604  1
  O  O16  1  0.98704999  0.66601899  0.64322207  1
  O  O17  1  0.37709599  0.17190400  0.02502402  1
  O  O18  1  0.17993603  0.64209799  0.08941803  1
  O  O19  1  0.52762100  0.38976799  0.33937204  1
