# generated using pymatgen
data_Dy2TmLuSn4
_symmetry_space_group_name_H-M   'P 1'
_cell_length_a   5.23321819
_cell_length_b   6.35050821
_cell_length_c   6.35050774
_cell_angle_alpha   120.00000000
_cell_angle_beta   90.00000000
_cell_angle_gamma   90.00000000
_symmetry_Int_Tables_number   1
_chemical_formula_structural   Dy2TmLuSn4
_chemical_formula_sum   'Dy2 Tm1 Lu1 Sn4'
_cell_volume   182.77483717
_cell_formula_units_Z   1
loop_
 _symmetry_equiv_pos_site_id
 _symmetry_equiv_pos_as_xyz
  1  'x, y, z'
loop_
 _atom_site_type_symbol
 _atom_site_label
 _atom_site_symmetry_multiplicity
 _atom_site_fract_x
 _atom_site_fract_y
 _atom_site_fract_z
 _atom_site_occupancy
  Tm  Tm0  1  0.74999997  0.83013996  0.16985998  1
  Dy  Dy1  1  0.74999997  0.33971998  0.16985999  1
  Dy  Dy2  1  0.74999997  0.83013996  0.66027999  1
  Lu  Lu3  1  0.24999999  0.16985999  0.83014000  1
  Sn  Sn4  1  0.24999999  0.66027997  0.83013999  1
  Sn  Sn5  1  0.24999999  0.16985999  0.33972000  1
  Sn  Sn6  1  0.24999999  0.66666664  0.33333332  1
  Sn  Sn7  1  0.74999997  0.33333332  0.66666666  1
