# generated using pymatgen
data_Be3C
_symmetry_space_group_name_H-M   'P 1'
_cell_length_a   4.34615707
_cell_length_b   4.34615707
_cell_length_c   4.34615707
_cell_angle_alpha   73.93400574
_cell_angle_beta   73.93400574
_cell_angle_gamma   73.93400574
_symmetry_Int_Tables_number   1
_chemical_formula_structural   Be3C
_chemical_formula_sum   'Be6 C2'
_cell_volume   74.00518215
_cell_formula_units_Z   2
loop_
 _symmetry_equiv_pos_site_id
 _symmetry_equiv_pos_as_xyz
  1  'x, y, z'
loop_
 _atom_site_type_symbol
 _atom_site_label
 _atom_site_symmetry_multiplicity
 _atom_site_fract_x
 _atom_site_fract_y
 _atom_site_fract_z
 _atom_site_occupancy
  Be  Be0  1  0.33498499  0.66501495  1.00000002  1
  Be  Be1  1  0.66501495  0.00000000  0.33498503  1
  Be  Be2  1  0.00000001  0.33498498  0.66501500  1
  Be  Be3  1  0.33498498  0.00000000  0.66501500  1
  Be  Be4  1  0.00000001  0.66501495  0.33498502  1
  Be  Be5  1  0.66501496  0.33498498  0.00000005  1
  C  C6  1  0.16466099  0.16466099  0.16466101  1
  C  C7  1  0.83533896  0.83533894  0.83533906  1
