# generated using pymatgen
data_Li2O2
_symmetry_space_group_name_H-M   'P 1'
_cell_length_a   5.73435307
_cell_length_b   5.73434687
_cell_length_c   9.93210793
_cell_angle_alpha   90.00067902
_cell_angle_beta   106.77845764
_cell_angle_gamma   119.99943542
_symmetry_Int_Tables_number   1
_chemical_formula_structural   Li2O2
_chemical_formula_sum   'Li10 O10'
_cell_volume   266.66528015
_cell_formula_units_Z   5
loop_
 _symmetry_equiv_pos_site_id
 _symmetry_equiv_pos_as_xyz
  1  'x, y, z'
loop_
 _atom_site_type_symbol
 _atom_site_label
 _atom_site_symmetry_multiplicity
 _atom_site_fract_x
 _atom_site_fract_y
 _atom_site_fract_z
 _atom_site_occupancy
  Li  Li0  1  0.74999910  0.87500002  0.62499907  1
  Li  Li1  1  0.74999906  0.37500001  0.12500104  1
  Li  Li2  1  0.25000006  0.62500102  0.87500005  1
  Li  Li3  1  0.24999802  0.12499900  0.37499902  1
  Li  Li4  1  0.49999408  0.74999702  0.25000105  1
  Li  Li5  1  0.50000304  0.25000201  0.74999704  1
  Li  Li6  1  0.99999808  0.49999901  0.49999707  1
  Li  Li7  1  0.00000200  0.00000100  0.00000400  1
  O  O8  1  0.24100508  0.86150602  0.62050405  1
  Li  Li9  1  0.24100504  0.36150701  0.12050202  1
  O  O10  1  0.75899806  0.37949901  0.62050306  1
  Li  Li11  1  0.75899510  0.87949802  0.12050306  1
  O  O12  1  0.24100004  0.37949901  0.62050003  1
  O  O13  1  0.24100308  0.87949902  0.12050104  1
  O  O14  1  0.24100702  0.12050100  0.87950003  1
  O  O15  1  0.24100306  0.62050102  0.37949704  1
  O  O16  1  0.75899804  0.12050000  0.87950005  1
  O  O17  1  0.75899608  0.62050202  0.37949706  1
  O  O18  1  0.75899908  0.63849402  0.87950007  1
  O  O19  1  0.75899504  0.13849200  0.37949604  1
