# generated using pymatgen
data_Ca7Mg5Ge2
_symmetry_space_group_name_H-M   'P 1'
_cell_length_a   4.37966394
_cell_length_b   4.38161802
_cell_length_c   21.97485542
_cell_angle_alpha   90.00000000
_cell_angle_beta   95.71911621
_cell_angle_gamma   90.00000000
_symmetry_Int_Tables_number   1
_chemical_formula_structural   Ca7Mg5Ge2
_chemical_formula_sum   'Ca7 Mg5 Ge2'
_cell_volume   419.59874115
_cell_formula_units_Z   1
loop_
 _symmetry_equiv_pos_site_id
 _symmetry_equiv_pos_as_xyz
  1  'x, y, z'
loop_
 _atom_site_type_symbol
 _atom_site_label
 _atom_site_symmetry_multiplicity
 _atom_site_fract_x
 _atom_site_fract_y
 _atom_site_fract_z
 _atom_site_occupancy
  Mg  Mg0  1  0.09966700  0.75000000  0.19933400  1
  Ca  Ca1  1  0.90033301  0.25000000  0.80066601  1
  Ca  Ca2  1  0.30639300  0.75000000  0.61278600  1
  Ca  Ca3  1  0.69360701  0.25000000  0.38721400  1
  Ca  Ca4  1  0.95583001  0.75000000  0.91166001  1
  Mg  Mg5  1  0.04417000  0.25000000  0.08834000  1
  Mg  Mg6  1  0.54424101  0.75000000  0.08848200  1
  Ca  Ca7  1  0.45575901  0.25000000  0.91151800  1
  Ca  Ca8  1  0.75000101  0.75000000  0.50000200  1
  Ca  Ca9  1  0.24999900  0.25000000  0.49999800  1
  Ge  Ge10  1  0.17351400  0.75000000  0.34702800  1
  Mg  Mg11  1  0.82648601  0.25000000  0.65297201  1
  Mg  Mg12  1  0.37850101  0.75000000  0.75700200  1
  Ge  Ge13  1  0.62149901  0.25000000  0.24299800  1
