# generated using pymatgen
data_Ce2SiGe5
_symmetry_space_group_name_H-M   'P 1'
_cell_length_a   4.09453011
_cell_length_b   4.20747423
_cell_length_c   8.56217670
_cell_angle_alpha   90.00000000
_cell_angle_beta   103.83376312
_cell_angle_gamma   90.00000000
_symmetry_Int_Tables_number   1
_chemical_formula_structural   Ce2SiGe5
_chemical_formula_sum   'Ce2 Si1 Ge5'
_cell_volume   143.22738558
_cell_formula_units_Z   1
loop_
 _symmetry_equiv_pos_site_id
 _symmetry_equiv_pos_as_xyz
  1  'x, y, z'
loop_
 _atom_site_type_symbol
 _atom_site_label
 _atom_site_symmetry_multiplicity
 _atom_site_fract_x
 _atom_site_fract_y
 _atom_site_fract_z
 _atom_site_occupancy
  Ce  Ce0  1  0.89244198  0.24999999  0.78488397  1
  Ce  Ce1  1  0.10755800  0.74999996  0.21511599  1
  Si  Si2  1  0.67944098  0.24999999  0.35888199  1
  Ge  Ge3  1  0.32055899  0.74999996  0.64111797  1
  Ge  Ge4  1  0.54155699  0.24999999  0.08311400  1
  Ge  Ge5  1  0.45844299  0.74999996  0.91688596  1
  Ge  Ge6  1  0.25251399  0.24999999  0.50502798  1
  Ge  Ge7  1  0.74748598  0.74999996  0.49497198  1
