# generated using pymatgen
data_Nd2Ni17
_symmetry_space_group_name_H-M   'P 1'
_cell_length_a   6.28216314
_cell_length_b   6.28216314
_cell_length_c   6.28216314
_cell_angle_alpha   82.90395355
_cell_angle_beta   82.90395355
_cell_angle_gamma   82.90395355
_symmetry_Int_Tables_number   1
_chemical_formula_structural   Nd2Ni17
_chemical_formula_sum   'Nd2 Ni17'
_cell_volume   242.66543457
_cell_formula_units_Z   1
loop_
 _symmetry_equiv_pos_site_id
 _symmetry_equiv_pos_as_xyz
  1  'x, y, z'
loop_
 _atom_site_type_symbol
 _atom_site_label
 _atom_site_symmetry_multiplicity
 _atom_site_fract_x
 _atom_site_fract_y
 _atom_site_fract_z
 _atom_site_occupancy
  Nd  Nd0  1  0.34422502  0.34422499  0.34422499  1
  Nd  Nd1  1  0.65577503  0.65577499  0.65577498  1
  Ni  Ni2  1  0.00000000  0.00000000  0.50000001  1
  Ni  Ni3  1  0.49999999  0.00000000  -0.00000001  1
  Ni  Ni4  1  0.00000003  0.49999999  -0.00000001  1
  Ni  Ni5  1  0.28817504  0.71182499  -0.00000003  1
  Ni  Ni6  1  0.00000002  0.28817500  0.71182501  1
  Ni  Ni7  1  0.71182499  0.00000000  0.28817499  1
  Ni  Ni8  1  0.00000004  0.71182499  0.28817499  1
  Ni  Ni9  1  0.28817500  0.00000000  0.71182501  1
  Ni  Ni10  1  0.71182501  0.28817500  1.00000000  1
  Ni  Ni11  1  0.65454303  0.65454299  0.15002297  1
  Ni  Ni12  1  0.15002304  0.65454299  0.65454299  1
  Ni  Ni13  1  0.65454300  0.15002300  0.65454300  1
  Ni  Ni14  1  0.34545702  0.34545699  0.84997700  1
  Ni  Ni15  1  0.84997701  0.34545699  0.34545698  1
  Ni  Ni16  1  0.34545704  0.84997699  0.34545698  1
  Ni  Ni17  1  0.09649200  0.09649200  0.09649200  1
  Ni  Ni18  1  0.90350804  0.90350798  0.90350797  1
