# generated using pymatgen
data_Na3LiTiTlCuS7
_symmetry_space_group_name_H-M   'P 1'
_cell_length_a   6.29021120
_cell_length_b   6.32360649
_cell_length_c   11.04458904
_cell_angle_alpha   90.00000000
_cell_angle_beta   90.00000000
_cell_angle_gamma   119.57710266
_symmetry_Int_Tables_number   1
_chemical_formula_structural   Na3LiTiTlCuS7
_chemical_formula_sum   'Na3 Li1 Ti1 Tl1 Cu1 S7'
_cell_volume   382.07201435
_cell_formula_units_Z   1
loop_
 _symmetry_equiv_pos_site_id
 _symmetry_equiv_pos_as_xyz
  1  'x, y, z'
loop_
 _atom_site_type_symbol
 _atom_site_label
 _atom_site_symmetry_multiplicity
 _atom_site_fract_x
 _atom_site_fract_y
 _atom_site_fract_z
 _atom_site_occupancy
  Li  Li0  1  0.22164900  0.95086300  0.50000000  1
  Na  Na1  1  0.77402201  0.23354200  0.50000000  1
  Na  Na2  1  0.76366601  0.24293600  0.00000000  1
  Ti  Ti3  1  0.23766600  0.76052100  0.00000000  1
  Tl  Tl4  1  0.50057301  0.49559600  0.24975800  1
  Na  Na5  1  0.50057301  0.49559600  0.75024200  1
  S  S6  1  0.80834701  0.63479500  0.50000000  1
  S  S7  1  0.18588100  0.31796300  0.50000000  1
  Cu  Cu8  1  0.35018101  0.18684600  0.00000000  1
  S  S9  1  0.65087101  0.81815200  0.00000000  1
  S  S10  1  0.00035200  0.50188100  0.16682600  1
  S  S11  1  0.49843401  0.01521400  0.33378000  1
  S  S12  1  0.00035200  0.50188100  0.83317400  1
  S  S13  1  0.49843401  0.01521400  0.66622000  1
