# generated using pymatgen
data_TlS
_symmetry_space_group_name_H-M   'P 1'
_cell_length_a   5.75087404
_cell_length_b   5.75087404
_cell_length_c   7.26866436
_cell_angle_alpha   113.30300140
_cell_angle_beta   113.30300140
_cell_angle_gamma   90.00000000
_symmetry_Int_Tables_number   1
_chemical_formula_structural   TlS
_chemical_formula_sum   'Tl4 S4'
_cell_volume   199.25273598
_cell_formula_units_Z   4
loop_
 _symmetry_equiv_pos_site_id
 _symmetry_equiv_pos_as_xyz
  1  'x, y, z'
loop_
 _atom_site_type_symbol
 _atom_site_label
 _atom_site_symmetry_multiplicity
 _atom_site_fract_x
 _atom_site_fract_y
 _atom_site_fract_z
 _atom_site_occupancy
  Tl  Tl0  1  0.75898002  0.75898000  0.51796002  1
  Tl  Tl1  1  0.50898000  0.00898000  0.01796001  1
  Tl  Tl2  1  0.26358001  0.26358000  0.52716000  1
  Tl  Tl3  1  0.01358001  0.51358000  0.02716001  1
  S  S4  1  0.99885502  0.99885501  0.99771001  1
  S  S5  1  0.74885501  0.24885500  0.49771001  1
  S  S6  1  0.51858401  0.51858400  0.03716802  1
  S  S7  1  0.26858402  0.76858400  0.53716801  1
