# generated using pymatgen
data_Sr5Ca(NiO6)2
_symmetry_space_group_name_H-M   'P 1'
_cell_length_a   7.23019314
_cell_length_b   7.23019314
_cell_length_c   7.23019314
_cell_angle_alpha   109.47122192
_cell_angle_beta   109.47122192
_cell_angle_gamma   109.47122192
_symmetry_Int_Tables_number   1
_chemical_formula_structural   Sr5Ca(NiO6)2
_chemical_formula_sum   'Sr5 Ca1 Ni2 O12'
_cell_volume   290.95631282
_cell_formula_units_Z   1
loop_
 _symmetry_equiv_pos_site_id
 _symmetry_equiv_pos_as_xyz
  1  'x, y, z'
loop_
 _atom_site_type_symbol
 _atom_site_label
 _atom_site_symmetry_multiplicity
 _atom_site_fract_x
 _atom_site_fract_y
 _atom_site_fract_z
 _atom_site_occupancy
  Ca  Ca0  1  0.00000003  0.50000003  0.00000003  1
  Sr  Sr1  1  0.00000000  0.00000000  0.50000001  1
  Sr  Sr2  1  0.50000004  0.50000003  0.50000005  1
  Sr  Sr3  1  0.50000007  1.00000005  0.00000007  1
  Sr  Sr4  1  0.00000000  0.00000000  0.00000000  1
  Sr  Sr5  1  0.50000004  0.50000003  0.00000004  1
  Ni  Ni6  1  0.50000001  0.00000000  0.50000002  1
  Ni  Ni7  1  0.00000003  0.50000003  0.50000003  1
  O  O8  1  0.50000003  0.25000001  0.75000003  1
  O  O9  1  0.26862602  0.26862601  1.00000003  1
  O  O10  1  0.26862601  0.00000000  0.26862601  1
  O  O11  1  0.73137401  0.00000000  0.73137403  1
  O  O12  1  0.00000002  0.26862601  0.26862602  1
  O  O13  1  0.73137406  0.73137404  0.00000006  1
  O  O14  1  1.00000007  0.73137404  0.73137407  1
  O  O15  1  0.50000006  0.75000004  0.25000006  1
  O  O16  1  0.25000004  0.50000003  0.75000004  1
  O  O17  1  0.75000005  0.50000003  0.25000005  1
  O  O18  1  0.25000005  0.75000004  0.50000005  1
  O  O19  1  0.75000003  0.25000001  0.50000004  1
