# generated using pymatgen
data_CaBeN2O
_symmetry_space_group_name_H-M   'P 1'
_cell_length_a   4.88563299
_cell_length_b   6.03002501
_cell_length_c   7.40027142
_cell_angle_alpha   90.00000000
_cell_angle_beta   107.79201508
_cell_angle_gamma   90.00000000
_symmetry_Int_Tables_number   1
_chemical_formula_structural   CaBeN2O
_chemical_formula_sum   'Ca2 Be2 N4 O2'
_cell_volume   207.58836157
_cell_formula_units_Z   2
loop_
 _symmetry_equiv_pos_site_id
 _symmetry_equiv_pos_as_xyz
  1  'x, y, z'
loop_
 _atom_site_type_symbol
 _atom_site_label
 _atom_site_symmetry_multiplicity
 _atom_site_fract_x
 _atom_site_fract_y
 _atom_site_fract_z
 _atom_site_occupancy
  Ca  Ca0  1  0.84315601  0.75000000  0.71523000  1
  Ca  Ca1  1  0.15684400  0.25000000  0.28476999  1
  Be  Be2  1  0.60099701  0.75000000  0.18390301  1
  Be  Be3  1  0.39900300  0.25000000  0.81609698  1
  N  N4  1  0.66522501  0.54699700  0.30174000  1
  N  N5  1  0.33477500  0.04699700  0.69825999  1
  O  O6  1  0.33477500  0.45300300  0.69825999  1
  N  N7  1  0.66522501  0.95300300  0.30174000  1
  N  N8  1  0.79198901  0.25000000  0.87669699  1
  O  O9  1  0.20801100  0.75000000  0.12330300  1
