# generated using pymatgen
data_ScTl(CrBr3)2
_symmetry_space_group_name_H-M   'P 1'
_cell_length_a   7.68975592
_cell_length_b   7.75367880
_cell_length_c   8.02958012
_cell_angle_alpha   62.56501770
_cell_angle_beta   62.14230728
_cell_angle_gamma   60.82756042
_symmetry_Int_Tables_number   1
_chemical_formula_structural   ScTl(CrBr3)2
_chemical_formula_sum   'Sc1 Tl1 Cr2 Br6'
_cell_volume   352.35103199
_cell_formula_units_Z   1
loop_
 _symmetry_equiv_pos_site_id
 _symmetry_equiv_pos_as_xyz
  1  'x, y, z'
loop_
 _atom_site_type_symbol
 _atom_site_label
 _atom_site_symmetry_multiplicity
 _atom_site_fract_x
 _atom_site_fract_y
 _atom_site_fract_z
 _atom_site_occupancy
  Tl  Tl0  1  0.03789500  0.05226600  0.88035803  1
  Sc  Sc1  1  0.54031403  0.55679899  0.37129798  1
  Cr  Cr2  1  0.24315601  0.24591400  0.25636699  1
  Cr  Cr3  1  0.73566204  0.73509099  0.77584498  1
  Br  Br4  1  0.49999305  0.95734098  0.01712096  1
  Br  Br5  1  0.95760604  0.48815999  0.56660298  1
  Br  Br6  1  0.50582103  0.50287199  0.01864297  1
  Br  Br7  1  0.96562206  0.95587898  0.57618297  1
  Br  Br8  1  0.48664505  0.95375498  0.57045798  1
  Br  Br9  1  0.95728104  0.50192599  0.01712196  1
