# generated using pymatgen
data_Dy2Lu(InPd)3
_symmetry_space_group_name_H-M   'P 1'
_cell_length_a   4.13572979
_cell_length_b   7.43259621
_cell_length_c   7.43259668
_cell_angle_alpha   119.99999237
_cell_angle_beta   90.00000000
_cell_angle_gamma   90.00000000
_symmetry_Int_Tables_number   1
_chemical_formula_structural   Dy2Lu(InPd)3
_chemical_formula_sum   'Dy2 Lu1 In3 Pd3'
_cell_volume   197.86269851
_cell_formula_units_Z   1
loop_
 _symmetry_equiv_pos_site_id
 _symmetry_equiv_pos_as_xyz
  1  'x, y, z'
loop_
 _atom_site_type_symbol
 _atom_site_label
 _atom_site_symmetry_multiplicity
 _atom_site_fract_x
 _atom_site_fract_y
 _atom_site_fract_z
 _atom_site_occupancy
  Dy  Dy0  1  1.00000005  0.40941797  1.00000000  1
  Dy  Dy1  1  1.00000005  0.59058196  0.59058198  1
  Lu  Lu2  1  1.00000005  0.00000000  0.40941801  1
  In  In3  1  0.50000003  0.00000000  0.75546002  1
  In  In4  1  0.50000003  0.75545995  0.99999998  1
  In  In5  1  0.50000003  0.24453998  0.24453999  1
  Pd  Pd6  1  0.00000000  0.00000000  0.00000000  1
  Pd  Pd7  1  0.50000003  0.66666662  0.33333330  1
  Pd  Pd8  1  0.50000003  0.33333331  0.66666666  1
