# generated using pymatgen
data_Li3Mg
_symmetry_space_group_name_H-M   'P 1'
_cell_length_a   2.96489811
_cell_length_b   5.07878590
_cell_length_c   5.78003597
_cell_angle_alpha   111.42506409
_cell_angle_beta   104.86115265
_cell_angle_gamma   90.00000000
_symmetry_Int_Tables_number   1
_chemical_formula_structural   Li3Mg
_chemical_formula_sum   'Li3 Mg1'
_cell_volume   77.88587199
_cell_formula_units_Z   1
loop_
 _symmetry_equiv_pos_site_id
 _symmetry_equiv_pos_as_xyz
  1  'x, y, z'
loop_
 _atom_site_type_symbol
 _atom_site_label
 _atom_site_symmetry_multiplicity
 _atom_site_fract_x
 _atom_site_fract_y
 _atom_site_fract_z
 _atom_site_occupancy
  Li  Li0  1  0.37769603  0.71049304  0.75539204  1
  Mg  Mg1  1  0.62230400  0.28950702  0.24460803  1
  Li  Li2  1  0.12557804  0.78922105  0.25115603  1
  Li  Li3  1  0.87442199  0.21077901  0.74884403  1
