# generated using pymatgen
data_TiNi4
_symmetry_space_group_name_H-M   'P 1'
_cell_length_a   3.12802196
_cell_length_b   3.12802196
_cell_length_c   7.46599531
_cell_angle_alpha   102.09214783
_cell_angle_beta   102.09214783
_cell_angle_gamma   90.00000000
_symmetry_Int_Tables_number   1
_chemical_formula_structural   TiNi4
_chemical_formula_sum   'Ti1 Ni4'
_cell_volume   69.77182038
_cell_formula_units_Z   1
loop_
 _symmetry_equiv_pos_site_id
 _symmetry_equiv_pos_as_xyz
  1  'x, y, z'
loop_
 _atom_site_type_symbol
 _atom_site_label
 _atom_site_symmetry_multiplicity
 _atom_site_fract_x
 _atom_site_fract_y
 _atom_site_fract_z
 _atom_site_occupancy
  Ti  Ti0  1  0.00000000  0.00000000  0.00000000  1
  Ni  Ni1  1  0.19626000  0.19626000  0.39251998  1
  Ni  Ni2  1  0.80373999  0.80374000  0.60747995  1
  Ni  Ni3  1  0.39352499  0.39352500  0.78704996  1
  Ni  Ni4  1  0.60647499  0.60647500  0.21294997  1
