# generated using pymatgen
data_Ca4SiC7
_symmetry_space_group_name_H-M   'P 1'
_cell_length_a   4.20171404
_cell_length_b   4.20171404
_cell_length_c   11.39552498
_cell_angle_alpha   100.62371063
_cell_angle_beta   100.62371063
_cell_angle_gamma   90.00000000
_symmetry_Int_Tables_number   1
_chemical_formula_structural   Ca4SiC7
_chemical_formula_sum   'Ca4 Si1 C7'
_cell_volume   194.22311311
_cell_formula_units_Z   1
loop_
 _symmetry_equiv_pos_site_id
 _symmetry_equiv_pos_as_xyz
  1  'x, y, z'
loop_
 _atom_site_type_symbol
 _atom_site_label
 _atom_site_symmetry_multiplicity
 _atom_site_fract_x
 _atom_site_fract_y
 _atom_site_fract_z
 _atom_site_occupancy
  Ca  Ca0  1  0.50000000  0.50000000  0.00000001  1
  Ca  Ca1  1  0.68578900  0.68578900  0.37157800  1
  Ca  Ca2  1  0.31421100  0.31421100  0.62842198  1
  Ca  Ca3  1  0.90340800  0.90340800  0.80681599  1
  Si  Si4  1  0.09659200  0.09659200  0.19318399  1
  C  C5  1  0.00000000  0.00000000  0.00000000  1
  C  C6  1  0.09563301  0.59563300  0.19126600  1
  C  C7  1  0.40436701  0.90436700  0.80873398  1
  C  C8  1  0.80847700  0.80847700  0.61695399  1
  C  C9  1  0.19152300  0.19152300  0.38304599  1
  C  C10  1  0.59563300  0.09563300  0.19126600  1
  C  C11  1  0.90436700  0.40436700  0.80873398  1
