# generated using pymatgen
data_Ca4Mg4SnPd3
_symmetry_space_group_name_H-M   'P 1'
_cell_length_a   4.66424513
_cell_length_b   7.83942223
_cell_length_c   8.62694073
_cell_angle_alpha   90.00000000
_cell_angle_beta   90.00000000
_cell_angle_gamma   90.00000000
_symmetry_Int_Tables_number   1
_chemical_formula_structural   Ca4Mg4SnPd3
_chemical_formula_sum   'Ca4 Mg4 Sn1 Pd3'
_cell_volume   315.44397493
_cell_formula_units_Z   1
loop_
 _symmetry_equiv_pos_site_id
 _symmetry_equiv_pos_as_xyz
  1  'x, y, z'
loop_
 _atom_site_type_symbol
 _atom_site_label
 _atom_site_symmetry_multiplicity
 _atom_site_fract_x
 _atom_site_fract_y
 _atom_site_fract_z
 _atom_site_occupancy
  Ca  Ca0  1  0.24999999  0.51368999  0.31429401  1
  Ca  Ca1  1  0.24999999  0.01369000  0.18570601  1
  Ca  Ca2  1  0.74999998  0.48630999  0.68570602  1
  Ca  Ca3  1  0.74999998  0.98630997  0.81429403  1
  Mg  Mg4  1  0.24999999  0.64912698  0.93343303  1
  Mg  Mg5  1  0.24999999  0.14912700  0.56656702  1
  Mg  Mg6  1  0.74999998  0.35087299  0.06656700  1
  Mg  Mg7  1  0.74999998  0.85087298  0.43343301  1
  Sn  Sn8  1  0.24999999  0.27555299  0.88851503  1
  Pd  Pd9  1  0.24999999  0.77555298  0.61148502  1
  Pd  Pd10  1  0.74999998  0.72444698  0.11148500  1
  Pd  Pd11  1  0.74999998  0.22444699  0.38851501  1
