# generated using pymatgen
data_LuInSn14
_symmetry_space_group_name_H-M   'P 1'
_cell_length_a   4.13760996
_cell_length_b   4.13760996
_cell_length_c   16.73984718
_cell_angle_alpha   90.00000000
_cell_angle_beta   90.00000000
_cell_angle_gamma   90.00000000
_symmetry_Int_Tables_number   1
_chemical_formula_structural   LuInSn14
_chemical_formula_sum   'Lu1 In1 Sn14'
_cell_volume   286.58310649
_cell_formula_units_Z   1
loop_
 _symmetry_equiv_pos_site_id
 _symmetry_equiv_pos_as_xyz
  1  'x, y, z'
loop_
 _atom_site_type_symbol
 _atom_site_label
 _atom_site_symmetry_multiplicity
 _atom_site_fract_x
 _atom_site_fract_y
 _atom_site_fract_z
 _atom_site_occupancy
  Lu  Lu0  1  0.00000000  0.00000000  0.87417504  1
  In  In1  1  0.00000000  0.00000000  0.12552101  1
  Sn  Sn2  1  0.50000000  0.50000000  0.62434303  1
  Sn  Sn3  1  0.50000000  0.00000000  0.00032500  1
  Sn  Sn4  1  -0.00000000  0.50000000  0.50321502  1
  Sn  Sn5  1  0.50000000  0.00000000  0.50321502  1
  Sn  Sn6  1  -0.00000000  0.50000000  0.00032500  1
  Sn  Sn7  1  0.50000000  0.50000000  0.12455001  1
  Sn  Sn8  1  0.00000000  0.00000000  0.62520603  1
  Sn  Sn9  1  0.00000000  0.00000000  0.37595302  1
  Sn  Sn10  1  0.50000000  0.50000000  0.87647304  1
  Sn  Sn11  1  -0.00000000  0.50000000  0.24704501  1
  Sn  Sn12  1  0.50000000  0.00000000  0.74976204  1
  Sn  Sn13  1  0.50000000  0.00000000  0.24704501  1
  Sn  Sn14  1  -0.00000000  0.50000000  0.74976204  1
  Sn  Sn15  1  0.50000000  0.50000000  0.37308402  1
