# generated using pymatgen
data_Li3CoO3
_symmetry_space_group_name_H-M   'P 1'
_cell_length_a   5.84361172
_cell_length_b   5.84361172
_cell_length_c   5.84361172
_cell_angle_alpha   91.80669403
_cell_angle_beta   118.96244812
_cell_angle_gamma   118.96244812
_symmetry_Int_Tables_number   1
_chemical_formula_structural   Li3CoO3
_chemical_formula_sum   'Li6 Co2 O6'
_cell_volume   143.23642541
_cell_formula_units_Z   2
loop_
 _symmetry_equiv_pos_site_id
 _symmetry_equiv_pos_as_xyz
  1  'x, y, z'
loop_
 _atom_site_type_symbol
 _atom_site_label
 _atom_site_symmetry_multiplicity
 _atom_site_fract_x
 _atom_site_fract_y
 _atom_site_fract_z
 _atom_site_occupancy
  Li  Li0  1  0.50000010  0.75000003  0.25000009  1
  Li  Li1  1  0.00000000  0.00000000  0.00000000  1
  Li  Li2  1  0.75000005  0.37500002  0.62500006  1
  Li  Li3  1  0.25000012  0.87500004  0.62500008  1
  Li  Li4  1  0.25000005  0.37500002  0.62500004  1
  Li  Li5  1  0.75000005  0.37500002  0.12500007  1
  Co  Co6  1  0.70657408  0.58813003  0.84042507  1
  Co  Co7  1  0.74770502  0.15957501  0.86614903  1
  O  O8  1  0.25229502  0.11844401  0.41187002  1
  O  O9  1  0.20657408  0.61614903  0.36844406  1
  O  O10  1  0.24770508  0.63155603  0.83813006  1
  O  O11  1  0.75229508  0.59042503  0.38385109  1
  O  O12  1  0.29342602  0.13385101  0.88155601  1
  O  O13  1  0.79342602  0.16187001  0.40957505  1
