# generated using pymatgen
data_Nd9Sn11
_symmetry_space_group_name_H-M   'P 1'
_cell_length_a   7.92578506
_cell_length_b   8.54442692
_cell_length_c   8.54442692
_cell_angle_alpha   90.00000000
_cell_angle_beta   90.00000000
_cell_angle_gamma   90.00000000
_symmetry_Int_Tables_number   1
_chemical_formula_structural   Nd9Sn11
_chemical_formula_sum   'Nd9 Sn11'
_cell_volume   578.63962391
_cell_formula_units_Z   1
loop_
 _symmetry_equiv_pos_site_id
 _symmetry_equiv_pos_as_xyz
  1  'x, y, z'
loop_
 _atom_site_type_symbol
 _atom_site_label
 _atom_site_symmetry_multiplicity
 _atom_site_fract_x
 _atom_site_fract_y
 _atom_site_fract_z
 _atom_site_occupancy
  Nd  Nd0  1  0.00000000  0.70627501  0.29372500  1
  Nd  Nd1  1  -0.00000000  0.29372500  0.70627501  1
  Nd  Nd2  1  0.50000000  0.20627500  0.20627500  1
  Nd  Nd3  1  0.25000000  1.00000001  0.50000000  1
  Nd  Nd4  1  0.74999999  0.50000000  0.00000000  1
  Nd  Nd5  1  0.00000000  0.14147000  0.14147000  1
  Nd  Nd6  1  0.50000000  0.35853000  0.64147001  1
  Nd  Nd7  1  0.50000000  0.64147001  0.35853000  1
  Nd  Nd8  1  0.00000000  0.85853001  0.85853001  1
  Sn  Sn9  1  0.25000000  0.50000000  0.00000000  1
  Sn  Sn10  1  0.50000000  0.79372501  0.79372501  1
  Sn  Sn11  1  0.74999999  1.00000001  0.50000000  1
  Sn  Sn12  1  0.30619700  0.87315201  0.12684800  1
  Sn  Sn13  1  0.80619699  0.37315200  0.37315200  1
  Sn  Sn14  1  0.19380300  0.37315200  0.37315200  1
  Sn  Sn15  1  0.69380299  0.87315201  0.12684800  1
  Sn  Sn16  1  0.30619700  0.12684800  0.87315201  1
  Sn  Sn17  1  0.80619699  0.62684801  0.62684801  1
  Sn  Sn18  1  0.19380300  0.62684801  0.62684801  1
  Sn  Sn19  1  0.69380299  0.12684800  0.87315201  1
