# generated using pymatgen
data_Li5Co2O9
_symmetry_space_group_name_H-M   'P 1'
_cell_length_a   5.72247982
_cell_length_b   5.78658056
_cell_length_c   5.78658056
_cell_angle_alpha   60.33215714
_cell_angle_beta   60.36576843
_cell_angle_gamma   60.36576843
_symmetry_Int_Tables_number   1
_chemical_formula_structural   Li5Co2O9
_chemical_formula_sum   'Li5 Co2 O9'
_cell_volume   136.57859200
_cell_formula_units_Z   1
loop_
 _symmetry_equiv_pos_site_id
 _symmetry_equiv_pos_as_xyz
  1  'x, y, z'
loop_
 _atom_site_type_symbol
 _atom_site_label
 _atom_site_symmetry_multiplicity
 _atom_site_fract_x
 _atom_site_fract_y
 _atom_site_fract_z
 _atom_site_occupancy
  Li  Li0  1  0.50000002  0.49999999  0.00000001  1
  Li  Li1  1  0.50000002  0.99999999  1.00000001  1
  Li  Li2  1  0.00000001  0.49999999  1.00000000  1
  Li  Li3  1  0.50000002  0.49999999  0.50000001  1
  Li  Li4  1  0.50000001  0.00000000  0.50000001  1
  Co  Co5  1  0.00000001  0.99999999  0.50000000  1
  Co  Co6  1  0.00000001  0.49999999  0.50000000  1
  O  O7  1  0.00000000  0.00000000  0.00000000  1
  O  O8  1  0.24607602  0.77720699  0.73064200  1
  O  O9  1  0.77324702  0.23563000  0.73562901  1
  O  O10  1  0.24607501  0.23064300  0.27720700  1
  O  O11  1  0.25549501  0.23562900  0.73562900  1
  O  O12  1  0.74450503  0.76437099  0.26437101  1
  O  O13  1  0.75392503  0.76935699  0.72279301  1
  O  O14  1  0.22675302  0.76436999  0.26437100  1
  O  O15  1  0.75392402  0.22279300  0.26935801  1
