# generated using pymatgen
data_Ca2MgAl7Ge4
_symmetry_space_group_name_H-M   'P 1'
_cell_length_a   5.55226898
_cell_length_b   5.55226898
_cell_length_c   9.31448269
_cell_angle_alpha   82.34611511
_cell_angle_beta   82.34611511
_cell_angle_gamma   89.65814209
_symmetry_Int_Tables_number   1
_chemical_formula_structural   Ca2MgAl7Ge4
_chemical_formula_sum   'Ca2 Mg1 Al7 Ge4'
_cell_volume   282.03003322
_cell_formula_units_Z   1
loop_
 _symmetry_equiv_pos_site_id
 _symmetry_equiv_pos_as_xyz
  1  'x, y, z'
loop_
 _atom_site_type_symbol
 _atom_site_label
 _atom_site_symmetry_multiplicity
 _atom_site_fract_x
 _atom_site_fract_y
 _atom_site_fract_z
 _atom_site_occupancy
  Ca  Ca0  1  0.31518202  0.68481799  0.74999995  1
  Ca  Ca1  1  0.68481800  0.31518200  0.24999996  1
  Al  Al2  1  0.04161201  0.15611300  0.86415798  1
  Mg  Mg3  1  0.84388703  0.95838799  0.63584193  1
  Al  Al4  1  0.95838802  0.84388699  0.13584194  1
  Al  Al5  1  0.15611300  0.04161200  0.36415799  1
  Ge  Ge6  1  0.77819201  0.61762299  0.91872694  1
  Ge  Ge7  1  0.38237700  0.22180800  0.58127297  1
  Al  Al8  1  0.22180801  0.38237700  0.08127298  1
  Al  Al9  1  0.61762302  0.77819199  0.41872695  1
  Al  Al10  1  0.83502201  0.45847299  0.62839295  1
  Al  Al11  1  0.54152700  0.16497800  0.87160696  1
  Ge  Ge12  1  0.16497802  0.54152699  0.37160697  1
  Ge  Ge13  1  0.45847303  0.83502199  0.12839296  1
