# generated using pymatgen
data_LiCoO3
_symmetry_space_group_name_H-M   'P 1'
_cell_length_a   5.16619921
_cell_length_b   5.52231026
_cell_length_c   8.94865990
_cell_angle_alpha   105.66773987
_cell_angle_beta   90.00462341
_cell_angle_gamma   117.88309479
_symmetry_Int_Tables_number   1
_chemical_formula_structural   LiCoO3
_chemical_formula_sum   'Li4 Co4 O12'
_cell_volume   214.86660659
_cell_formula_units_Z   4
loop_
 _symmetry_equiv_pos_site_id
 _symmetry_equiv_pos_as_xyz
  1  'x, y, z'
loop_
 _atom_site_type_symbol
 _atom_site_label
 _atom_site_symmetry_multiplicity
 _atom_site_fract_x
 _atom_site_fract_y
 _atom_site_fract_z
 _atom_site_occupancy
  Li  Li0  1  0.73853798  0.47729501  0.24625401  1
  Li  Li1  1  0.23875700  0.47734401  0.74612501  1
  Li  Li2  1  0.17330300  0.34665301  0.39109700  1
  Li  Li3  1  0.67352998  0.34704401  0.89117702  1
  Co  Co4  1  0.97902198  0.95813402  0.99289602  1
  Co  Co5  1  0.47907800  0.95790202  0.49305900  1
  Co  Co6  1  0.93777498  0.87538802  0.64587301  1
  Co  Co7  1  0.43776000  0.87540002  0.14591000  1
  O  O8  1  0.86935897  0.14999100  0.19304402  1
  O  O9  1  0.36919199  0.15013600  0.69303501  1
  O  O10  1  0.42587799  0.15015100  0.33817701  1
  O  O11  1  0.92594197  0.15011000  0.83802803  1
  O  O12  1  0.42996699  0.15012900  0.04397601  1
  O  O13  1  0.92976397  0.15006100  0.54384502  1
  O  O14  1  0.00744601  0.66579801  0.09549199  1
  O  O15  1  0.50750699  0.66592001  0.59546001  1
  O  O16  1  0.01896801  0.66589901  0.45602900  1
  O  O17  1  0.51902999  0.66580701  0.95602601  1
  O  O18  1  0.47223000  0.66582201  0.28151200  1
  O  O19  1  0.97227498  0.66565601  0.78142602  1
