# generated using pymatgen
data_BaCaLaFeO5
_symmetry_space_group_name_H-M   'P 1'
_cell_length_a   4.05970383
_cell_length_b   4.05970383
_cell_length_c   10.27223301
_cell_angle_alpha   101.39698029
_cell_angle_beta   101.39698029
_cell_angle_gamma   90.00000000
_symmetry_Int_Tables_number   1
_chemical_formula_structural   BaCaLaFeO5
_chemical_formula_sum   'Ba1 Ca1 La1 Fe1 O5'
_cell_volume   162.55353276
_cell_formula_units_Z   1
loop_
 _symmetry_equiv_pos_site_id
 _symmetry_equiv_pos_as_xyz
  1  'x, y, z'
loop_
 _atom_site_type_symbol
 _atom_site_label
 _atom_site_symmetry_multiplicity
 _atom_site_fract_x
 _atom_site_fract_y
 _atom_site_fract_z
 _atom_site_occupancy
  Ca  Ca0  1  0.32329701  0.32329701  0.64659400  1
  Ba  Ba1  1  0.67670301  0.67670302  0.35340598  1
  La  La2  1  0.50000002  0.00000000  -0.00000001  1
  Fe  Fe3  1  -0.00000001  0.50000002  -0.00000001  1
  O  O4  1  0.90850502  0.90850503  0.81700999  1
  O  O5  1  0.09149500  0.09149500  0.18299000  1
  O  O6  1  0.50000001  0.50000002  -0.00000002  1
  O  O7  1  0.25000000  0.75000003  0.49999999  1
  O  O8  1  0.75000002  0.25000001  0.49999999  1
