# generated using pymatgen
data_Li2MnO6
_symmetry_space_group_name_H-M   'P 1'
_cell_length_a   5.09574604
_cell_length_b   5.11616421
_cell_length_c   5.58076811
_cell_angle_alpha   63.40991974
_cell_angle_beta   88.13980865
_cell_angle_gamma   118.45390320
_symmetry_Int_Tables_number   1
_chemical_formula_structural   Li2MnO6
_chemical_formula_sum   'Li2 Mn1 O6'
_cell_volume   108.65862497
_cell_formula_units_Z   1
loop_
 _symmetry_equiv_pos_site_id
 _symmetry_equiv_pos_as_xyz
  1  'x, y, z'
loop_
 _atom_site_type_symbol
 _atom_site_label
 _atom_site_symmetry_multiplicity
 _atom_site_fract_x
 _atom_site_fract_y
 _atom_site_fract_z
 _atom_site_occupancy
  Li  Li0  1  0.34689501  0.68596102  0.93839497  1
  Li  Li1  1  0.13670600  0.26776601  0.56523099  1
  Mn  Mn2  1  0.64521301  0.31735501  0.01068802  1
  O  O3  1  0.06849401  0.46447601  0.78592797  1
  O  O4  1  0.75077201  0.81865802  0.75695699  1
  O  O5  1  0.39930900  0.11879300  0.79970700  1
  O  O6  1  0.31114401  0.27923701  0.23348600  1
  O  O7  1  0.51936401  0.81362502  0.25993299  1
  O  O8  1  0.92910801  0.46589301  0.24545602  1
