# generated using pymatgen
data_LiPd3
_symmetry_space_group_name_H-M   'P 1'
_cell_length_a   4.03183413
_cell_length_b   4.03183365
_cell_length_c   5.67355919
_cell_angle_alpha   90.00000000
_cell_angle_beta   90.00000000
_cell_angle_gamma   120.00000763
_symmetry_Int_Tables_number   1
_chemical_formula_structural   LiPd3
_chemical_formula_sum   'Li1 Pd3'
_cell_volume   79.87142811
_cell_formula_units_Z   1
loop_
 _symmetry_equiv_pos_site_id
 _symmetry_equiv_pos_as_xyz
  1  'x, y, z'
loop_
 _atom_site_type_symbol
 _atom_site_label
 _atom_site_symmetry_multiplicity
 _atom_site_fract_x
 _atom_site_fract_y
 _atom_site_fract_z
 _atom_site_occupancy
  Li  Li0  1  0.33333336  0.66666665  0.24999999  1
  Pd  Pd1  1  0.66666667  0.33333332  0.74999998  1
  Pd  Pd2  1  0.00000000  0.00000000  0.49999998  1
  Pd  Pd3  1  0.00000000  0.00000000  0.00000000  1
