# generated using pymatgen
data_Hf5Ni8
_symmetry_space_group_name_H-M   'P 1'
_cell_length_a   5.06497192
_cell_length_b   6.75858641
_cell_length_c   6.75858641
_cell_angle_alpha   81.92871857
_cell_angle_beta   67.99382782
_cell_angle_gamma   67.99382782
_symmetry_Int_Tables_number   1
_chemical_formula_structural   Hf5Ni8
_chemical_formula_sum   'Hf5 Ni8'
_cell_volume   198.87614554
_cell_formula_units_Z   1
loop_
 _symmetry_equiv_pos_site_id
 _symmetry_equiv_pos_as_xyz
  1  'x, y, z'
loop_
 _atom_site_type_symbol
 _atom_site_label
 _atom_site_symmetry_multiplicity
 _atom_site_fract_x
 _atom_site_fract_y
 _atom_site_fract_z
 _atom_site_occupancy
  Hf  Hf0  1  0.00000000  0.00000000  0.00000000  1
  Hf  Hf1  1  0.66548702  0.33451300  0.33451298  1
  Hf  Hf2  1  0.33451301  0.66548701  0.66548696  1
  Ni  Ni3  1  1.00000003  0.66548701  0.33451296  1
  Ni  Ni4  1  0.00000000  0.33451300  0.66548698  1
  Hf  Hf5  1  0.72138602  0.77861401  0.77861395  1
  Hf  Hf6  1  0.27861401  0.22138600  0.22138599  1
  Ni  Ni7  1  0.50000001  0.22138600  0.77861399  1
  Ni  Ni8  1  0.50000002  0.77861401  0.22138595  1
  Ni  Ni9  1  0.50000001  0.50000000  0.99999997  1
  Ni  Ni10  1  0.00000000  0.50000000  -0.00000003  1
  Ni  Ni11  1  0.50000001  0.00000000  0.50000000  1
  Ni  Ni12  1  0.00000000  0.00000000  0.50000000  1
