# generated using pymatgen
data_Nd2Zr7Te4O5
_symmetry_space_group_name_H-M   'P 1'
_cell_length_a   5.79385424
_cell_length_b   8.49705601
_cell_length_c   8.49705601
_cell_angle_alpha   120.00000000
_cell_angle_beta   90.00000000
_cell_angle_gamma   90.00000000
_symmetry_Int_Tables_number   1
_chemical_formula_structural   Nd2Zr7Te4O5
_chemical_formula_sum   'Nd2 Zr7 Te4 O5'
_cell_volume   362.27232500
_cell_formula_units_Z   1
loop_
 _symmetry_equiv_pos_site_id
 _symmetry_equiv_pos_as_xyz
  1  'x, y, z'
loop_
 _atom_site_type_symbol
 _atom_site_label
 _atom_site_symmetry_multiplicity
 _atom_site_fract_x
 _atom_site_fract_y
 _atom_site_fract_z
 _atom_site_occupancy
  Nd  Nd0  1  0.24999999  0.99999999  0.77080095  1
  Nd  Nd1  1  0.74999997  0.99999999  0.22919897  1
  Zr  Zr2  1  0.99999996  0.66666666  0.33333330  1
  Zr  Zr3  1  0.49999998  0.66666666  0.33333330  1
  Zr  Zr4  1  0.24999999  0.77080099  -0.00000002  1
  Zr  Zr5  1  0.74999997  0.77080099  0.77080095  1
  Zr  Zr6  1  0.74999997  0.22919900  -0.00000001  1
  Zr  Zr7  1  -0.00000000  0.33333333  0.66666663  1
  Te  Te8  1  0.49999998  0.33333333  0.66666663  1
  Zr  Zr9  1  0.24999999  0.22919900  0.22919899  1
  Te  Te10  1  0.74999997  0.99999999  0.59741895  1
  O  O11  1  0.24999999  0.99999999  0.40258096  1
  Te  Te12  1  0.74999997  0.59741899  0.99999995  1
  O  O13  1  0.24999999  0.40258099  -0.00000001  1
  O  O14  1  0.24999999  0.59741899  0.59741896  1
  Te  Te15  1  0.74999997  0.40258099  0.40258098  1
  O  O16  1  0.00000000  0.00000000  0.00000000  1
  O  O17  1  0.49999998  0.00000000  -0.00000000  1
