# generated using pymatgen
data_Fe2SiBIrRu4
_symmetry_space_group_name_H-M   'P 1'
_cell_length_a   3.53920197
_cell_length_b   5.98709393
_cell_length_c   5.98709440
_cell_angle_alpha   120.00000000
_cell_angle_beta   90.00000000
_cell_angle_gamma   90.00000000
_symmetry_Int_Tables_number   1
_chemical_formula_structural   Fe2SiBIrRu4
_chemical_formula_sum   'Fe2 Si1 B1 Ru4 Ir1'
_cell_volume   109.86722535
_cell_formula_units_Z   1
loop_
 _symmetry_equiv_pos_site_id
 _symmetry_equiv_pos_as_xyz
  1  'x, y, z'
loop_
 _atom_site_type_symbol
 _atom_site_label
 _atom_site_symmetry_multiplicity
 _atom_site_fract_x
 _atom_site_fract_y
 _atom_site_fract_z
 _atom_site_occupancy
  Fe  Fe0  1  1.00000001  0.25581201  1.00000002  1
  Fe  Fe1  1  1.00000001  0.74418803  0.74418804  1
  Si  Si2  1  0.00000000  0.00000000  0.25581200  1
  Ru  Ru3  1  0.50000000  0.59770102  1.00000003  1
  Ir  Ir4  1  0.50000000  0.40229901  0.40229902  1
  Ru  Ru5  1  0.50000000  0.00000000  0.59770100  1
  Ru  Ru6  1  1.00000001  0.33333335  0.66666669  1
  B  B7  1  1.00000001  0.66666669  0.33333337  1
  Ru  Ru8  1  0.50000000  0.00000000  -0.00000000  1
