# generated using pymatgen
data_Dy2Lu(InPd)3
_symmetry_space_group_name_H-M   'P 1'
_cell_length_a   4.17432880
_cell_length_b   7.59541607
_cell_length_c   7.59541559
_cell_angle_alpha   120.00000000
_cell_angle_beta   90.00000000
_cell_angle_gamma   90.00000000
_symmetry_Int_Tables_number   1
_chemical_formula_structural   Dy2Lu(InPd)3
_chemical_formula_sum   'Dy2 Lu1 In3 Pd3'
_cell_volume   208.55489958
_cell_formula_units_Z   1
loop_
 _symmetry_equiv_pos_site_id
 _symmetry_equiv_pos_as_xyz
  1  'x, y, z'
loop_
 _atom_site_type_symbol
 _atom_site_label
 _atom_site_symmetry_multiplicity
 _atom_site_fract_x
 _atom_site_fract_y
 _atom_site_fract_z
 _atom_site_occupancy
  Dy  Dy0  1  -0.00000000  0.58763799  -0.00000001  1
  Dy  Dy1  1  -0.00000000  0.41236199  0.41236201  1
  Lu  Lu2  1  -0.00000000  0.00000000  0.58763802  1
  In  In3  1  0.50000002  0.00000000  0.25208901  1
  In  In4  1  0.50000002  0.25208900  -0.00000000  1
  In  In5  1  0.50000002  0.74791099  0.74791101  1
  Pd  Pd6  1  0.50000002  0.66666666  0.33333333  1
  Pd  Pd7  1  0.00000000  0.00000000  0.00000000  1
  Pd  Pd8  1  0.50000002  0.33333333  0.66666668  1
