# generated using pymatgen
data_BaSr2Ca(AsP)2
_symmetry_space_group_name_H-M   'P 1'
_cell_length_a   4.09047604
_cell_length_b   4.09047604
_cell_length_c   16.07669258
_cell_angle_alpha   90.00000000
_cell_angle_beta   90.00000000
_cell_angle_gamma   120.00000000
_symmetry_Int_Tables_number   1
_chemical_formula_structural   BaSr2Ca(AsP)2
_chemical_formula_sum   'Ba1 Sr2 Ca1 As2 P2'
_cell_volume   232.95661352
_cell_formula_units_Z   1
loop_
 _symmetry_equiv_pos_site_id
 _symmetry_equiv_pos_as_xyz
  1  'x, y, z'
loop_
 _atom_site_type_symbol
 _atom_site_label
 _atom_site_symmetry_multiplicity
 _atom_site_fract_x
 _atom_site_fract_y
 _atom_site_fract_z
 _atom_site_occupancy
  Ba  Ba0  1  0.66666666  0.33333332  0.75000002  1
  Sr  Sr1  1  0.33333332  0.66666664  0.25000001  1
  Sr  Sr2  1  0.00000000  0.00000000  0.50000001  1
  Ca  Ca3  1  0.00000000  0.00000000  0.00000000  1
  As  As4  1  0.66666666  0.33333332  0.09032500  1
  P  P5  1  0.33333332  0.66666664  0.90967502  1
  P  P6  1  0.33333332  0.66666664  0.59032502  1
  As  As7  1  0.66666666  0.33333332  0.40967501  1
