# generated using pymatgen
data_CeSi4
_symmetry_space_group_name_H-M   'P 1'
_cell_length_a   4.30595779
_cell_length_b   4.30595779
_cell_length_c   5.84634066
_cell_angle_alpha   111.60840607
_cell_angle_beta   111.60840607
_cell_angle_gamma   90.00000000
_symmetry_Int_Tables_number   1
_chemical_formula_structural   CeSi4
_chemical_formula_sum   'Ce1 Si4'
_cell_volume   92.53759793
_cell_formula_units_Z   1
loop_
 _symmetry_equiv_pos_site_id
 _symmetry_equiv_pos_as_xyz
  1  'x, y, z'
loop_
 _atom_site_type_symbol
 _atom_site_label
 _atom_site_symmetry_multiplicity
 _atom_site_fract_x
 _atom_site_fract_y
 _atom_site_fract_z
 _atom_site_occupancy
  Ce  Ce0  1  0.00000000  0.00000000  0.00000000  1
  Si  Si1  1  0.62041104  0.62041103  0.24082201  1
  Si  Si2  1  0.37958902  0.37958902  0.75917802  1
  Si  Si3  1  0.25000002  0.75000004  0.50000002  1
  Si  Si4  1  0.75000004  0.25000001  0.50000001  1
