# generated using pymatgen
data_Sr3CaAs3O4
_symmetry_space_group_name_H-M   'P 1'
_cell_length_a   4.52768803
_cell_length_b   4.52768803
_cell_length_c   11.45565701
_cell_angle_alpha   101.39769745
_cell_angle_beta   101.39769745
_cell_angle_gamma   90.00000000
_symmetry_Int_Tables_number   1
_chemical_formula_structural   Sr3CaAs3O4
_chemical_formula_sum   'Sr3 Ca1 As3 O4'
_cell_volume   225.48287063
_cell_formula_units_Z   1
loop_
 _symmetry_equiv_pos_site_id
 _symmetry_equiv_pos_as_xyz
  1  'x, y, z'
loop_
 _atom_site_type_symbol
 _atom_site_label
 _atom_site_symmetry_multiplicity
 _atom_site_fract_x
 _atom_site_fract_y
 _atom_site_fract_z
 _atom_site_occupancy
  Sr  Sr0  1  0.68422397  0.68422399  0.36844796  1
  Sr  Sr1  1  0.49999998  0.49999999  0.99999996  1
  Sr  Sr2  1  0.31577599  0.31577599  0.63155197  1
  Ca  Ca3  1  0.90047296  0.90047298  0.80094594  1
  As  As4  1  0.09952700  0.09952700  0.19905399  1
  As  As5  1  0.08683198  0.58683199  0.17366398  1
  As  As6  1  0.41316797  0.91316798  0.82633595  1
  O  O7  1  0.79946197  0.79946199  0.59892395  1
  O  O8  1  0.20053799  0.20053800  0.40107598  1
  O  O9  1  0.58683199  0.08683200  0.17366398  1
  O  O10  1  0.91316797  0.41316799  0.82633595  1
