# generated using pymatgen
data_BaO2
_symmetry_space_group_name_H-M   'P 1'
_cell_length_a   4.90985012
_cell_length_b   7.40494204
_cell_length_c   7.40494299
_cell_angle_alpha   119.99999237
_cell_angle_beta   90.00000000
_cell_angle_gamma   90.00000000
_symmetry_Int_Tables_number   1
_chemical_formula_structural   BaO2
_chemical_formula_sum   'Ba4 O8'
_cell_volume   233.15368429
_cell_formula_units_Z   4
loop_
 _symmetry_equiv_pos_site_id
 _symmetry_equiv_pos_as_xyz
  1  'x, y, z'
loop_
 _atom_site_type_symbol
 _atom_site_label
 _atom_site_symmetry_multiplicity
 _atom_site_fract_x
 _atom_site_fract_y
 _atom_site_fract_z
 _atom_site_occupancy
  Ba  Ba0  1  0.49999999  0.00000000  -0.00000000  1
  Ba  Ba1  1  0.99999998  0.49999998  0.49999997  1
  Ba  Ba2  1  0.00000000  0.00000000  0.50000000  1
  Ba  Ba3  1  0.99999998  0.49999998  -0.00000003  1
  O  O4  1  0.78605298  0.66666664  0.33333329  1
  O  O5  1  0.21394699  0.33333332  0.66666664  1
  O  O6  1  0.70123598  0.88977497  0.77954994  1
  O  O7  1  0.29876399  0.11022500  0.22044999  1
  O  O8  1  0.70123598  0.88977497  0.11022494  1
  O  O9  1  0.29876399  0.11022500  0.88977499  1
  O  O10  1  0.29876399  0.77954997  0.88977495  1
  O  O11  1  0.70123598  0.22044999  0.11022498  1
