# generated using pymatgen
data_UFeMoRu3
_symmetry_space_group_name_H-M   'P 1'
_cell_length_a   4.78245401
_cell_length_b   4.78290462
_cell_length_c   4.99981451
_cell_angle_alpha   76.16603851
_cell_angle_beta   61.42797470
_cell_angle_gamma   60.00311661
_symmetry_Int_Tables_number   1
_chemical_formula_structural   UFeMoRu3
_chemical_formula_sum   'U1 Fe1 Mo1 Ru3'
_cell_volume   86.98459065
_cell_formula_units_Z   1
loop_
 _symmetry_equiv_pos_site_id
 _symmetry_equiv_pos_as_xyz
  1  'x, y, z'
loop_
 _atom_site_type_symbol
 _atom_site_label
 _atom_site_symmetry_multiplicity
 _atom_site_fract_x
 _atom_site_fract_y
 _atom_site_fract_z
 _atom_site_occupancy
  U  U0  1  0.91883199  0.16233600  0.50000002  1
  Fe  Fe1  1  0.58116799  0.83766400  0.50000001  1
  Ru  Ru2  1  0.83116799  0.33766400  0.00000002  1
  Mo  Mo3  1  0.16883200  0.66233600  0.00000000  1
  Ru  Ru4  1  0.25000000  0.50000000  0.50000000  1
  Ru  Ru5  1  0.49999999  0.00000000  0.00000001  1
