# generated using pymatgen
data_Li8CoO10
_symmetry_space_group_name_H-M   'P 1'
_cell_length_a   5.04322004
_cell_length_b   5.38735056
_cell_length_c   7.60300398
_cell_angle_alpha   104.48031616
_cell_angle_beta   102.75673676
_cell_angle_gamma   105.40019226
_symmetry_Int_Tables_number   1
_chemical_formula_structural   Li8CoO10
_chemical_formula_sum   'Li8 Co1 O10'
_cell_volume   183.47273721
_cell_formula_units_Z   1
loop_
 _symmetry_equiv_pos_site_id
 _symmetry_equiv_pos_as_xyz
  1  'x, y, z'
loop_
 _atom_site_type_symbol
 _atom_site_label
 _atom_site_symmetry_multiplicity
 _atom_site_fract_x
 _atom_site_fract_y
 _atom_site_fract_z
 _atom_site_occupancy
  Li  Li0  1  0.22272207  0.89992798  0.39655500  1
  Li  Li1  1  0.39583202  0.29294799  0.77647999  1
  Li  Li2  1  0.60416805  0.70705199  0.22352001  1
  Li  Li3  1  0.77727801  0.10007200  0.60344501  1
  Li  Li4  1  0.09649205  0.67558299  0.69075198  1
  Li  Li5  1  0.90350803  0.32441699  0.30924802  1
  Li  Li6  1  0.00000004  0.49999999  0.00000000  1
  Li  Li7  1  0.69432007  0.88296798  0.89629600  1
  Co  Co8  1  0.30568001  0.11703200  0.10370401  1
  O  O9  1  0.05370800  0.02565100  0.84145298  1
  O  O10  1  0.34074405  0.66327099  0.92439599  1
  O  O11  1  0.11608503  0.33072599  0.54824199  1
  O  O12  1  0.44722107  0.90574398  0.67769600  1
  O  O13  1  0.21472904  0.52121299  0.23622200  1
  O  O14  1  0.78527104  0.47878699  0.76377800  1
  O  O15  1  0.55277901  0.09425600  0.32230401  1
  O  O16  1  0.88391505  0.66927399  0.45175801  1
  O  O17  1  0.65925603  0.33672899  0.07560402  1
  O  O18  1  0.94629207  0.97434898  0.15854703  1
