# generated using pymatgen
data_Ba3BiTeO5
_symmetry_space_group_name_H-M   'P 1'
_cell_length_a   7.49488115
_cell_length_b   7.50910521
_cell_length_c   9.03745556
_cell_angle_alpha   90.00000000
_cell_angle_beta   80.15386200
_cell_angle_gamma   90.00000000
_symmetry_Int_Tables_number   1
_chemical_formula_structural   Ba3BiTeO5
_chemical_formula_sum   'Ba6 Bi2 Te2 O10'
_cell_volume   501.13484491
_cell_formula_units_Z   2
loop_
 _symmetry_equiv_pos_site_id
 _symmetry_equiv_pos_as_xyz
  1  'x, y, z'
loop_
 _atom_site_type_symbol
 _atom_site_label
 _atom_site_symmetry_multiplicity
 _atom_site_fract_x
 _atom_site_fract_y
 _atom_site_fract_z
 _atom_site_occupancy
  Ba  Ba0  1  0.75493998  0.55252798  0.85738799  1
  Ba  Ba1  1  0.25493999  0.94747197  0.85738797  1
  Ba  Ba2  1  0.67509298  0.14834000  0.57390300  1
  Ba  Ba3  1  0.17509299  0.35165999  0.57390298  1
  Ba  Ba4  1  0.82490698  0.64833998  0.42609702  1
  Ba  Ba5  1  0.32490699  0.85165998  0.42609699  1
  Bi  Bi6  1  0.74505998  0.05252800  0.14261203  1
  Bi  Bi7  1  0.24505999  0.44747199  0.14261200  1
  O  O8  1  0.52858198  0.22300699  0.92135398  1
  Te  Te9  1  0.02858200  0.27699299  0.92135396  1
  O  O10  1  0.93408297  0.87052398  0.67987901  1
  Te  Te11  1  0.43408299  0.62947598  0.67987899  1
  O  O12  1  0.56591698  0.37052399  0.32012101  1
  O  O13  1  0.06591700  0.12947600  0.32012099  1
  O  O14  1  0.97141797  0.72300698  0.07864604  1
  O  O15  1  0.47141799  0.77699298  0.07864602  1
  O  O16  1  0.85120897  0.41631099  0.61455801  1
  O  O17  1  0.35120899  0.08368900  0.61455799  1
  O  O18  1  0.64879098  0.91631097  0.38544201  1
  O  O19  1  0.14879100  0.58368898  0.38544199  1
