# generated using pymatgen
data_Mg3PO6
_symmetry_space_group_name_H-M   'P 1'
_cell_length_a   4.65098667
_cell_length_b   4.73183584
_cell_length_c   7.06529999
_cell_angle_alpha   70.43569946
_cell_angle_beta   71.51037598
_cell_angle_gamma   90.00000000
_symmetry_Int_Tables_number   1
_chemical_formula_structural   Mg3PO6
_chemical_formula_sum   'Mg3 P1 O6'
_cell_volume   137.96642679
_cell_formula_units_Z   1
loop_
 _symmetry_equiv_pos_site_id
 _symmetry_equiv_pos_as_xyz
  1  'x, y, z'
loop_
 _atom_site_type_symbol
 _atom_site_label
 _atom_site_symmetry_multiplicity
 _atom_site_fract_x
 _atom_site_fract_y
 _atom_site_fract_z
 _atom_site_occupancy
  Mg  Mg0  1  0.79018502  0.60628603  0.36843500  1
  Mg  Mg1  1  0.20981501  0.97472105  0.63156496  1
  Mg  Mg2  1  0.47520301  0.23166301  0.60527000  1
  O  O3  1  0.52479702  0.83693304  0.39472998  1
  O  O4  1  0.71848302  0.44900902  0.19055501  1
  P  P5  1  0.07466100  0.21544601  0.41728899  1
  O  O6  1  0.88400103  0.01758400  0.83203202  1
  O  O7  1  0.28151701  0.63956403  0.80944498  1
  O  O8  1  0.92533903  0.63273503  0.58271100  1
  O  O9  1  0.11599900  0.84961604  0.16796797  1
