# generated using pymatgen
data_Mg2Ga
_symmetry_space_group_name_H-M   'P 1'
_cell_length_a   3.18730807
_cell_length_b   6.12988615
_cell_length_c   7.30984783
_cell_angle_alpha   104.47476959
_cell_angle_beta   90.00000000
_cell_angle_gamma   105.06893921
_symmetry_Int_Tables_number   1
_chemical_formula_structural   Mg2Ga
_chemical_formula_sum   'Mg4 Ga2'
_cell_volume   133.20719815
_cell_formula_units_Z   2
loop_
 _symmetry_equiv_pos_site_id
 _symmetry_equiv_pos_as_xyz
  1  'x, y, z'
loop_
 _atom_site_type_symbol
 _atom_site_label
 _atom_site_symmetry_multiplicity
 _atom_site_fract_x
 _atom_site_fract_y
 _atom_site_fract_z
 _atom_site_occupancy
  Mg  Mg0  1  0.69512903  0.39025800  0.14118402  1
  Mg  Mg1  1  0.97270309  0.94540600  0.19789205  1
  Mg  Mg2  1  0.02729701  0.05459400  0.80210799  1
  Mg  Mg3  1  0.30487107  0.60974200  0.85881602  1
  Ga  Ga4  1  0.36220608  0.72441200  0.47247204  1
  Ga  Ga5  1  0.63779402  0.27558800  0.52752801  1
