# generated using pymatgen
data_Cu
_symmetry_space_group_name_H-M   'P 1'
_cell_length_a   4.04593611
_cell_length_b   4.04593611
_cell_length_c   6.91765213
_cell_angle_alpha   90.00000000
_cell_angle_beta   90.00000000
_cell_angle_gamma   90.00000000
_symmetry_Int_Tables_number   1
_chemical_formula_structural   Cu
_chemical_formula_sum   Cu6
_cell_volume   113.23919130
_cell_formula_units_Z   6
loop_
 _symmetry_equiv_pos_site_id
 _symmetry_equiv_pos_as_xyz
  1  'x, y, z'
loop_
 _atom_site_type_symbol
 _atom_site_label
 _atom_site_symmetry_multiplicity
 _atom_site_fract_x
 _atom_site_fract_y
 _atom_site_fract_z
 _atom_site_occupancy
  Cu  Cu0  1  0.00000000  0.00000000  0.17470100  1
  Cu  Cu1  1  0.49999999  0.49999999  0.83264298  1
  Cu  Cu2  1  0.00000000  0.00000000  0.63212699  1
  Cu  Cu3  1  0.49999999  0.49999999  0.37102799  1
  Cu  Cu4  1  0.49999999  0.00000000  0.99404998  1
  Cu  Cu5  1  0.00000000  0.49999999  0.99404998  1
