# generated using pymatgen
data_Al
_symmetry_space_group_name_H-M   'P 1'
_cell_length_a   4.92547798
_cell_length_b   6.60846519
_cell_length_c   6.60846519
_cell_angle_alpha   80.74887085
_cell_angle_beta   68.11997223
_cell_angle_gamma   68.11997223
_symmetry_Int_Tables_number   1
_chemical_formula_structural   Al
_chemical_formula_sum   Al13
_cell_volume   185.17128744
_cell_formula_units_Z   13
loop_
 _symmetry_equiv_pos_site_id
 _symmetry_equiv_pos_as_xyz
  1  'x, y, z'
loop_
 _atom_site_type_symbol
 _atom_site_label
 _atom_site_symmetry_multiplicity
 _atom_site_fract_x
 _atom_site_fract_y
 _atom_site_fract_z
 _atom_site_occupancy
  Al  Al0  1  0.00000000  0.00000000  0.00000000  1
  Al  Al1  1  -0.00000005  1.00000001  0.49999997  1
  Al  Al2  1  0.49999996  1.00000001  0.49999995  1
  Al  Al3  1  -0.00000002  0.50000001  0.99999998  1
  Al  Al4  1  0.49999999  0.50000001  -0.00000003  1
  Al  Al5  1  0.49999998  0.76535601  0.23464396  1
  Al  Al6  1  0.50000000  0.23464400  0.76535597  1
  Al  Al7  1  0.65361300  0.34638700  0.34638696  1
  Al  Al8  1  0.34638698  0.65361301  0.65361296  1
  Al  Al9  1  -0.00000002  0.33676300  0.66323699  1
  Al  Al10  1  -0.00000003  0.66323701  0.33676298  1
  Al  Al11  1  0.69390098  0.80609901  0.80609895  1
  Al  Al12  1  0.30609900  0.19390100  0.19390098  1
