# generated using pymatgen
data_MnFe2Co6PdO8
_symmetry_space_group_name_H-M   'P 1'
_cell_length_a   5.62462997
_cell_length_b   5.81745720
_cell_length_c   9.38815308
_cell_angle_alpha   83.81620026
_cell_angle_beta   76.64038849
_cell_angle_gamma   87.20768738
_symmetry_Int_Tables_number   1
_chemical_formula_structural   MnFe2Co6PdO8
_chemical_formula_sum   'Mn1 Fe2 Co6 Pd1 O8'
_cell_volume   297.04811114
_cell_formula_units_Z   1
loop_
 _symmetry_equiv_pos_site_id
 _symmetry_equiv_pos_as_xyz
  1  'x, y, z'
loop_
 _atom_site_type_symbol
 _atom_site_label
 _atom_site_symmetry_multiplicity
 _atom_site_fract_x
 _atom_site_fract_y
 _atom_site_fract_z
 _atom_site_occupancy
  Mn  Mn0  1  0.52094901  0.15175200  0.28393198  1
  Fe  Fe1  1  0.47905103  0.84824799  0.71606798  1
  Co  Co2  1  0.78928503  0.73327299  0.01582200  1
  Co  Co3  1  0.21071501  0.26672700  0.98417796  1
  Co  Co4  1  0.29910201  0.40990500  0.57958498  1
  Fe  Fe5  1  0.70089802  0.59009499  0.42041498  1
  Co  Co6  1  0.06117802  0.81259799  0.56129900  1
  Co  Co7  1  0.93882202  0.18740200  0.43870096  1
  Pd  Pd8  1  0.14498502  0.68477299  0.29532901  1
  Co  Co9  1  0.85501502  0.31522700  0.70467095  1
  O  O10  1  0.35351402  0.64119499  0.39922999  1
  O  O11  1  0.64648602  0.35880500  0.60076996  1
  O  O12  1  0.99788803  0.44400100  0.29318697  1
  O  O13  1  0.00211201  0.55599899  0.70681299  1
  O  O14  1  0.92908203  0.86197899  0.38631898  1
  O  O15  1  0.07091800  0.13802100  0.61368098  1
  O  O16  1  0.26765702  0.79351199  0.12742501  1
  O  O17  1  0.73234302  0.20648800  0.87257494  1
