# generated using pymatgen
data_MnO
_symmetry_space_group_name_H-M   'P 1'
_cell_length_a   3.05006790
_cell_length_b   3.05006766
_cell_length_c   12.48642921
_cell_angle_alpha   90.00000000
_cell_angle_beta   90.00000000
_cell_angle_gamma   120.00000000
_symmetry_Int_Tables_number   1
_chemical_formula_structural   MnO
_chemical_formula_sum   'Mn4 O4'
_cell_volume   100.59765867
_cell_formula_units_Z   4
loop_
 _symmetry_equiv_pos_site_id
 _symmetry_equiv_pos_as_xyz
  1  'x, y, z'
loop_
 _atom_site_type_symbol
 _atom_site_label
 _atom_site_symmetry_multiplicity
 _atom_site_fract_x
 _atom_site_fract_y
 _atom_site_fract_z
 _atom_site_occupancy
  Mn  Mn0  1  0.00000000  0.00000000  0.00000000  1
  Mn  Mn1  1  0.00000000  0.00000000  0.49999999  1
  Mn  Mn2  1  0.33333330  0.66666665  0.25000000  1
  Mn  Mn3  1  0.66666667  0.33333332  0.74999999  1
  O  O4  1  0.66666667  0.33333332  0.58003099  1
  O  O5  1  0.33333330  0.66666665  0.08003100  1
  O  O6  1  0.66666667  0.33333332  0.91996898  1
  O  O7  1  0.33333330  0.66666665  0.41996899  1
