# generated using pymatgen
data_LaCe3SnBi
_symmetry_space_group_name_H-M   'P 1'
_cell_length_a   5.43162203
_cell_length_b   6.74651051
_cell_length_c   6.76866102
_cell_angle_alpha   79.04193878
_cell_angle_beta   66.34471130
_cell_angle_gamma   66.26228333
_symmetry_Int_Tables_number   1
_chemical_formula_structural   LaCe3SnBi
_chemical_formula_sum   'La1 Ce3 Sn1 Bi1'
_cell_volume   207.85148572
_cell_formula_units_Z   1
loop_
 _symmetry_equiv_pos_site_id
 _symmetry_equiv_pos_as_xyz
  1  'x, y, z'
loop_
 _atom_site_type_symbol
 _atom_site_label
 _atom_site_symmetry_multiplicity
 _atom_site_fract_x
 _atom_site_fract_y
 _atom_site_fract_z
 _atom_site_occupancy
  Ce  Ce0  1  0.54129799  0.70979201  0.20761205  1
  La  La1  1  0.45870199  0.29020800  0.79238804  1
  Ce  Ce2  1  0.15805500  0.28383400  0.40005603  1
  Ce  Ce3  1  0.84194499  0.71616601  0.59994406  1
  Sn  Sn4  1  0.83467099  0.10429400  0.22636401  1
  Bi  Bi5  1  0.16532899  0.89570602  0.77363608  1
