# generated using pymatgen
data_AlGaNi9
_symmetry_space_group_name_H-M   'P 1'
_cell_length_a   3.71474600
_cell_length_b   7.01744223
_cell_length_c   7.01744175
_cell_angle_alpha   120.00000000
_cell_angle_beta   90.00000000
_cell_angle_gamma   90.00000000
_symmetry_Int_Tables_number   1
_chemical_formula_structural   AlGaNi9
_chemical_formula_sum   'Al1 Ga1 Ni9'
_cell_volume   158.42270244
_cell_formula_units_Z   1
loop_
 _symmetry_equiv_pos_site_id
 _symmetry_equiv_pos_as_xyz
  1  'x, y, z'
loop_
 _atom_site_type_symbol
 _atom_site_label
 _atom_site_symmetry_multiplicity
 _atom_site_fract_x
 _atom_site_fract_y
 _atom_site_fract_z
 _atom_site_occupancy
  Ga  Ga0  1  0.50000000  0.00000000  -0.00000000  1
  Al  Al1  1  0.50000000  0.33333332  0.66666669  1
  Ni  Ni2  1  -0.00000000  0.80724897  0.18310100  1
  Ni  Ni3  1  -0.00000000  0.81689797  0.62414702  1
  Ni  Ni4  1  -0.00000000  0.37585199  0.19275000  1
  Ni  Ni5  1  0.50000000  0.51954198  0.45189701  1
  Ni  Ni6  1  0.50000000  0.54810298  0.06764500  1
  Ni  Ni7  1  0.50000000  0.93235497  0.48045801  1
  Ni  Ni8  1  -0.00000000  0.20635999  0.81058302  1
  Ni  Ni9  1  -0.00000000  0.18941699  0.39577701  1
  Ni  Ni10  1  -0.00000000  0.60422298  0.79364002  1
