# generated using pymatgen
data_Yb4InBi
_symmetry_space_group_name_H-M   'P 1'
_cell_length_a   5.37652206
_cell_length_b   5.37652159
_cell_length_c   8.67941284
_cell_angle_alpha   90.00000000
_cell_angle_beta   90.00000000
_cell_angle_gamma   120.00000000
_symmetry_Int_Tables_number   1
_chemical_formula_structural   Yb4InBi
_chemical_formula_sum   'Yb4 In1 Bi1'
_cell_volume   217.28202712
_cell_formula_units_Z   1
loop_
 _symmetry_equiv_pos_site_id
 _symmetry_equiv_pos_as_xyz
  1  'x, y, z'
loop_
 _atom_site_type_symbol
 _atom_site_label
 _atom_site_symmetry_multiplicity
 _atom_site_fract_x
 _atom_site_fract_y
 _atom_site_fract_z
 _atom_site_occupancy
  Yb  Yb0  1  0.00000000  0.00000000  0.75000001  1
  Yb  Yb1  1  0.00000000  0.00000000  0.25000000  1
  Yb  Yb2  1  0.66666664  0.33333331  0.54599201  1
  Yb  Yb3  1  0.33333328  0.66666663  0.04599200  1
  In  In4  1  0.33333328  0.66666663  0.45400801  1
  Bi  Bi5  1  0.66666664  0.33333331  0.95400802  1
