# generated using pymatgen
data_BaSr5(CaBi2)2
_symmetry_space_group_name_H-M   'P 1'
_cell_length_a   5.32522392
_cell_length_b   8.91054153
_cell_length_c   9.77541924
_cell_angle_alpha   90.00000000
_cell_angle_beta   90.00000000
_cell_angle_gamma   90.00000000
_symmetry_Int_Tables_number   1
_chemical_formula_structural   BaSr5(CaBi2)2
_chemical_formula_sum   'Ba1 Sr5 Ca2 Bi4'
_cell_volume   463.84979090
_cell_formula_units_Z   1
loop_
 _symmetry_equiv_pos_site_id
 _symmetry_equiv_pos_as_xyz
  1  'x, y, z'
loop_
 _atom_site_type_symbol
 _atom_site_label
 _atom_site_symmetry_multiplicity
 _atom_site_fract_x
 _atom_site_fract_y
 _atom_site_fract_z
 _atom_site_occupancy
  Ba  Ba0  1  0.25000000  0.02143100  0.18139000  1
  Sr  Sr1  1  0.75000001  0.97856905  0.81860998  1
  Sr  Sr2  1  0.25000000  0.52143103  0.31860999  1
  Sr  Sr3  1  0.75000001  0.47856903  0.68138998  1
  Sr  Sr4  1  0.75000001  0.85583704  0.42865699  1
  Sr  Sr5  1  0.25000000  0.64416303  0.92865698  1
  Ca  Ca6  1  0.75000001  0.35583702  0.07134300  1
  Ca  Ca7  1  0.25000000  0.14416301  0.57134299  1
  Bi  Bi8  1  0.25000000  0.27489401  0.89157098  1
  Bi  Bi9  1  0.75000001  0.22510601  0.39157099  1
  Bi  Bi10  1  0.25000000  0.77489404  0.60842899  1
  Bi  Bi11  1  0.75000001  0.72510604  0.10842900  1
