# generated using pymatgen
data_Ce4IrRu7
_symmetry_space_group_name_H-M   'P 1'
_cell_length_a   5.52756786
_cell_length_b   5.52756882
_cell_length_c   8.99541378
_cell_angle_alpha   90.00000000
_cell_angle_beta   90.00000000
_cell_angle_gamma   120.00000000
_symmetry_Int_Tables_number   1
_chemical_formula_structural   Ce4IrRu7
_chemical_formula_sum   'Ce4 Ru7 Ir1'
_cell_volume   238.02359942
_cell_formula_units_Z   1
loop_
 _symmetry_equiv_pos_site_id
 _symmetry_equiv_pos_as_xyz
  1  'x, y, z'
loop_
 _atom_site_type_symbol
 _atom_site_label
 _atom_site_symmetry_multiplicity
 _atom_site_fract_x
 _atom_site_fract_y
 _atom_site_fract_z
 _atom_site_occupancy
  Ce  Ce0  1  0.66666671  0.33333333  0.56218001  1
  Ce  Ce1  1  0.33333339  0.66666666  0.43782001  1
  Ce  Ce2  1  0.33333339  0.66666666  0.06218000  1
  Ce  Ce3  1  0.66666671  0.33333333  0.93782002  1
  Ru  Ru4  1  0.00000000  0.00000000  0.50000001  1
  Ir  Ir5  1  0.00000000  0.00000000  0.00000000  1
  Ru  Ru6  1  0.17036603  0.34073200  0.75000002  1
  Ru  Ru7  1  0.17036606  0.82963400  0.75000002  1
  Ru  Ru8  1  0.65926808  0.82963400  0.75000002  1
  Ru  Ru9  1  0.82963407  0.65926800  0.25000001  1
  Ru  Ru10  1  0.82963403  0.17036600  0.25000001  1
  Ru  Ru11  1  0.34073202  0.17036600  0.25000001  1
