# generated using pymatgen
data_La2AlGe3
_symmetry_space_group_name_H-M   'P 1'
_cell_length_a   6.01321411
_cell_length_b   6.01321459
_cell_length_c   9.06319427
_cell_angle_alpha   90.00000000
_cell_angle_beta   90.00000000
_cell_angle_gamma   119.99999237
_symmetry_Int_Tables_number   1
_chemical_formula_structural   La2AlGe3
_chemical_formula_sum   'La4 Al2 Ge6'
_cell_volume   283.80845200
_cell_formula_units_Z   2
loop_
 _symmetry_equiv_pos_site_id
 _symmetry_equiv_pos_as_xyz
  1  'x, y, z'
loop_
 _atom_site_type_symbol
 _atom_site_label
 _atom_site_symmetry_multiplicity
 _atom_site_fract_x
 _atom_site_fract_y
 _atom_site_fract_z
 _atom_site_occupancy
  La  La0  1  0.66666663  0.33333333  0.55925798  1
  La  La1  1  0.33333328  0.66666667  0.44074199  1
  La  La2  1  0.33333328  0.66666667  0.05925800  1
  La  La3  1  0.66666663  0.33333333  0.94074197  1
  Al  Al4  1  0.00000000  0.00000000  0.49999998  1
  Al  Al5  1  0.00000000  0.00000000  0.00000000  1
  Ge  Ge6  1  0.16894897  0.33789800  0.74999998  1
  Ge  Ge7  1  0.16894894  0.83105200  0.74999998  1
  Ge  Ge8  1  0.66210293  0.83105200  0.74999998  1
  Ge  Ge9  1  0.83105094  0.66210200  0.24999999  1
  Ge  Ge10  1  0.83105097  0.16894800  0.24999999  1
  Ge  Ge11  1  0.33789698  0.16894800  0.24999999  1
