# generated using pymatgen
data_Li6HfNi2SnO4
_symmetry_space_group_name_H-M   'P 1'
_cell_length_a   5.96873999
_cell_length_b   6.07054138
_cell_length_c   7.08274794
_cell_angle_alpha   89.99959564
_cell_angle_beta   89.99799347
_cell_angle_gamma   87.47677612
_symmetry_Int_Tables_number   1
_chemical_formula_structural   Li6HfNi2SnO4
_chemical_formula_sum   'Li6 Hf1 Ni2 Sn1 O4'
_cell_volume   256.38381156
_cell_formula_units_Z   1
loop_
 _symmetry_equiv_pos_site_id
 _symmetry_equiv_pos_as_xyz
  1  'x, y, z'
loop_
 _atom_site_type_symbol
 _atom_site_label
 _atom_site_symmetry_multiplicity
 _atom_site_fract_x
 _atom_site_fract_y
 _atom_site_fract_z
 _atom_site_occupancy
  Li  Li0  1  0.49998499  0.50000398  0.76410100  1
  Li  Li1  1  0.49999299  0.00000500  0.48371897  1
  Li  Li2  1  0.49998699  0.49995698  0.24908600  1
  Li  Li3  1  0.50003199  0.00002300  0.99962797  1
  Li  Li4  1  0.99999598  0.99998496  0.00551400  1
  Li  Li5  1  0.99997498  0.99999296  0.49588200  1
  O  O6  1  0.26457700  0.68772398  0.01592102  1
  Ni  Ni7  1  0.25256600  0.66713598  0.49168702  1
  Hf  Hf8  1  0.25456499  0.18641099  0.23515100  1
  O  O9  1  0.24636499  0.16609699  0.75830599  1
  Sn  Sn10  1  0.74543299  0.81358797  0.23514800  1
  O  O11  1  0.75363699  0.83390897  0.75828300  1
  Ni  Ni12  1  0.74742898  0.33286199  0.49167898  1
  O  O13  1  0.73545998  0.31230699  0.01589598  1
