# generated using pymatgen
data_Sr2LiMnO4
_symmetry_space_group_name_H-M   'P 1'
_cell_length_a   3.93256211
_cell_length_b   6.37250328
_cell_length_c   6.37250328
_cell_angle_alpha   108.42521667
_cell_angle_beta   89.84497070
_cell_angle_gamma   89.84497070
_symmetry_Int_Tables_number   1
_chemical_formula_structural   Sr2LiMnO4
_chemical_formula_sum   'Sr2 Li1 Mn1 O4'
_cell_volume   151.50847070
_cell_formula_units_Z   1
loop_
 _symmetry_equiv_pos_site_id
 _symmetry_equiv_pos_as_xyz
  1  'x, y, z'
loop_
 _atom_site_type_symbol
 _atom_site_label
 _atom_site_symmetry_multiplicity
 _atom_site_fract_x
 _atom_site_fract_y
 _atom_site_fract_z
 _atom_site_occupancy
  Sr  Sr0  1  0.00000001  0.49999998  -0.00000003  1
  Sr  Sr1  1  0.00000000  0.00000000  0.49999999  1
  Li  Li2  1  0.50000000  0.00000000  0.00000000  1
  Mn  Mn3  1  0.50000001  0.49999998  0.49999996  1
  O  O4  1  0.27177002  0.75317197  0.75317194  1
  O  O5  1  0.50000000  0.30113599  0.69886397  1
  O  O6  1  0.50000001  0.69886397  0.30113595  1
  O  O7  1  0.72823000  0.24682799  0.24682798  1
