# generated using pymatgen
data_CaSn2GePd
_symmetry_space_group_name_H-M   'P 1'
_cell_length_a   4.90958214
_cell_length_b   4.90958214
_cell_length_c   6.74328566
_cell_angle_alpha   111.34819794
_cell_angle_beta   111.34819794
_cell_angle_gamma   90.00000000
_symmetry_Int_Tables_number   1
_chemical_formula_structural   CaSn2GePd
_chemical_formula_sum   'Ca1 Sn2 Ge1 Pd1'
_cell_volume   139.34508598
_cell_formula_units_Z   1
loop_
 _symmetry_equiv_pos_site_id
 _symmetry_equiv_pos_as_xyz
  1  'x, y, z'
loop_
 _atom_site_type_symbol
 _atom_site_label
 _atom_site_symmetry_multiplicity
 _atom_site_fract_x
 _atom_site_fract_y
 _atom_site_fract_z
 _atom_site_occupancy
  Ca  Ca0  1  0.00000000  0.00000000  0.00000000  1
  Ge  Ge1  1  0.24999999  0.74999998  0.49999999  1
  Sn  Sn2  1  0.74999998  0.24999999  0.50000000  1
  Sn  Sn3  1  0.62625498  0.62625498  0.25251000  1
  Pd  Pd4  1  0.37374499  0.37374499  0.74748999  1
