# generated using pymatgen
data_Sm2InPd3
_symmetry_space_group_name_H-M   'P 1'
_cell_length_a   4.72163200
_cell_length_b   4.72163200
_cell_length_c   7.47519588
_cell_angle_alpha   90.00000000
_cell_angle_beta   90.00000000
_cell_angle_gamma   120.00000000
_symmetry_Int_Tables_number   1
_chemical_formula_structural   Sm2InPd3
_chemical_formula_sum   'Sm2 In1 Pd3'
_cell_volume   144.32364245
_cell_formula_units_Z   1
loop_
 _symmetry_equiv_pos_site_id
 _symmetry_equiv_pos_as_xyz
  1  'x, y, z'
loop_
 _atom_site_type_symbol
 _atom_site_label
 _atom_site_symmetry_multiplicity
 _atom_site_fract_x
 _atom_site_fract_y
 _atom_site_fract_z
 _atom_site_occupancy
  Sm  Sm0  1  0.66666666  0.33333331  0.27729400  1
  Sm  Sm1  1  0.66666666  0.33333331  0.73628001  1
  In  In2  1  0.33333331  0.66666662  0.51659601  1
  Pd  Pd3  1  0.33333331  0.66666662  0.94916401  1
  Pd  Pd4  1  0.00000000  0.00000000  0.06443200  1
  Pd  Pd5  1  0.00000000  0.00000000  0.45623501  1
