# generated using pymatgen
data_Ta3(NbS5)2
_symmetry_space_group_name_H-M   'P 1'
_cell_length_a   7.01534081
_cell_length_b   9.39031696
_cell_length_c   9.39031696
_cell_angle_alpha   79.02675629
_cell_angle_beta   72.12471771
_cell_angle_gamma   72.12471771
_symmetry_Int_Tables_number   1
_chemical_formula_structural   Ta3(NbS5)2
_chemical_formula_sum   'Ta3 Nb2 S10'
_cell_volume   557.15245250
_cell_formula_units_Z   1
loop_
 _symmetry_equiv_pos_site_id
 _symmetry_equiv_pos_as_xyz
  1  'x, y, z'
loop_
 _atom_site_type_symbol
 _atom_site_label
 _atom_site_symmetry_multiplicity
 _atom_site_fract_x
 _atom_site_fract_y
 _atom_site_fract_z
 _atom_site_occupancy
  Ta  Ta0  1  0.00000000  0.00000000  0.00000000  1
  Nb  Nb1  1  0.26868404  0.72250202  0.72250205  1
  Nb  Nb2  1  0.73131600  0.27749801  0.27749805  1
  Ta  Ta3  1  0.24649404  0.74825602  0.03894702  1
  Ta  Ta4  1  0.24649399  0.03894700  0.74825605  1
  S  S5  1  0.75350599  0.25174401  0.96105308  1
  S  S6  1  0.75350604  0.96105303  0.25174405  1
  S  S7  1  0.20366703  0.47776302  0.78636505  1
  S  S8  1  0.20366705  0.78636503  0.47776304  1
  S  S9  1  0.79633301  0.52223702  0.21363505  1
  S  S10  1  0.79633299  0.21363501  0.52223706  1
  S  S11  1  0.83817103  0.87434303  0.87434309  1
  S  S12  1  0.16182900  0.12565700  0.12565701  1
  S  S13  1  0.35571501  0.34998801  0.34998804  1
  S  S14  1  0.64428502  0.65001202  0.65001207  1
