# generated using pymatgen
data_Mn(VP3)3
_symmetry_space_group_name_H-M   'P 1'
_cell_length_a   5.56457090
_cell_length_b   5.56457090
_cell_length_c   7.58232212
_cell_angle_alpha   69.75363922
_cell_angle_beta   69.75363922
_cell_angle_gamma   71.65785980
_symmetry_Int_Tables_number   1
_chemical_formula_structural   Mn(VP3)3
_chemical_formula_sum   'Mn1 V3 P9'
_cell_volume   201.53446569
_cell_formula_units_Z   1
loop_
 _symmetry_equiv_pos_site_id
 _symmetry_equiv_pos_as_xyz
  1  'x, y, z'
loop_
 _atom_site_type_symbol
 _atom_site_label
 _atom_site_symmetry_multiplicity
 _atom_site_fract_x
 _atom_site_fract_y
 _atom_site_fract_z
 _atom_site_occupancy
  V  V0  1  0.53910001  0.46090002  -0.00000004  1
  V  V1  1  0.99519701  0.99371503  0.25637292  1
  V  V2  1  0.00628500  0.00480300  0.74362699  1
  Mn  Mn3  1  0.20487200  0.23665701  0.63455697  1
  P  P4  1  0.76334301  0.79512803  0.36544294  1
  P  P5  1  0.79592901  0.75750503  0.86534593  1
  P  P6  1  0.24249500  0.20407101  0.13465398  1
  P  P7  1  0.06559499  0.93440503  0.49999996  1
  P  P8  1  0.92791403  0.07208600  -0.00000004  1
  P  P9  1  0.26705200  0.71246602  0.20780296  1
  P  P10  1  0.28753400  0.73294802  0.79219695  1
  P  P11  1  0.73914102  0.29254301  0.27161096  1
  P  P12  1  0.70745702  0.26085901  0.72838895  1
