# generated using pymatgen
data_PrHf3TaTiFeNi2Te10O
_symmetry_space_group_name_H-M   'P 1'
_cell_length_a   4.28907013
_cell_length_b   4.29902506
_cell_length_c   35.08261490
_cell_angle_alpha   90.03834534
_cell_angle_beta   90.00000000
_cell_angle_gamma   119.92343140
_symmetry_Int_Tables_number   1
_chemical_formula_structural   PrHf3TaTiFeNi2Te10O
_chemical_formula_sum   'Pr1 Hf3 Ta1 Ti1 Fe1 Ni2 Te10 O1'
_cell_volume   560.64783330
_cell_formula_units_Z   1
loop_
 _symmetry_equiv_pos_site_id
 _symmetry_equiv_pos_as_xyz
  1  'x, y, z'
loop_
 _atom_site_type_symbol
 _atom_site_label
 _atom_site_symmetry_multiplicity
 _atom_site_fract_x
 _atom_site_fract_y
 _atom_site_fract_z
 _atom_site_occupancy
  Ti  Ti0  1  0.66660000  0.33319901  0.89062099  1
  Pr  Pr1  1  0.66657900  0.33315801  0.69887900  1
  Ta  Ta2  1  0.66655600  0.33311201  0.50458500  1
  Hf  Hf3  1  0.66640900  0.33281701  0.31487800  1
  Hf  Hf4  1  0.66557000  0.33114001  0.10294100  1
  Ni  Ni5  1  0.33360103  0.66720202  0.98518799  1
  Te  Te6  1  0.33354503  0.66708902  0.79538999  1
  Hf  Hf7  1  0.33357803  0.66715702  0.60122199  1
  Fe  Fe8  1  0.33360603  0.66721302  0.40912600  1
  Ni  Ni9  1  0.33362403  0.66724702  0.19784100  1
  Te  Te10  1  0.33384303  0.66768602  0.27919900  1
  Te  Te11  1  0.33374503  0.66748902  0.06709300  1
  O  O12  1  0.66647900  0.33295901  0.96412199  1
  Te  Te13  1  0.66632100  0.33264101  0.77296699  1
  Te  Te14  1  0.66639400  0.33278701  0.57822800  1
  Te  Te15  1  0.66639700  0.33279501  0.38732100  1
  Te  Te16  1  0.66649200  0.33298301  0.17563200  1
  Te  Te17  1  0.33359903  0.66719902  0.86910299  1
  Te  Te18  1  0.33353703  0.66707302  0.67544199  1
  Te  Te19  1  0.33352703  0.66705502  0.48222399  1
