# generated using pymatgen
data_LiV(Fe2C)2
_symmetry_space_group_name_H-M   'P 1'
_cell_length_a   3.14864612
_cell_length_b   3.14864612
_cell_length_c   8.89078140
_cell_angle_alpha   90.00000000
_cell_angle_beta   90.00000000
_cell_angle_gamma   90.00000000
_symmetry_Int_Tables_number   1
_chemical_formula_structural   LiV(Fe2C)2
_chemical_formula_sum   'Li1 V1 Fe4 C2'
_cell_volume   88.14296113
_cell_formula_units_Z   1
loop_
 _symmetry_equiv_pos_site_id
 _symmetry_equiv_pos_as_xyz
  1  'x, y, z'
loop_
 _atom_site_type_symbol
 _atom_site_label
 _atom_site_symmetry_multiplicity
 _atom_site_fract_x
 _atom_site_fract_y
 _atom_site_fract_z
 _atom_site_occupancy
  Li  Li0  1  0.49999998  0.49999998  0.75572197  1
  V  V1  1  0.00000000  0.00000000  0.49999998  1
  Fe  Fe2  1  0.49999998  0.49999998  0.24427799  1
  Fe  Fe3  1  0.00000000  0.00000000  0.00000000  1
  Fe  Fe4  1  0.00000000  0.00000000  0.24236099  1
  C  C5  1  0.49999998  0.49999998  0.00000000  1
  C  C6  1  0.00000000  0.00000000  0.75763897  1
  Fe  Fe7  1  0.49999998  0.49999998  0.49999998  1
