# generated using pymatgen
data_Ce(SiP)2
_symmetry_space_group_name_H-M   'P 1'
_cell_length_a   4.09291983
_cell_length_b   4.09291983
_cell_length_c   5.59106541
_cell_angle_alpha   111.47056580
_cell_angle_beta   111.47056580
_cell_angle_gamma   90.00000000
_symmetry_Int_Tables_number   1
_chemical_formula_structural   Ce(SiP)2
_chemical_formula_sum   'Ce1 Si2 P2'
_cell_volume   80.13691451
_cell_formula_units_Z   1
loop_
 _symmetry_equiv_pos_site_id
 _symmetry_equiv_pos_as_xyz
  1  'x, y, z'
loop_
 _atom_site_type_symbol
 _atom_site_label
 _atom_site_symmetry_multiplicity
 _atom_site_fract_x
 _atom_site_fract_y
 _atom_site_fract_z
 _atom_site_occupancy
  Ce  Ce0  1  0.00465300  0.00465300  0.00930600  1
  Si  Si1  1  0.66127297  0.66127301  0.32254592  1
  P  P2  1  0.76089800  0.26089800  0.52179594  1
  Si  Si3  1  0.26089796  0.76089801  0.52179593  1
  P  P4  1  0.42727798  0.42727800  0.85455595  1
