# generated using pymatgen
data_BaO2
_symmetry_space_group_name_H-M   'P 1'
_cell_length_a   6.57556295
_cell_length_b   6.57556295
_cell_length_c   8.84126759
_cell_angle_alpha   90.00000000
_cell_angle_beta   90.00000000
_cell_angle_gamma   90.00000000
_symmetry_Int_Tables_number   1
_chemical_formula_structural   BaO2
_chemical_formula_sum   'Ba6 O12'
_cell_volume   382.27897685
_cell_formula_units_Z   6
loop_
 _symmetry_equiv_pos_site_id
 _symmetry_equiv_pos_as_xyz
  1  'x, y, z'
loop_
 _atom_site_type_symbol
 _atom_site_label
 _atom_site_symmetry_multiplicity
 _atom_site_fract_x
 _atom_site_fract_y
 _atom_site_fract_z
 _atom_site_occupancy
  Ba  Ba0  1  0.00000000  0.50000000  0.25000001  1
  Ba  Ba1  1  0.50000000  0.00000000  0.25000001  1
  Ba  Ba2  1  0.50000000  0.00000000  0.75000004  1
  Ba  Ba3  1  0.00000000  0.50000000  0.75000004  1
  Ba  Ba4  1  0.00000000  0.00000000  0.00000000  1
  Ba  Ba5  1  0.50000000  0.50000000  0.50000002  1
  O  O6  1  0.39725700  0.21189000  0.50000002  1
  O  O7  1  0.60274300  0.78811001  0.50000002  1
  O  O8  1  0.71189000  0.89725701  0.00000000  1
  O  O9  1  0.21189000  0.60274300  0.50000002  1
  O  O10  1  0.78811001  0.39725700  0.50000002  1
  O  O11  1  0.10274300  0.71189000  0.00000000  1
  O  O12  1  0.00000000  0.00000000  0.22668801  1
  O  O13  1  0.50000000  0.50000000  0.27331201  1
  O  O14  1  0.00000000  0.00000000  0.77331204  1
  O  O15  1  0.50000000  0.50000000  0.72668803  1
  O  O16  1  0.28811000  0.10274300  0.00000000  1
  O  O17  1  0.89725701  0.28811000  0.00000000  1
