# generated using pymatgen
data_Ba2La5Sn8Bi
_symmetry_space_group_name_H-M   'P 1'
_cell_length_a   8.92200184
_cell_length_b   10.05281544
_cell_length_c   8.92200184
_cell_angle_alpha   116.34380341
_cell_angle_beta   90.00000000
_cell_angle_gamma   116.34380341
_symmetry_Int_Tables_number   1
_chemical_formula_structural   Ba2La5Sn8Bi
_chemical_formula_sum   'Ba2 La5 Sn8 Bi1'
_cell_volume   623.02593254
_cell_formula_units_Z   1
loop_
 _symmetry_equiv_pos_site_id
 _symmetry_equiv_pos_as_xyz
  1  'x, y, z'
loop_
 _atom_site_type_symbol
 _atom_site_label
 _atom_site_symmetry_multiplicity
 _atom_site_fract_x
 _atom_site_fract_y
 _atom_site_fract_z
 _atom_site_occupancy
  La  La0  1  0.25000004  0.50000001  0.25000004  1
  Ba  Ba1  1  0.75000005  0.50000001  0.75000005  1
  Ba  Ba2  1  0.82830101  0.00000000  0.67169901  1
  La  La3  1  0.32830108  1.00000002  0.82830109  1
  La  La4  1  0.67169901  0.00000000  0.17169900  1
  La  La5  1  0.17169900  0.00000000  0.32830101  1
  La  La6  1  0.50000001  0.00000000  0.50000001  1
  Bi  Bi7  1  0.00000000  0.00000000  0.00000000  1
  Sn  Sn8  1  0.47854503  0.27582601  0.29728103  1
  Sn  Sn9  1  0.97854504  0.27582601  0.47854503  1
  Sn  Sn10  1  0.29728103  0.27582601  0.79728104  1
  Sn  Sn11  1  0.02145505  0.72417402  0.52145506  1
  Sn  Sn12  1  0.70271907  0.72417402  0.20271906  1
  Sn  Sn13  1  0.20271906  0.72417402  0.02145505  1
  Sn  Sn14  1  0.52145506  0.72417402  0.70271907  1
  Sn  Sn15  1  0.79728103  0.27582601  0.97854504  1
