# generated using pymatgen
data_Ca3Al2O4
_symmetry_space_group_name_H-M   'P 1'
_cell_length_a   4.85749578
_cell_length_b   5.92102194
_cell_length_c   6.38716078
_cell_angle_alpha   117.61381531
_cell_angle_beta   112.34946442
_cell_angle_gamma   90.00000000
_symmetry_Int_Tables_number   1
_chemical_formula_structural   Ca3Al2O4
_chemical_formula_sum   'Ca3 Al2 O4'
_cell_volume   147.02750103
_cell_formula_units_Z   1
loop_
 _symmetry_equiv_pos_site_id
 _symmetry_equiv_pos_as_xyz
  1  'x, y, z'
loop_
 _atom_site_type_symbol
 _atom_site_label
 _atom_site_symmetry_multiplicity
 _atom_site_fract_x
 _atom_site_fract_y
 _atom_site_fract_z
 _atom_site_occupancy
  Ca  Ca0  1  0.19135702  0.16282700  0.38271401  1
  Ca  Ca1  1  0.80864409  0.78011402  0.61728705  1
  Ca  Ca2  1  0.50000004  0.19478600  0.00000003  1
  Al  Al3  1  0.88574308  0.38208001  0.77148705  1
  Al  Al4  1  0.11425603  0.61059301  0.22851202  1
  O  O5  1  0.72013006  0.26472101  0.44026004  1
  O  O6  1  0.27987005  0.82446102  0.55974003  1
  O  O7  1  0.00000003  0.71685101  0.00000001  1
  O  O8  1  0.00000001  0.26106001  0.00000000  1
