# generated using pymatgen
data_Ce3AlReB3Os3C5
_symmetry_space_group_name_H-M   'P 1'
_cell_length_a   5.27989483
_cell_length_b   5.84186411
_cell_length_c   6.32758093
_cell_angle_alpha   90.00000000
_cell_angle_beta   90.00000000
_cell_angle_gamma   90.00000000
_symmetry_Int_Tables_number   1
_chemical_formula_structural   Ce3AlReB3Os3C5
_chemical_formula_sum   'Ce3 Al1 Re1 B3 Os3 C5'
_cell_volume   195.17061500
_cell_formula_units_Z   1
loop_
 _symmetry_equiv_pos_site_id
 _symmetry_equiv_pos_as_xyz
  1  'x, y, z'
loop_
 _atom_site_type_symbol
 _atom_site_label
 _atom_site_symmetry_multiplicity
 _atom_site_fract_x
 _atom_site_fract_y
 _atom_site_fract_z
 _atom_site_occupancy
  Ce  Ce0  1  0.75000002  0.98936298  0.66577601  1
  Ce  Ce1  1  0.75000002  0.48936299  0.83422401  1
  Ce  Ce2  1  0.25000001  0.01063700  0.33422400  1
  Al  Al3  1  0.25000001  0.51063699  0.16577600  1
  B  B4  1  0.91856403  0.63854799  0.46205501  1
  Re  Re5  1  0.58143602  0.13854800  0.03794500  1
  B  B6  1  0.41856401  0.36145199  0.53794501  1
  C  C7  1  0.08143600  0.86145198  0.96205501  1
  B  B8  1  0.08143600  0.36145199  0.53794501  1
  C  C9  1  0.41856401  0.86145198  0.96205501  1
  C  C10  1  0.58143602  0.63854799  0.46205501  1
  C  C11  1  0.91856403  0.13854800  0.03794500  1
  Os  Os12  1  0.75000002  0.82315198  0.18228900  1
  C  C13  1  0.75000002  0.32315199  0.31771100  1
  Os  Os14  1  0.25000001  0.17684800  0.81771101  1
  Os  Os15  1  0.25000001  0.67684799  0.68228901  1
