# generated using pymatgen
data_EuCuTeO2
_symmetry_space_group_name_H-M   'P 1'
_cell_length_a   3.97177792
_cell_length_b   3.97177792
_cell_length_c   7.49012280
_cell_angle_alpha   105.37493896
_cell_angle_beta   105.37493896
_cell_angle_gamma   90.00000000
_symmetry_Int_Tables_number   1
_chemical_formula_structural   EuCuTeO2
_chemical_formula_sum   'Eu1 Cu1 Te1 O2'
_cell_volume   109.53638931
_cell_formula_units_Z   1
loop_
 _symmetry_equiv_pos_site_id
 _symmetry_equiv_pos_as_xyz
  1  'x, y, z'
loop_
 _atom_site_type_symbol
 _atom_site_label
 _atom_site_symmetry_multiplicity
 _atom_site_fract_x
 _atom_site_fract_y
 _atom_site_fract_z
 _atom_site_occupancy
  Cu  Cu0  1  0.66675803  0.66675802  0.33351602  1
  Eu  Eu1  1  0.33324201  0.33324201  0.66648400  1
  Te  Te2  1  0.00000000  0.00000000  0.00000000  1
  O  O3  1  0.75000003  0.25000001  0.50000001  1
  O  O4  1  0.25000002  0.75000002  0.50000001  1
