# generated using pymatgen
data_Sr3CaNd2Zr2O12
_symmetry_space_group_name_H-M   'P 1'
_cell_length_a   6.02925110
_cell_length_b   6.20514011
_cell_length_c   8.65555763
_cell_angle_alpha   89.99359894
_cell_angle_beta   89.57525635
_cell_angle_gamma   89.99311066
_symmetry_Int_Tables_number   1
_chemical_formula_structural   Sr3CaNd2Zr2O12
_chemical_formula_sum   'Sr3 Ca1 Nd2 Zr2 O12'
_cell_volume   323.81583076
_cell_formula_units_Z   1
loop_
 _symmetry_equiv_pos_site_id
 _symmetry_equiv_pos_as_xyz
  1  'x, y, z'
loop_
 _atom_site_type_symbol
 _atom_site_label
 _atom_site_symmetry_multiplicity
 _atom_site_fract_x
 _atom_site_fract_y
 _atom_site_fract_z
 _atom_site_occupancy
  Ca  Ca0  1  0.48712987  0.54848408  0.74893651  1
  Sr  Sr1  1  0.01288566  0.04847250  0.75106601  1
  Sr  Sr2  1  0.51287014  0.45151589  0.25106349  1
  Sr  Sr3  1  0.98711435  0.95152747  0.24893399  1
  Nd  Nd4  1  0.50000002  0.00000000  0.00000001  1
  Nd  Nd5  1  1.00000002  0.49999999  0.50000001  1
  Zr  Zr6  1  1.00000002  0.49999999  0.00000000  1
  Zr  Zr7  1  0.50000002  0.00000000  0.50000002  1
  O  O8  1  0.81670920  0.21267909  0.05708286  1
  O  O9  1  0.68329912  0.71267643  0.44293247  1
  O  O10  1  0.18329081  0.78732088  0.94291713  1
  O  O11  1  0.31670089  0.28732354  0.55706752  1
  O  O12  1  0.71319563  0.68953486  0.05458674  1
  O  O13  1  0.78675573  0.18949024  0.44538899  1
  O  O14  1  0.28680438  0.31046511  0.94541325  1
  O  O15  1  0.21324428  0.81050973  0.55461101  1
  O  O16  1  0.60450604  0.95737531  0.73599010  1
  O  O17  1  0.89551878  0.45735099  0.76403542  1
  O  O18  1  0.39549397  0.04262466  0.26400989  1
  O  O19  1  0.10448123  0.54264898  0.23596457  1
