# generated using pymatgen
data_CePd2
_symmetry_space_group_name_H-M   'P 1'
_cell_length_a   4.20420313
_cell_length_b   7.00953102
_cell_length_c   8.03950691
_cell_angle_alpha   90.00000000
_cell_angle_beta   90.00000000
_cell_angle_gamma   90.00000000
_symmetry_Int_Tables_number   1
_chemical_formula_structural   CePd2
_chemical_formula_sum   'Ce4 Pd8'
_cell_volume   236.92018665
_cell_formula_units_Z   4
loop_
 _symmetry_equiv_pos_site_id
 _symmetry_equiv_pos_as_xyz
  1  'x, y, z'
loop_
 _atom_site_type_symbol
 _atom_site_label
 _atom_site_symmetry_multiplicity
 _atom_site_fract_x
 _atom_site_fract_y
 _atom_site_fract_z
 _atom_site_occupancy
  Ce  Ce0  1  0.24999999  0.03138200  0.83448501  1
  Ce  Ce1  1  0.24999999  0.53138200  0.66551501  1
  Ce  Ce2  1  0.74999998  0.96861800  0.16551500  1
  Ce  Ce3  1  0.74999998  0.46861800  0.33448500  1
  Pd  Pd4  1  0.24999999  0.14065500  0.43864000  1
  Pd  Pd5  1  0.24999999  0.64065500  0.06136000  1
  Pd  Pd6  1  0.74999998  0.85934500  0.56136001  1
  Pd  Pd7  1  0.74999998  0.35934500  0.93864001  1
  Pd  Pd8  1  0.24999999  0.25301200  0.12580200  1
  Pd  Pd9  1  0.24999999  0.75301200  0.37419800  1
  Pd  Pd10  1  0.74999998  0.74698800  0.87419801  1
  Pd  Pd11  1  0.74999998  0.24698800  0.62580201  1
