# generated using pymatgen
data_LiMn3SiMoP2
_symmetry_space_group_name_H-M   'P 1'
_cell_length_a   4.01427746
_cell_length_b   4.01427746
_cell_length_c   6.95213032
_cell_angle_alpha   73.21934509
_cell_angle_beta   73.21934509
_cell_angle_gamma   60.00000381
_symmetry_Int_Tables_number   1
_chemical_formula_structural   LiMn3SiMoP2
_chemical_formula_sum   'Li1 Mn3 Si1 Mo1 P2'
_cell_volume   91.47044217
_cell_formula_units_Z   1
loop_
 _symmetry_equiv_pos_site_id
 _symmetry_equiv_pos_as_xyz
  1  'x, y, z'
loop_
 _atom_site_type_symbol
 _atom_site_label
 _atom_site_symmetry_multiplicity
 _atom_site_fract_x
 _atom_site_fract_y
 _atom_site_fract_z
 _atom_site_occupancy
  Li  Li0  1  0.00000000  0.00000000  0.00000000  1
  Mn  Mn1  1  0.25104201  0.25104202  0.24687399  1
  Mn  Mn2  1  0.74895804  0.74895806  0.75312598  1
  Mn  Mn3  1  0.87146305  0.87146306  0.38561097  1
  Si  Si4  1  0.37879002  0.37879003  0.86363000  1
  P  P5  1  0.12853701  0.12853701  0.61438901  1
  Mo  Mo6  1  0.62121003  0.62121005  0.13636997  1
  P  P7  1  0.50000003  0.50000004  0.49999999  1
