# generated using pymatgen
data_Li8MnO7
_symmetry_space_group_name_H-M   'P 1'
_cell_length_a   2.91157794
_cell_length_b   5.21689939
_cell_length_c   9.73152351
_cell_angle_alpha   84.48700714
_cell_angle_beta   81.42181396
_cell_angle_gamma   89.99392700
_symmetry_Int_Tables_number   1
_chemical_formula_structural   Li8MnO7
_chemical_formula_sum   'Li8 Mn1 O7'
_cell_volume   145.47123271
_cell_formula_units_Z   1
loop_
 _symmetry_equiv_pos_site_id
 _symmetry_equiv_pos_as_xyz
  1  'x, y, z'
loop_
 _atom_site_type_symbol
 _atom_site_label
 _atom_site_symmetry_multiplicity
 _atom_site_fract_x
 _atom_site_fract_y
 _atom_site_fract_z
 _atom_site_occupancy
  Li  Li0  1  0.87500001  0.62500002  0.25000001  1
  Li  Li1  1  0.37500101  0.12499900  0.24999700  1
  Li  Li2  1  0.12247599  0.36701601  0.75405698  1
  Li  Li3  1  0.62751700  0.88298203  0.74594499  1
  Li  Li4  1  0.49979300  0.49913201  0.00047001  1
  Li  Li5  1  0.25020799  0.75085202  0.49952499  1
  Li  Li6  1  0.00047698  0.99902903  0.99917198  1
  Li  Li7  1  0.74952402  0.25097901  0.50082899  1
  Mn  Mn8  1  0.55646001  0.20909501  0.88674597  1
  O  O9  1  0.19354101  0.04089100  0.61325298  1
  O  O10  1  0.30479900  0.45872701  0.38994499  1
  O  O11  1  0.44519799  0.79129002  0.11006301  1
  O  O12  1  0.05622999  0.65944902  0.88710098  1
  O  O13  1  0.69377901  0.59057402  0.61288999  1
  O  O14  1  0.80730700  0.91538903  0.38489600  1
  O  O15  1  0.94269102  0.33459801  0.11511101  1
