# generated using pymatgen
data_Li4MgMn(PO4)2
_symmetry_space_group_name_H-M   'P 1'
_cell_length_a   5.27655983
_cell_length_b   5.27655983
_cell_length_c   6.25485086
_cell_angle_alpha   90.00000000
_cell_angle_beta   90.00000000
_cell_angle_gamma   89.81838226
_symmetry_Int_Tables_number   1
_chemical_formula_structural   Li4MgMn(PO4)2
_chemical_formula_sum   'Li4 Mg1 Mn1 P2 O8'
_cell_volume   174.14720600
_cell_formula_units_Z   1
loop_
 _symmetry_equiv_pos_site_id
 _symmetry_equiv_pos_as_xyz
  1  'x, y, z'
loop_
 _atom_site_type_symbol
 _atom_site_label
 _atom_site_symmetry_multiplicity
 _atom_site_fract_x
 _atom_site_fract_y
 _atom_site_fract_z
 _atom_site_occupancy
  Mg  Mg0  1  0.82226599  0.17773400  0.25000001  1
  Li  Li1  1  0.17773402  0.82226599  0.75000002  1
  Li  Li2  1  0.17786002  0.82213999  0.25000001  1
  Li  Li3  1  0.82213999  0.17786000  0.75000002  1
  Li  Li4  1  0.30525300  0.30525300  -0.00000000  1
  Mn  Mn5  1  0.69474701  0.69474699  0.50000001  1
  P  P6  1  0.68088801  0.68088799  -0.00000000  1
  P  P7  1  0.31911200  0.31911200  0.50000001  1
  O  O8  1  0.19691800  0.19642600  0.28328601  1
  O  O9  1  0.80308201  0.80357399  0.78328602  1
  O  O10  1  0.80357401  0.80308199  0.21671400  1
  O  O11  1  0.19642600  0.19691800  0.71671402  1
  O  O12  1  0.71183500  0.36893000  0.99982202  1
  O  O13  1  0.28816501  0.63106999  0.49982201  1
  O  O14  1  0.63107000  0.28816500  0.50017801  1
  O  O15  1  0.36893001  0.71183499  0.00017800  1
