# generated using pymatgen
data_Nd9Sn7
_symmetry_space_group_name_H-M   'P 1'
_cell_length_a   6.20637417
_cell_length_b   8.51170635
_cell_length_c   8.51170635
_cell_angle_alpha   120.00000000
_cell_angle_beta   90.00000000
_cell_angle_gamma   90.00000000
_symmetry_Int_Tables_number   1
_chemical_formula_structural   Nd9Sn7
_chemical_formula_sum   'Nd9 Sn7'
_cell_volume   389.40529364
_cell_formula_units_Z   1
loop_
 _symmetry_equiv_pos_site_id
 _symmetry_equiv_pos_as_xyz
  1  'x, y, z'
loop_
 _atom_site_type_symbol
 _atom_site_label
 _atom_site_symmetry_multiplicity
 _atom_site_fract_x
 _atom_site_fract_y
 _atom_site_fract_z
 _atom_site_occupancy
  Nd  Nd0  1  -0.00000000  0.33333332  0.66666667  1
  Nd  Nd1  1  -0.00000000  0.66666665  0.33333335  1
  Nd  Nd2  1  0.49999999  0.66666665  0.33333335  1
  Nd  Nd3  1  0.49999999  0.33333332  0.66666667  1
  Nd  Nd4  1  0.24999999  0.24746599  0.00000001  1
  Nd  Nd5  1  0.24999999  0.75253398  0.75253402  1
  Nd  Nd6  1  0.24999999  0.00000000  0.24746600  1
  Nd  Nd7  1  0.74999998  0.75253398  0.00000002  1
  Nd  Nd8  1  0.74999998  0.24746599  0.24746601  1
  Sn  Sn9  1  0.74999998  0.99999997  0.75253402  1
  Sn  Sn10  1  0.24999999  0.60506798  0.00000002  1
  Sn  Sn11  1  0.24999999  0.39493199  0.39493201  1
  Sn  Sn12  1  0.24999999  0.00000000  0.60506800  1
  Sn  Sn13  1  0.74999998  0.39493199  0.00000001  1
  Sn  Sn14  1  0.74999998  0.60506798  0.60506801  1
  Sn  Sn15  1  0.74999998  0.99999997  0.39493202  1
