# generated using pymatgen
data_CeMnP3
_symmetry_space_group_name_H-M   'P 1'
_cell_length_a   3.79643011
_cell_length_b   3.79643011
_cell_length_c   6.46391201
_cell_angle_alpha   90.00000000
_cell_angle_beta   90.00000000
_cell_angle_gamma   120.00000000
_symmetry_Int_Tables_number   1
_chemical_formula_structural   CeMnP3
_chemical_formula_sum   'Ce1 Mn1 P3'
_cell_volume   80.68204292
_cell_formula_units_Z   1
loop_
 _symmetry_equiv_pos_site_id
 _symmetry_equiv_pos_as_xyz
  1  'x, y, z'
loop_
 _atom_site_type_symbol
 _atom_site_label
 _atom_site_symmetry_multiplicity
 _atom_site_fract_x
 _atom_site_fract_y
 _atom_site_fract_z
 _atom_site_occupancy
  Ce  Ce0  1  0.00000000  0.00000000  0.00000000  1
  Mn  Mn1  1  0.33333334  0.66666668  0.62538200  1
  P  P2  1  0.66666666  0.33333334  0.37461800  1
  P  P3  1  0.66666666  0.33333334  0.73575300  1
  P  P4  1  0.33333334  0.66666668  0.26424700  1
