# generated using pymatgen
data_CaTl6GeS4
_symmetry_space_group_name_H-M   'P 1'
_cell_length_a   4.32424402
_cell_length_b   4.32424402
_cell_length_c   24.30222321
_cell_angle_alpha   90.00000000
_cell_angle_beta   90.00000000
_cell_angle_gamma   120.00000000
_symmetry_Int_Tables_number   1
_chemical_formula_structural   CaTl6GeS4
_chemical_formula_sum   'Ca1 Tl6 Ge1 S4'
_cell_volume   393.54737915
_cell_formula_units_Z   1
loop_
 _symmetry_equiv_pos_site_id
 _symmetry_equiv_pos_as_xyz
  1  'x, y, z'
loop_
 _atom_site_type_symbol
 _atom_site_label
 _atom_site_symmetry_multiplicity
 _atom_site_fract_x
 _atom_site_fract_y
 _atom_site_fract_z
 _atom_site_occupancy
  Tl  Tl0  1  0.00000000  0.00000000  0.50000000  1
  Ca  Ca1  1  0.33333332  0.66666663  0.08194600  1
  Tl  Tl2  1  0.66666666  0.33333332  0.65308499  1
  Tl  Tl3  1  0.66666666  0.33333332  0.91805399  1
  Tl  Tl4  1  0.33333332  0.66666663  0.34691500  1
  Ge  Ge5  1  0.66666666  0.33333332  0.15235900  1
  Tl  Tl6  1  0.33333332  0.66666663  0.84764099  1
  Tl  Tl7  1  0.00000000  0.00000000  0.27667100  1
  S  S8  1  0.33333332  0.66666663  0.56999000  1
  S  S9  1  0.66666666  0.33333332  0.43001000  1
  S  S10  1  0.00000000  0.00000000  0.00000000  1
  S  S11  1  0.00000000  0.00000000  0.72332899  1
