# generated using pymatgen
data_LaCe4SbTe3O5
_symmetry_space_group_name_H-M   'P 1'
_cell_length_a   7.32026005
_cell_length_b   7.32026005
_cell_length_c   7.32026005
_cell_angle_alpha   109.86863708
_cell_angle_beta   109.27288055
_cell_angle_gamma   109.27288055
_symmetry_Int_Tables_number   1
_chemical_formula_structural   LaCe4SbTe3O5
_chemical_formula_sum   'La1 Ce4 Sb1 Te3 O5'
_cell_volume   301.95479676
_cell_formula_units_Z   1
loop_
 _symmetry_equiv_pos_site_id
 _symmetry_equiv_pos_as_xyz
  1  'x, y, z'
loop_
 _atom_site_type_symbol
 _atom_site_label
 _atom_site_symmetry_multiplicity
 _atom_site_fract_x
 _atom_site_fract_y
 _atom_site_fract_z
 _atom_site_occupancy
  Ce  Ce0  1  0.00000003  0.50000002  0.50000003  1
  Ce  Ce1  1  0.50000005  0.75000003  0.25000005  1
  Ce  Ce2  1  0.87459202  0.24959201  0.87500003  1
  Ce  Ce3  1  0.62540804  0.62500002  0.75040805  1
  Sb  Sb4  1  0.12540800  0.00040800  0.37500000  1
  La  La5  1  0.37459201  0.12500000  0.99959201  1
  Te  Te6  1  0.10107804  0.73743103  0.98521204  1
  Te  Te7  1  0.60107801  0.23521201  0.48743102  1
  Te  Te8  1  0.24778202  0.36364801  0.26257003  1
  O  O9  1  0.39892205  0.88635303  0.63413406  1
  O  O10  1  0.74778203  0.51257002  0.11364805  1
  O  O11  1  0.25221802  0.36586501  0.76478702  1
  O  O12  1  0.75221800  0.01478700  0.11586502  1
  O  O13  1  0.89892205  0.88413403  0.63635307  1
