# generated using pymatgen
data_Li4Mn2FeO12
_symmetry_space_group_name_H-M   'P 1'
_cell_length_a   6.33403397
_cell_length_b   6.33871222
_cell_length_c   6.39313602
_cell_angle_alpha   99.46778870
_cell_angle_beta   98.96778870
_cell_angle_gamma   99.62327576
_symmetry_Int_Tables_number   1
_chemical_formula_structural   Li4Mn2FeO12
_chemical_formula_sum   'Li4 Mn2 Fe1 O12'
_cell_volume   245.14476846
_cell_formula_units_Z   1
loop_
 _symmetry_equiv_pos_site_id
 _symmetry_equiv_pos_as_xyz
  1  'x, y, z'
loop_
 _atom_site_type_symbol
 _atom_site_label
 _atom_site_symmetry_multiplicity
 _atom_site_fract_x
 _atom_site_fract_y
 _atom_site_fract_z
 _atom_site_occupancy
  Li  Li0  1  0.39129298  0.69684797  0.86315091  1
  Li  Li1  1  0.68867697  0.86105596  0.39027290  1
  Li  Li2  1  0.60870699  0.30315199  0.13684895  1
  Li  Li3  1  0.31132300  0.13894399  0.60972696  1
  Mn  Mn4  1  0.00000000  0.00000000  0.00000000  1
  Mn  Mn5  1  0.85455499  0.39146798  0.68179391  1
  Fe  Fe6  1  0.14544498  0.60853197  0.31820595  1
  O  O7  1  0.04423698  0.67647097  0.90573193  1
  O  O8  1  0.68228997  0.92457796  0.05926691  1
  O  O9  1  0.91827100  0.07205100  0.68441893  1
  O  O10  1  0.95576299  0.32352899  0.09426793  1
  O  O11  1  0.31771000  0.07542200  0.94073295  1
  O  O12  1  0.08172897  0.92794896  0.31558093  1
  O  O13  1  0.58772299  0.18358499  0.43334995  1
  O  O14  1  0.17433599  0.42734098  0.57281695  1
  O  O15  1  0.41660998  0.57668198  0.17882994  1
  O  O16  1  0.41227697  0.81641497  0.56664991  1
  O  O17  1  0.82566398  0.57265898  0.42718291  1
  O  O18  1  0.58338999  0.42331798  0.82116992  1
