# generated using pymatgen
data_Ce2SnPd2
_symmetry_space_group_name_H-M   'P 1'
_cell_length_a   3.85080194
_cell_length_b   7.90994978
_cell_length_c   7.90994978
_cell_angle_alpha   90.00000000
_cell_angle_beta   90.00000000
_cell_angle_gamma   90.00000000
_symmetry_Int_Tables_number   1
_chemical_formula_structural   Ce2SnPd2
_chemical_formula_sum   'Ce4 Sn2 Pd4'
_cell_volume   240.93430175
_cell_formula_units_Z   2
loop_
 _symmetry_equiv_pos_site_id
 _symmetry_equiv_pos_as_xyz
  1  'x, y, z'
loop_
 _atom_site_type_symbol
 _atom_site_label
 _atom_site_symmetry_multiplicity
 _atom_site_fract_x
 _atom_site_fract_y
 _atom_site_fract_z
 _atom_site_occupancy
  Ce  Ce0  1  0.50000001  0.67250602  0.17250600  1
  Ce  Ce1  1  0.50000001  0.32749401  0.82749402  1
  Ce  Ce2  1  0.50000001  0.17250600  0.32749401  1
  Ce  Ce3  1  0.50000001  0.82749402  0.67250602  1
  Sn  Sn4  1  0.00000000  0.50000001  0.50000001  1
  Sn  Sn5  1  0.00000000  0.00000000  0.00000000  1
  Pd  Pd6  1  0.00000000  0.12629100  0.62629102  1
  Pd  Pd7  1  1.00000001  0.87370902  0.37370901  1
  Pd  Pd8  1  0.00000000  0.62629102  0.87370902  1
  Pd  Pd9  1  1.00000001  0.37370901  0.12629100  1
