# generated using pymatgen
data_Ca2MgP5C12
_symmetry_space_group_name_H-M   'P 1'
_cell_length_a   5.59171391
_cell_length_b   5.76187611
_cell_length_c   10.81477451
_cell_angle_alpha   74.55049133
_cell_angle_beta   86.82577515
_cell_angle_gamma   90.00000000
_symmetry_Int_Tables_number   1
_chemical_formula_structural   Ca2MgP5C12
_chemical_formula_sum   'Ca2 Mg1 P5 C12'
_cell_volume   335.29336871
_cell_formula_units_Z   1
loop_
 _symmetry_equiv_pos_site_id
 _symmetry_equiv_pos_as_xyz
  1  'x, y, z'
loop_
 _atom_site_type_symbol
 _atom_site_label
 _atom_site_symmetry_multiplicity
 _atom_site_fract_x
 _atom_site_fract_y
 _atom_site_fract_z
 _atom_site_occupancy
  Mg  Mg0  1  0.73028298  0.40965399  0.18069201  1
  Ca  Ca1  1  0.26971699  0.59034599  0.81930802  1
  Ca  Ca2  1  0.18824599  0.82031398  0.35937201  1
  P  P3  1  0.81175398  0.17968600  0.64062802  1
  P  P4  1  0.68077198  0.75967198  0.48065602  1
  P  P5  1  0.31922799  0.24032799  0.51934401  1
  P  P6  1  0.23985599  0.96007198  0.07985601  1
  P  P7  1  0.76014398  0.03992800  0.92014402  1
  C  C8  1  0.15101799  0.27863699  0.44272601  1
  C  C9  1  0.27252399  0.18007100  0.63985801  1
  C  C10  1  0.23140999  0.73779698  0.14256401  1
  C  C11  1  0.74413098  0.97988898  0.04022201  1
  C  C12  1  0.76858998  0.26220299  0.85743602  1
  C  C13  1  0.76858998  0.88036098  0.85743602  1
  C  C14  1  0.84898198  0.72136298  0.55727402  1
  C  C15  1  0.23140999  0.11963900  0.14256400  1
  C  C16  1  0.25586899  0.02011100  0.95977801  1
  C  C17  1  0.72747598  0.81992898  0.36014202  1
  C  C18  1  0.46352099  0.73737598  0.52524802  1
  C  C19  1  0.53647899  0.26262399  0.47475201  1
