# generated using pymatgen
data_Na2O2
_symmetry_space_group_name_H-M   'P 1'
_cell_length_a   4.03746414
_cell_length_b   7.08947277
_cell_length_c   10.30500603
_cell_angle_alpha   90.00000000
_cell_angle_beta   90.00000000
_cell_angle_gamma   106.54394531
_symmetry_Int_Tables_number   1
_chemical_formula_structural   Na2O2
_chemical_formula_sum   'Na6 O6'
_cell_volume   282.75417348
_cell_formula_units_Z   3
loop_
 _symmetry_equiv_pos_site_id
 _symmetry_equiv_pos_as_xyz
  1  'x, y, z'
loop_
 _atom_site_type_symbol
 _atom_site_label
 _atom_site_symmetry_multiplicity
 _atom_site_fract_x
 _atom_site_fract_y
 _atom_site_fract_z
 _atom_site_occupancy
  Na  Na0  1  0.74421198  0.48842400  0.75000000  1
  Na  Na1  1  0.25578800  0.51157600  0.25000000  1
  Na  Na2  1  0.00000000  0.00000000  0.50000000  1
  Na  Na3  1  0.00000000  0.00000000  0.00000000  1
  Na  Na4  1  0.46740400  0.93480799  0.75000000  1
  Na  Na5  1  0.53259598  0.06519200  0.25000000  1
  O  O6  1  0.36848100  0.73696199  0.56418500  1
  O  O7  1  0.63151898  0.26303800  0.43581500  1
  O  O8  1  0.36848100  0.73696199  0.93581500  1
  O  O9  1  0.63151898  0.26303800  0.06418500  1
  O  O10  1  0.06579900  0.13159800  0.75000000  1
  O  O11  1  0.93420098  0.86840199  0.25000000  1
