# generated using pymatgen
data_Nd(HfNi2)6
_symmetry_space_group_name_H-M   'P 1'
_cell_length_a   6.84784555
_cell_length_b   6.84784555
_cell_length_c   6.84784555
_cell_angle_alpha   82.70786285
_cell_angle_beta   82.70786285
_cell_angle_gamma   82.70786285
_symmetry_Int_Tables_number   1
_chemical_formula_structural   Nd(HfNi2)6
_chemical_formula_sum   'Nd1 Hf6 Ni12'
_cell_volume   313.93207328
_cell_formula_units_Z   1
loop_
 _symmetry_equiv_pos_site_id
 _symmetry_equiv_pos_as_xyz
  1  'x, y, z'
loop_
 _atom_site_type_symbol
 _atom_site_label
 _atom_site_symmetry_multiplicity
 _atom_site_fract_x
 _atom_site_fract_y
 _atom_site_fract_z
 _atom_site_occupancy
  Hf  Hf0  1  0.66337595  0.66337599  0.66337591  1
  Nd  Nd1  1  0.33662398  0.33662400  0.33662395  1
  Hf  Hf2  1  0.90009294  0.90009299  0.90009287  1
  Hf  Hf3  1  0.09990699  0.09990700  0.09990699  1
  Hf  Hf4  1  0.00000000  0.00000000  0.49999998  1
  Hf  Hf5  1  0.49999999  0.00000000  0.99999994  1
  Hf  Hf6  1  -0.00000003  0.49999999  -0.00000003  1
  Ni  Ni7  1  0.29417796  0.70582199  0.99999991  1
  Ni  Ni8  1  -0.00000002  0.29417800  0.70582196  1
  Ni  Ni9  1  0.70582199  0.00000000  0.29417795  1
  Ni  Ni10  1  0.70582197  0.29417800  -0.00000006  1
  Ni  Ni11  1  -0.00000004  0.70582199  0.29417795  1
  Ni  Ni12  1  0.29417800  0.00000000  0.70582196  1
  Ni  Ni13  1  0.35118795  0.83942999  0.35118792  1
  Ni  Ni14  1  0.35118798  0.35118800  0.83942993  1
  Ni  Ni15  1  0.83942997  0.35118800  0.35118792  1
  Ni  Ni16  1  0.16056996  0.64881199  0.64881194  1
  Ni  Ni17  1  0.64881198  0.16057000  0.64881193  1
  Ni  Ni18  1  0.64881195  0.64881199  0.16056992  1
