# generated using pymatgen
data_AgS
_symmetry_space_group_name_H-M   'P 1'
_cell_length_a   5.76786613
_cell_length_b   5.76786613
_cell_length_c   6.98012924
_cell_angle_alpha   114.40370178
_cell_angle_beta   114.40370178
_cell_angle_gamma   90.00000000
_symmetry_Int_Tables_number   1
_chemical_formula_structural   AgS
_chemical_formula_sum   'Ag4 S4'
_cell_volume   188.45258979
_cell_formula_units_Z   4
loop_
 _symmetry_equiv_pos_site_id
 _symmetry_equiv_pos_as_xyz
  1  'x, y, z'
loop_
 _atom_site_type_symbol
 _atom_site_label
 _atom_site_symmetry_multiplicity
 _atom_site_fract_x
 _atom_site_fract_y
 _atom_site_fract_z
 _atom_site_occupancy
  Ag  Ag0  1  0.00000000  0.00000000  0.00000000  1
  Ag  Ag1  1  0.25000000  0.74999999  0.50000002  1
  Ag  Ag2  1  0.74999999  0.25000000  0.50000002  1
  Ag  Ag3  1  0.50000000  0.49999999  0.00000001  1
  S  S4  1  0.36400800  0.90358198  0.26759002  1
  S  S5  1  0.09641800  0.09641800  0.73241002  1
  S  S6  1  0.63599199  0.63599199  0.73241003  1
  S  S7  1  0.90358199  0.36400799  0.26759002  1
