# generated using pymatgen
data_HfZrCuSn2Au
_symmetry_space_group_name_H-M   'P 1'
_cell_length_a   5.33048582
_cell_length_b   5.38041401
_cell_length_c   5.38041401
_cell_angle_alpha   75.79560852
_cell_angle_beta   60.30649567
_cell_angle_gamma   60.30649567
_symmetry_Int_Tables_number   1
_chemical_formula_structural   HfZrCuSn2Au
_chemical_formula_sum   'Hf1 Zr1 Cu1 Sn2 Au1'
_cell_volume   116.44624966
_cell_formula_units_Z   1
loop_
 _symmetry_equiv_pos_site_id
 _symmetry_equiv_pos_as_xyz
  1  'x, y, z'
loop_
 _atom_site_type_symbol
 _atom_site_label
 _atom_site_symmetry_multiplicity
 _atom_site_fract_x
 _atom_site_fract_y
 _atom_site_fract_z
 _atom_site_occupancy
  Zr  Zr0  1  0.25000000  1.00000002  0.00000004  1
  Hf  Hf1  1  0.75000001  1.00000002  1.00000007  1
  Cu  Cu2  1  0.83858602  0.82282802  0.50000005  1
  Sn  Sn3  1  0.16141400  0.17717200  0.50000002  1
  Au  Au4  1  0.66141401  0.50000001  0.17717203  1
  Sn  Sn5  1  0.33858600  0.50000001  0.82282804  1
