# generated using pymatgen
data_Li2CaO3
_symmetry_space_group_name_H-M   'P 1'
_cell_length_a   5.90616179
_cell_length_b   5.90616179
_cell_length_c   5.91680098
_cell_angle_alpha   100.73064423
_cell_angle_beta   100.73064423
_cell_angle_gamma   118.56335449
_symmetry_Int_Tables_number   1
_chemical_formula_structural   Li2CaO3
_chemical_formula_sum   'Li4 Ca2 O6'
_cell_volume   168.80292237
_cell_formula_units_Z   2
loop_
 _symmetry_equiv_pos_site_id
 _symmetry_equiv_pos_as_xyz
  1  'x, y, z'
loop_
 _atom_site_type_symbol
 _atom_site_label
 _atom_site_symmetry_multiplicity
 _atom_site_fract_x
 _atom_site_fract_y
 _atom_site_fract_z
 _atom_site_occupancy
  Li  Li0  1  0.08043607  0.91956404  0.75000010  1
  Li  Li1  1  0.75426902  0.24573101  0.75000009  1
  Li  Li2  1  0.91956401  0.08043600  0.25000007  1
  Li  Li3  1  0.24573106  0.75426903  0.25000008  1
  Ca  Ca4  1  0.40549205  0.59450803  0.75000009  1
  Ca  Ca5  1  0.59450803  0.40549202  0.25000007  1
  O  O6  1  0.35523102  0.21497401  0.49223105  1
  O  O7  1  0.64476906  0.78502603  0.50776911  1
  O  O8  1  0.78502605  0.64476903  0.00776909  1
  O  O9  1  0.00000004  0.50000002  0.50000006  1
  O  O10  1  0.21497403  0.35523102  0.99223107  1
  O  O11  1  0.50000000  0.00000000  0.00000003  1
