# generated using pymatgen
data_Ce4Ga3Pd5
_symmetry_space_group_name_H-M   'P 1'
_cell_length_a   4.16980219
_cell_length_b   7.07083797
_cell_length_c   7.87537622
_cell_angle_alpha   90.00000000
_cell_angle_beta   90.00000000
_cell_angle_gamma   90.00000000
_symmetry_Int_Tables_number   1
_chemical_formula_structural   Ce4Ga3Pd5
_chemical_formula_sum   'Ce4 Ga3 Pd5'
_cell_volume   232.19755845
_cell_formula_units_Z   1
loop_
 _symmetry_equiv_pos_site_id
 _symmetry_equiv_pos_as_xyz
  1  'x, y, z'
loop_
 _atom_site_type_symbol
 _atom_site_label
 _atom_site_symmetry_multiplicity
 _atom_site_fract_x
 _atom_site_fract_y
 _atom_site_fract_z
 _atom_site_occupancy
  Ce  Ce0  1  0.24999999  0.63953500  0.56178598  1
  Ce  Ce1  1  0.74999997  0.36046500  0.43821399  1
  Ce  Ce2  1  0.74999997  0.86046500  0.06178600  1
  Ce  Ce3  1  0.24999999  0.13953500  0.93821397  1
  Ga  Ga4  1  0.24999999  0.52184600  0.19036899  1
  Ga  Ga5  1  0.74999997  0.47815400  0.80963098  1
  Ga  Ga6  1  0.74999997  0.97815400  0.69036898  1
  Pd  Pd7  1  0.24999999  0.02184600  0.30963099  1
  Pd  Pd8  1  0.24999999  0.76661500  0.89008997  1
  Pd  Pd9  1  0.74999997  0.23338500  0.10991000  1
  Pd  Pd10  1  0.74999997  0.73338500  0.39008999  1
  Pd  Pd11  1  0.24999999  0.26661500  0.60990998  1
