# generated using pymatgen
data_HfZrPt
_symmetry_space_group_name_H-M   'P 1'
_cell_length_a   4.22705984
_cell_length_b   4.35779762
_cell_length_c   4.35809708
_cell_angle_alpha   119.99266815
_cell_angle_beta   90.00000000
_cell_angle_gamma   90.00000000
_symmetry_Int_Tables_number   1
_chemical_formula_structural   HfZrPt
_chemical_formula_sum   'Hf1 Zr1 Pt1'
_cell_volume   69.52885323
_cell_formula_units_Z   1
loop_
 _symmetry_equiv_pos_site_id
 _symmetry_equiv_pos_as_xyz
  1  'x, y, z'
loop_
 _atom_site_type_symbol
 _atom_site_label
 _atom_site_symmetry_multiplicity
 _atom_site_fract_x
 _atom_site_fract_y
 _atom_site_fract_z
 _atom_site_occupancy
  Hf  Hf0  1  0.00000000  0.99997706  0.99997901  1
  Zr  Zr1  1  0.50000002  0.33341702  0.66670700  1
  Pt  Pt2  1  0.50000002  0.66666671  0.33341401  1
