# generated using pymatgen
data_NdSn
_symmetry_space_group_name_H-M   'P 1'
_cell_length_a   6.80417013
_cell_length_b   8.52900219
_cell_length_c   8.52900124
_cell_angle_alpha   120.00000000
_cell_angle_beta   90.00000000
_cell_angle_gamma   90.00000000
_symmetry_Int_Tables_number   1
_chemical_formula_structural   NdSn
_chemical_formula_sum   'Nd8 Sn8'
_cell_volume   428.64937925
_cell_formula_units_Z   8
loop_
 _symmetry_equiv_pos_site_id
 _symmetry_equiv_pos_as_xyz
  1  'x, y, z'
loop_
 _atom_site_type_symbol
 _atom_site_label
 _atom_site_symmetry_multiplicity
 _atom_site_fract_x
 _atom_site_fract_y
 _atom_site_fract_z
 _atom_site_occupancy
  Nd  Nd0  1  0.99999998  0.66666664  0.33333333  1
  Nd  Nd1  1  0.49999999  0.33333332  0.66666669  1
  Nd  Nd2  1  0.99999998  0.33333332  0.66666669  1
  Nd  Nd3  1  0.49999999  0.66666664  0.33333333  1
  Nd  Nd4  1  0.74999999  0.25373899  0.25373901  1
  Nd  Nd5  1  0.25000000  0.25373899  1.00000004  1
  Nd  Nd6  1  0.25000000  0.00000000  0.25373901  1
  Nd  Nd7  1  0.74999999  0.00000000  0.74626104  1
  Sn  Sn8  1  0.74999999  0.74626097  -0.00000002  1
  Sn  Sn9  1  0.25000000  0.74626097  0.74626102  1
  Sn  Sn10  1  0.74999999  0.61022998  0.61023001  1
  Sn  Sn11  1  0.25000000  0.61022998  -0.00000002  1
  Sn  Sn12  1  0.25000000  0.00000000  0.61023003  1
  Sn  Sn13  1  0.74999999  0.00000000  0.38977002  1
  Sn  Sn14  1  0.74999999  0.38976999  -0.00000001  1
  Sn  Sn15  1  0.25000000  0.38976999  0.38977001  1
