# generated using pymatgen
data_TiNiP
_symmetry_space_group_name_H-M   'P 1'
_cell_length_a   3.64664412
_cell_length_b   6.07577181
_cell_length_c   6.07577276
_cell_angle_alpha   119.99999237
_cell_angle_beta   90.00000000
_cell_angle_gamma   90.00000000
_symmetry_Int_Tables_number   1
_chemical_formula_structural   TiNiP
_chemical_formula_sum   'Ti3 Ni3 P3'
_cell_volume   116.58079798
_cell_formula_units_Z   3
loop_
 _symmetry_equiv_pos_site_id
 _symmetry_equiv_pos_as_xyz
  1  'x, y, z'
loop_
 _atom_site_type_symbol
 _atom_site_label
 _atom_site_symmetry_multiplicity
 _atom_site_fract_x
 _atom_site_fract_y
 _atom_site_fract_z
 _atom_site_occupancy
  Ti  Ti0  1  0.99999997  0.41342300  0.41342299  1
  Ti  Ti1  1  0.00000000  0.00000000  0.58657702  1
  Ti  Ti2  1  0.99999997  0.58657700  -0.00000003  1
  Ni  Ni3  1  0.49999998  0.75250400  0.75250399  1
  Ni  Ni4  1  0.49999998  1.00000001  0.24749596  1
  Ni  Ni5  1  0.49999998  0.24749600  -0.00000001  1
  P  P6  1  0.49999998  0.66666667  0.33333331  1
  P  P7  1  0.49999998  0.33333334  0.66666667  1
  P  P8  1  0.00000000  0.00000000  0.00000000  1
