# generated using pymatgen
data_Hf2Al6Ga8Sn2Ge
_symmetry_space_group_name_H-M   'P 1'
_cell_length_a   6.42450142
_cell_length_b   6.44235516
_cell_length_c   6.44235516
_cell_angle_alpha   82.65704346
_cell_angle_beta   82.42831421
_cell_angle_gamma   82.42831421
_symmetry_Int_Tables_number   1
_chemical_formula_structural   Hf2Al6Ga8Sn2Ge
_chemical_formula_sum   'Hf2 Al6 Ga8 Sn2 Ge1'
_cell_volume   260.35228575
_cell_formula_units_Z   1
loop_
 _symmetry_equiv_pos_site_id
 _symmetry_equiv_pos_as_xyz
  1  'x, y, z'
loop_
 _atom_site_type_symbol
 _atom_site_label
 _atom_site_symmetry_multiplicity
 _atom_site_fract_x
 _atom_site_fract_y
 _atom_site_fract_z
 _atom_site_occupancy
  Hf  Hf0  1  0.65771898  0.65865600  0.65865594  1
  Hf  Hf1  1  0.34162699  0.34120400  0.34120397  1
  Al  Al2  1  0.70653799  0.29431200  0.00104996  1
  Al  Al3  1  0.00001198  0.70959400  0.28929997  1
  Sn  Sn4  1  0.29319097  0.99894300  0.70768494  1
  Al  Al5  1  0.00001199  0.28930000  0.70959398  1
  Al  Al6  1  0.70653799  0.00105000  0.29431197  1
  Al  Al7  1  0.29319098  0.70768500  0.99894295  1
  Ga  Ga8  1  0.99991296  0.99858900  0.50102791  1
  Ga  Ga9  1  0.49963700  0.00040500  0.00040498  1
  Ga  Ga10  1  0.99991298  0.50102800  0.99858893  1
  Al  Al11  1  0.90351197  0.90441100  0.90441092  1
  Ge  Ge12  1  0.09474500  0.09638300  0.09638299  1
  Ga  Ga13  1  0.84603498  0.34186300  0.34186295  1
  Ga  Ga14  1  0.65769899  0.15875800  0.65871996  1
  Sn  Sn15  1  0.65769898  0.65872000  0.15875794  1
  Ga  Ga16  1  0.16101798  0.65633500  0.65633496  1
  Ga  Ga17  1  0.34050197  0.84382900  0.33893495  1
  Ga  Ga18  1  0.34050199  0.33893500  0.84382896  1
