# generated using pymatgen
data_CeAlSi4
_symmetry_space_group_name_H-M   'P 1'
_cell_length_a   5.04748964
_cell_length_b   5.04748964
_cell_length_c   8.78793907
_cell_angle_alpha   73.31063080
_cell_angle_beta   73.31063080
_cell_angle_gamma   60.00000000
_symmetry_Int_Tables_number   1
_chemical_formula_structural   CeAlSi4
_chemical_formula_sum   'Ce2 Al2 Si8'
_cell_volume   182.92455886
_cell_formula_units_Z   2
loop_
 _symmetry_equiv_pos_site_id
 _symmetry_equiv_pos_as_xyz
  1  'x, y, z'
loop_
 _atom_site_type_symbol
 _atom_site_label
 _atom_site_symmetry_multiplicity
 _atom_site_fract_x
 _atom_site_fract_y
 _atom_site_fract_z
 _atom_site_occupancy
  Ce  Ce0  1  0.68747396  0.68747298  0.43757902  1
  Ce  Ce1  1  0.31251298  0.31251399  0.56246001  1
  Al  Al2  1  0.81259895  0.81259997  0.06220101  1
  Al  Al3  1  0.18742199  0.18742199  0.93773402  1
  Si  Si4  1  0.50002897  0.50002798  0.99991402  1
  Si  Si5  1  0.99998294  0.99998197  0.50005202  1
  Si  Si6  1  0.24987698  0.74990298  0.75031601  1
  Si  Si7  1  0.75028695  0.25000499  0.24970302  1
  Si  Si8  1  0.74990395  0.24987599  0.75031603  1
  Si  Si9  1  0.25000498  0.75028698  0.24970300  1
  Si  Si10  1  0.74990395  0.74990398  0.75031602  1
  Si  Si11  1  0.25000498  0.25000499  0.24970301  1
