# generated using pymatgen
data_Cu4SeS7
_symmetry_space_group_name_H-M   'P 1'
_cell_length_a   5.87592697
_cell_length_b   5.88470984
_cell_length_c   5.88231802
_cell_angle_alpha   90.00000000
_cell_angle_beta   89.84597778
_cell_angle_gamma   90.00000000
_symmetry_Int_Tables_number   1
_chemical_formula_structural   Cu4SeS7
_chemical_formula_sum   'Cu4 Se1 S7'
_cell_volume   203.39879426
_cell_formula_units_Z   1
loop_
 _symmetry_equiv_pos_site_id
 _symmetry_equiv_pos_as_xyz
  1  'x, y, z'
loop_
 _atom_site_type_symbol
 _atom_site_label
 _atom_site_symmetry_multiplicity
 _atom_site_fract_x
 _atom_site_fract_y
 _atom_site_fract_z
 _atom_site_occupancy
  Cu  Cu0  1  0.51937300  0.47953801  0.22973303  1
  Cu  Cu1  1  0.48062700  0.97953803  0.77026705  1
  Cu  Cu2  1  0.97816900  0.52107401  0.72863206  1
  Cu  Cu3  1  0.02183100  0.02107400  0.27136801  1
  Se  Se4  1  0.86359700  0.12972500  0.88033806  1
  S  S5  1  0.13640300  0.62972502  0.11966201  1
  S  S6  1  0.62677200  0.86590202  0.38321904  1
  S  S7  1  0.37322800  0.36590201  0.61678104  1
  S  S8  1  0.12497300  0.88154202  0.63315403  1
  S  S9  1  0.87502700  0.38154201  0.36684604  1
  S  S10  1  0.38423300  0.12221900  0.12631802  1
  S  S11  1  0.61576700  0.62221902  0.87368206  1
