# generated using pymatgen
data_Ba5SrSbWO10
_symmetry_space_group_name_H-M   'P 1'
_cell_length_a   6.00320911
_cell_length_b   6.94666004
_cell_length_c   6.94666004
_cell_angle_alpha   90.00000000
_cell_angle_beta   90.00000000
_cell_angle_gamma   90.00000000
_symmetry_Int_Tables_number   1
_chemical_formula_structural   Ba5SrSbWO10
_chemical_formula_sum   'Ba5 Sr1 Sb1 W1 O10'
_cell_volume   289.69137370
_cell_formula_units_Z   1
loop_
 _symmetry_equiv_pos_site_id
 _symmetry_equiv_pos_as_xyz
  1  'x, y, z'
loop_
 _atom_site_type_symbol
 _atom_site_label
 _atom_site_symmetry_multiplicity
 _atom_site_fract_x
 _atom_site_fract_y
 _atom_site_fract_z
 _atom_site_occupancy
  Ba  Ba0  1  0.00000000  0.00000000  0.00000000  1
  Ba  Ba1  1  -0.00000000  0.50000000  0.50000000  1
  Sr  Sr2  1  0.49999999  0.82316600  0.67683400  1
  Ba  Ba3  1  0.49999999  0.67683400  0.17683400  1
  Ba  Ba4  1  0.49999999  0.32316600  0.82316600  1
  Ba  Ba5  1  0.49999999  0.17683400  0.32316600  1
  Sb  Sb6  1  -0.00000000  0.50000000  -0.00000000  1
  W  W7  1  0.99999998  0.00000000  0.50000000  1
  O  O8  1  0.49999999  0.50000000  0.50000000  1
  O  O9  1  0.49999999  0.00000000  -0.00000000  1
  O  O10  1  0.24823100  0.14112800  0.64112800  1
  O  O11  1  0.24823100  0.85887199  0.35887200  1
  O  O12  1  0.24823100  0.35887200  0.14112800  1
  O  O13  1  0.24823100  0.64112800  0.85887199  1
  O  O14  1  0.75176899  0.14112800  0.64112800  1
  O  O15  1  0.75176899  0.64112800  0.85887199  1
  O  O16  1  0.75176899  0.85887199  0.35887200  1
  O  O17  1  0.75176899  0.35887200  0.14112800  1
