# generated using pymatgen
data_LiMn2C3
_symmetry_space_group_name_H-M   'P 1'
_cell_length_a   3.63305998
_cell_length_b   3.63305998
_cell_length_c   5.69459581
_cell_angle_alpha   108.60197449
_cell_angle_beta   108.60197449
_cell_angle_gamma   90.00000000
_symmetry_Int_Tables_number   1
_chemical_formula_structural   LiMn2C3
_chemical_formula_sum   'Li1 Mn2 C3'
_cell_volume   67.08072155
_cell_formula_units_Z   1
loop_
 _symmetry_equiv_pos_site_id
 _symmetry_equiv_pos_as_xyz
  1  'x, y, z'
loop_
 _atom_site_type_symbol
 _atom_site_label
 _atom_site_symmetry_multiplicity
 _atom_site_fract_x
 _atom_site_fract_y
 _atom_site_fract_z
 _atom_site_occupancy
  Li  Li0  1  0.00000000  0.00000000  0.00000000  1
  Mn  Mn1  1  0.75000003  0.25000001  0.50000004  1
  Mn  Mn2  1  0.25000004  0.75000002  0.50000004  1
  C  C3  1  0.35282803  0.35282801  0.70565603  1
  C  C4  1  0.64717205  0.64717202  0.29434406  1
  C  C5  1  0.50000004  0.50000002  0.00000005  1
