# generated using pymatgen
data_Fe
_symmetry_space_group_name_H-M   'P 1'
_cell_length_a   4.13503981
_cell_length_b   5.13066530
_cell_length_c   5.13106012
_cell_angle_alpha   119.99359894
_cell_angle_beta   90.00000000
_cell_angle_gamma   90.00000000
_symmetry_Int_Tables_number   1
_chemical_formula_structural   Fe
_chemical_formula_sum   Fe8
_cell_volume   94.27990221
_cell_formula_units_Z   8
loop_
 _symmetry_equiv_pos_site_id
 _symmetry_equiv_pos_as_xyz
  1  'x, y, z'
loop_
 _atom_site_type_symbol
 _atom_site_label
 _atom_site_symmetry_multiplicity
 _atom_site_fract_x
 _atom_site_fract_y
 _atom_site_fract_z
 _atom_site_occupancy
  Fe  Fe0  1  0.25000001  0.66649997  0.33324500  1
  Fe  Fe1  1  0.75000004  0.33349999  0.66675499  1
  Fe  Fe2  1  0.25000001  0.67478797  0.83745799  1
  Fe  Fe3  1  0.25000001  0.16251999  0.83749999  1
  Fe  Fe4  1  0.25000001  0.16250099  0.32518600  1
  Fe  Fe5  1  0.75000004  0.32521199  0.16254200  1
  Fe  Fe6  1  0.75000004  0.83747997  0.16250000  1
  Fe  Fe7  1  0.75000004  0.83749897  0.67481399  1
