# generated using pymatgen
data_K3Mn2NbSe2O3F
_symmetry_space_group_name_H-M   'P 1'
_cell_length_a   5.55818176
_cell_length_b   7.76227283
_cell_length_c   8.83039665
_cell_angle_alpha   110.20336151
_cell_angle_beta   90.00000000
_cell_angle_gamma   90.00000000
_symmetry_Int_Tables_number   1
_chemical_formula_structural   K3Mn2NbSe2O3F
_chemical_formula_sum   'K3 Mn2 Nb1 Se2 O3 F1'
_cell_volume   357.53909225
_cell_formula_units_Z   1
loop_
 _symmetry_equiv_pos_site_id
 _symmetry_equiv_pos_as_xyz
  1  'x, y, z'
loop_
 _atom_site_type_symbol
 _atom_site_label
 _atom_site_symmetry_multiplicity
 _atom_site_fract_x
 _atom_site_fract_y
 _atom_site_fract_z
 _atom_site_occupancy
  K  K0  1  0.25000001  0.67196302  0.36586103  1
  K  K1  1  0.75000003  0.32803701  0.63413902  1
  K  K2  1  0.50413402  0.88567803  0.85321405  1
  Nb  Nb3  1  0.99586604  0.88567803  0.85321405  1
  Mn  Mn4  1  0.00413400  0.11432200  0.14678601  1
  Mn  Mn5  1  0.49586602  0.11432200  0.14678601  1
  Se  Se6  1  0.75000003  0.80553703  0.08167303  1
  Se  Se7  1  0.25000001  0.19446301  0.91832702  1
  F  F8  1  0.75000003  0.86878903  0.62795004  1
  O  O9  1  0.75000003  0.37588001  0.25327802  1
  O  O10  1  0.25000001  0.13121100  0.37205001  1
  O  O11  1  0.25000001  0.62412002  0.74672203  1
