# generated using pymatgen
data_NdSn
_symmetry_space_group_name_H-M   'P 1'
_cell_length_a   6.78238344
_cell_length_b   6.78238344
_cell_length_c   10.63347435
_cell_angle_alpha   90.00000000
_cell_angle_beta   90.00000000
_cell_angle_gamma   102.78820801
_symmetry_Int_Tables_number   1
_chemical_formula_structural   NdSn
_chemical_formula_sum   'Nd8 Sn8'
_cell_volume   477.01419242
_cell_formula_units_Z   8
loop_
 _symmetry_equiv_pos_site_id
 _symmetry_equiv_pos_as_xyz
  1  'x, y, z'
loop_
 _atom_site_type_symbol
 _atom_site_label
 _atom_site_symmetry_multiplicity
 _atom_site_fract_x
 _atom_site_fract_y
 _atom_site_fract_z
 _atom_site_occupancy
  Nd  Nd0  1  0.62918999  0.62918999  0.74999998  1
  Nd  Nd1  1  0.37080999  0.37080999  0.24999999  1
  Nd  Nd2  1  0.20170199  0.79829799  0.49999998  1
  Nd  Nd3  1  0.20170199  0.79829799  0.99999997  1
  Nd  Nd4  1  0.79829799  0.20170200  0.49999998  1
  Nd  Nd5  1  0.79829799  0.20170200  -0.00000000  1
  Nd  Nd6  1  0.00402500  0.00402500  0.74999998  1
  Nd  Nd7  1  0.99597498  0.99597498  0.24999999  1
  Sn  Sn8  1  0.30675699  0.30675700  0.94736797  1
  Sn  Sn9  1  0.69324299  0.69324299  0.05263200  1
  Sn  Sn10  1  0.30675699  0.30675700  0.55263198  1
  Sn  Sn11  1  0.69324299  0.69324299  0.44736799  1
  Sn  Sn12  1  0.50826599  0.05984000  0.74999998  1
  Sn  Sn13  1  0.94015998  0.49173399  0.24999999  1
  Sn  Sn14  1  0.49173399  0.94015999  0.24999999  1
  Sn  Sn15  1  0.05984000  0.50826599  0.74999998  1
