# generated using pymatgen
data_HfSn3
_symmetry_space_group_name_H-M   'P 1'
_cell_length_a   4.86367083
_cell_length_b   6.02814579
_cell_length_c   6.02814531
_cell_angle_alpha   120.00000000
_cell_angle_beta   90.00000000
_cell_angle_gamma   90.00000000
_symmetry_Int_Tables_number   1
_chemical_formula_structural   HfSn3
_chemical_formula_sum   'Hf2 Sn6'
_cell_volume   153.06019622
_cell_formula_units_Z   2
loop_
 _symmetry_equiv_pos_site_id
 _symmetry_equiv_pos_as_xyz
  1  'x, y, z'
loop_
 _atom_site_type_symbol
 _atom_site_label
 _atom_site_symmetry_multiplicity
 _atom_site_fract_x
 _atom_site_fract_y
 _atom_site_fract_z
 _atom_site_occupancy
  Hf  Hf0  1  0.25000001  0.66666667  0.33333331  1
  Hf  Hf1  1  0.75000003  0.33333334  0.66666667  1
  Sn  Sn2  1  0.75000003  0.83492501  0.16507496  1
  Sn  Sn3  1  0.75000003  0.33015000  0.16507499  1
  Sn  Sn4  1  0.75000003  0.83492501  0.66984997  1
  Sn  Sn5  1  0.25000001  0.16507500  0.83492502  1
  Sn  Sn6  1  0.25000001  0.66985000  0.83492499  1
  Sn  Sn7  1  0.25000001  0.16507500  0.33015000  1
