# generated using pymatgen
data_LiBe(CO3)2
_symmetry_space_group_name_H-M   'P 1'
_cell_length_a   4.70948219
_cell_length_b   4.70955181
_cell_length_c   5.72068644
_cell_angle_alpha   114.30474091
_cell_angle_beta   90.00030518
_cell_angle_gamma   60.00408173
_symmetry_Int_Tables_number   1
_chemical_formula_structural   LiBe(CO3)2
_chemical_formula_sum   'Li1 Be1 C2 O6'
_cell_volume   96.68542122
_cell_formula_units_Z   1
loop_
 _symmetry_equiv_pos_site_id
 _symmetry_equiv_pos_as_xyz
  1  'x, y, z'
loop_
 _atom_site_type_symbol
 _atom_site_label
 _atom_site_symmetry_multiplicity
 _atom_site_fract_x
 _atom_site_fract_y
 _atom_site_fract_z
 _atom_site_occupancy
  Li  Li0  1  0.00000000  0.00000000  0.00000000  1
  Be  Be1  1  0.50000000  0.00000000  0.50000000  1
  C  C2  1  0.74998900  0.50003403  0.75004602  1
  C  C3  1  0.25001100  0.49996603  0.24995401  1
  O  O4  1  0.75002300  0.22435501  0.75002901  1
  O  O5  1  0.24997700  0.77564504  0.24997102  1
  O  O6  1  0.02561800  0.50006303  0.75005098  1
  O  O7  1  0.47435000  0.77565304  0.75003501  1
  O  O8  1  0.97438200  0.49993703  0.24994905  1
  O  O9  1  0.52565000  0.22434701  0.24996502  1
