# generated using pymatgen
data_Ce2Al3Si5
_symmetry_space_group_name_H-M   'P 1'
_cell_length_a   4.46923018
_cell_length_b   4.46923018
_cell_length_c   10.62646770
_cell_angle_alpha   90.00000000
_cell_angle_beta   90.00000000
_cell_angle_gamma   90.00000000
_symmetry_Int_Tables_number   1
_chemical_formula_structural   Ce2Al3Si5
_chemical_formula_sum   'Ce2 Al3 Si5'
_cell_volume   212.25326101
_cell_formula_units_Z   1
loop_
 _symmetry_equiv_pos_site_id
 _symmetry_equiv_pos_as_xyz
  1  'x, y, z'
loop_
 _atom_site_type_symbol
 _atom_site_label
 _atom_site_symmetry_multiplicity
 _atom_site_fract_x
 _atom_site_fract_y
 _atom_site_fract_z
 _atom_site_occupancy
  Ce  Ce0  1  0.00000000  0.00000000  0.99808303  1
  Ce  Ce1  1  0.49999998  0.49999998  0.49429401  1
  Al  Al2  1  -0.00000000  0.49999998  0.24985301  1
  Al  Al3  1  0.49999998  0.00000000  0.74973602  1
  Al  Al4  1  0.49999998  0.00000000  0.24985301  1
  Si  Si5  1  -0.00000000  0.49999998  0.74973602  1
  Si  Si6  1  0.00000000  0.00000000  0.61942602  1
  Si  Si7  1  0.00000000  0.00000000  0.38312101  1
  Si  Si8  1  0.49999998  0.49999998  0.88414202  1
  Si  Si9  1  0.49999998  0.49999998  0.12175700  1
