# generated using pymatgen
data_Ce4Al5Si9
_symmetry_space_group_name_H-M   'P 1'
_cell_length_a   5.99761820
_cell_length_b   7.86761379
_cell_length_c   7.94741249
_cell_angle_alpha   90.00000000
_cell_angle_beta   112.16848755
_cell_angle_gamma   90.00000000
_symmetry_Int_Tables_number   1
_chemical_formula_structural   Ce4Al5Si9
_chemical_formula_sum   'Ce4 Al5 Si9'
_cell_volume   347.29240863
_cell_formula_units_Z   1
loop_
 _symmetry_equiv_pos_site_id
 _symmetry_equiv_pos_as_xyz
  1  'x, y, z'
loop_
 _atom_site_type_symbol
 _atom_site_label
 _atom_site_symmetry_multiplicity
 _atom_site_fract_x
 _atom_site_fract_y
 _atom_site_fract_z
 _atom_site_occupancy
  Ce  Ce0  1  0.11376600  0.41789201  0.22753200  1
  Ce  Ce1  1  0.88623398  0.58210802  0.77246802  1
  Ce  Ce2  1  0.38623399  0.91789202  0.77246801  1
  Ce  Ce3  1  0.61376598  0.08210800  0.22753201  1
  Al  Al4  1  0.00000000  0.00000000  0.00000000  1
  Al  Al5  1  0.49999999  0.50000001  0.00000001  1
  Al  Al6  1  0.03266700  0.25000001  0.56533400  1
  Al  Al7  1  0.46733299  0.75000002  0.43466601  1
  Al  Al8  1  0.96733297  0.75000002  0.43466602  1
  Si  Si9  1  0.53266699  0.25000001  0.56533401  1
  Si  Si10  1  0.20436099  0.25000001  0.90872201  1
  Si  Si11  1  0.29563899  0.75000002  0.09127800  1
  Si  Si12  1  0.79563898  0.75000002  0.09127801  1
  Si  Si13  1  0.70436098  0.25000001  0.90872202  1
  Si  Si14  1  0.18449700  0.05155500  0.36899400  1
  Si  Si15  1  0.81550298  0.94844503  0.63100602  1
  Si  Si16  1  0.31550299  0.55155501  0.63100601  1
  Si  Si17  1  0.68449698  0.44844501  0.36899401  1
