# generated using pymatgen
data_Ce3SnPb4
_symmetry_space_group_name_H-M   'P 1'
_cell_length_a   6.08972979
_cell_length_b   6.08972979
_cell_length_c   6.08972979
_cell_angle_alpha   90.00000000
_cell_angle_beta   90.00000000
_cell_angle_gamma   90.00000000
_symmetry_Int_Tables_number   1
_chemical_formula_structural   Ce3SnPb4
_chemical_formula_sum   'Ce3 Sn1 Pb4'
_cell_volume   225.83646515
_cell_formula_units_Z   1
loop_
 _symmetry_equiv_pos_site_id
 _symmetry_equiv_pos_as_xyz
  1  'x, y, z'
loop_
 _atom_site_type_symbol
 _atom_site_label
 _atom_site_symmetry_multiplicity
 _atom_site_fract_x
 _atom_site_fract_y
 _atom_site_fract_z
 _atom_site_occupancy
  Ce  Ce0  1  0.00000000  0.50000002  0.75000003  1
  Ce  Ce1  1  0.50000002  0.25000001  -0.00000000  1
  Ce  Ce2  1  0.75000003  0.00000000  0.50000002  1
  Pb  Pb3  1  0.00000000  0.50000002  0.25000001  1
  Sn  Sn4  1  0.50000002  0.75000003  -0.00000000  1
  Pb  Pb5  1  0.25000001  0.00000000  0.50000002  1
  Pb  Pb6  1  0.50000002  0.50000002  0.50000002  1
  Pb  Pb7  1  0.00000000  0.00000000  0.00000000  1
