# generated using pymatgen
data_CsK(MnBr3)2
_symmetry_space_group_name_H-M   'P 1'
_cell_length_a   7.50042200
_cell_length_b   7.50042248
_cell_length_c   7.50042200
_cell_angle_alpha   60.00000000
_cell_angle_beta   60.00000000
_cell_angle_gamma   60.00000000
_symmetry_Int_Tables_number   1
_chemical_formula_structural   CsK(MnBr3)2
_chemical_formula_sum   'Cs1 K1 Mn2 Br6'
_cell_volume   298.36105006
_cell_formula_units_Z   1
loop_
 _symmetry_equiv_pos_site_id
 _symmetry_equiv_pos_as_xyz
  1  'x, y, z'
loop_
 _atom_site_type_symbol
 _atom_site_label
 _atom_site_symmetry_multiplicity
 _atom_site_fract_x
 _atom_site_fract_y
 _atom_site_fract_z
 _atom_site_occupancy
  Cs  Cs0  1  0.75000002  0.74999996  0.75000002  1
  K  K1  1  0.25000001  0.24999999  0.25000001  1
  Mn  Mn2  1  0.00000000  0.00000000  0.00000000  1
  Mn  Mn3  1  0.50000001  0.49999997  0.50000001  1
  Br  Br4  1  0.26155102  0.73844896  0.73844902  1
  Br  Br5  1  0.73844902  0.73844896  0.26155102  1
  Br  Br6  1  0.73844901  0.26155099  0.26155101  1
  Br  Br7  1  0.26155102  0.73844896  0.26155102  1
  Br  Br8  1  0.73844901  0.26155099  0.73844901  1
  Br  Br9  1  0.26155101  0.26155099  0.73844901  1
