# generated using pymatgen
data_Ce2Si
_symmetry_space_group_name_H-M   'P 1'
_cell_length_a   4.19165182
_cell_length_b   4.23244190
_cell_length_c   4.23244238
_cell_angle_alpha   60.00000381
_cell_angle_beta   90.00000000
_cell_angle_gamma   90.00000000
_symmetry_Int_Tables_number   1
_chemical_formula_structural   Ce2Si
_chemical_formula_sum   'Ce2 Si1'
_cell_volume   65.02762744
_cell_formula_units_Z   1
loop_
 _symmetry_equiv_pos_site_id
 _symmetry_equiv_pos_as_xyz
  1  'x, y, z'
loop_
 _atom_site_type_symbol
 _atom_site_label
 _atom_site_symmetry_multiplicity
 _atom_site_fract_x
 _atom_site_fract_y
 _atom_site_fract_z
 _atom_site_occupancy
  Ce  Ce0  1  1.00000004  0.33333334  0.33333334  1
  Si  Si1  1  0.50000002  0.00000000  0.00000000  1
  Ce  Ce2  1  0.50000002  0.66666669  0.66666669  1
