# generated using pymatgen
data_CeFe5
_symmetry_space_group_name_H-M   'P 1'
_cell_length_a   4.94785404
_cell_length_b   4.94785452
_cell_length_c   12.39730740
_cell_angle_alpha   78.48914337
_cell_angle_beta   78.48914337
_cell_angle_gamma   60.00000381
_symmetry_Int_Tables_number   1
_chemical_formula_structural   CeFe5
_chemical_formula_sum   'Ce3 Fe15'
_cell_volume   255.76723219
_cell_formula_units_Z   3
loop_
 _symmetry_equiv_pos_site_id
 _symmetry_equiv_pos_as_xyz
  1  'x, y, z'
loop_
 _atom_site_type_symbol
 _atom_site_label
 _atom_site_symmetry_multiplicity
 _atom_site_fract_x
 _atom_site_fract_y
 _atom_site_fract_z
 _atom_site_occupancy
  Ce  Ce0  1  0.05178400  0.05178400  0.84464900  1
  Ce  Ce1  1  0.94821600  0.94821603  0.15535098  1
  Ce  Ce2  1  0.14846100  0.14846100  0.55461700  1
  Fe  Fe3  1  0.85153900  0.85153902  0.44538299  1
  Fe  Fe4  1  0.50000000  0.50000001  0.49999999  1
  Fe  Fe5  1  0.27868100  0.27868101  0.16395800  1
  Fe  Fe6  1  0.72131900  0.72131902  0.83604199  1
  Fe  Fe7  1  0.38841000  0.38841001  0.83476899  1
  Fe  Fe8  1  0.61159000  0.61159002  0.16523099  1
  Fe  Fe9  1  0.50000000  1.00000003  -0.00000001  1
  Fe  Fe10  1  -0.00000000  0.50000001  1.00000000  1
  Fe  Fe11  1  0.50000000  0.50000001  0.99999999  1
  Fe  Fe12  1  0.60903300  0.60903302  0.67307399  1
  Fe  Fe13  1  0.60903300  0.10885900  0.67307399  1
  Fe  Fe14  1  0.10885900  0.60903302  0.67307400  1
  Fe  Fe15  1  0.39096700  0.39096701  0.32692599  1
  Fe  Fe16  1  0.39096700  0.89114102  0.32692599  1
  Fe  Fe17  1  0.89114100  0.39096701  0.32692599  1
