# generated using pymatgen
data_SrCaLaNd(NiO4)2
_symmetry_space_group_name_H-M   'P 1'
_cell_length_a   3.88272190
_cell_length_b   3.89738202
_cell_length_c   12.68725681
_cell_angle_alpha   90.00000000
_cell_angle_beta   90.00000000
_cell_angle_gamma   90.00000000
_symmetry_Int_Tables_number   1
_chemical_formula_structural   SrCaLaNd(NiO4)2
_chemical_formula_sum   'Sr1 Ca1 La1 Nd1 Ni2 O8'
_cell_volume   191.98928607
_cell_formula_units_Z   1
loop_
 _symmetry_equiv_pos_site_id
 _symmetry_equiv_pos_as_xyz
  1  'x, y, z'
loop_
 _atom_site_type_symbol
 _atom_site_label
 _atom_site_symmetry_multiplicity
 _atom_site_fract_x
 _atom_site_fract_y
 _atom_site_fract_z
 _atom_site_occupancy
  Sr  Sr0  1  0.50000001  0.49915400  0.80161301  1
  Ca  Ca1  1  0.50000001  0.49915400  0.19838700  1
  La  La2  1  0.50000001  0.50043000  0.50000001  1
  Nd  Nd3  1  -0.00000000  0.93809599  0.00000000  1
  Ni  Ni4  1  0.00000000  0.00030800  0.65510101  1
  Ni  Ni5  1  0.00000000  0.00030800  0.34489901  1
  O  O6  1  0.50000001  0.99823299  0.66160101  1
  O  O7  1  -0.00000000  0.50056300  0.66201001  1
  O  O8  1  0.50000001  0.99823299  0.33839900  1
  O  O9  1  -0.00000000  0.50056300  0.33799000  1
  O  O10  1  -0.00000000  0.00079500  0.50000001  1
  O  O11  1  -0.00000000  0.01895400  0.83325001  1
  O  O12  1  -0.00000000  0.01895400  0.16675000  1
  O  O13  1  0.50000001  0.60025600  0.00000000  1
