# generated using pymatgen
data_Nd3Ge5
_symmetry_space_group_name_H-M   'P 1'
_cell_length_a   4.26819611
_cell_length_b   5.65814304
_cell_length_c   14.15345478
_cell_angle_alpha   90.00000000
_cell_angle_beta   90.00000000
_cell_angle_gamma   112.15866852
_symmetry_Int_Tables_number   1
_chemical_formula_structural   Nd3Ge5
_chemical_formula_sum   'Nd6 Ge10'
_cell_volume   316.56198069
_cell_formula_units_Z   2
loop_
 _symmetry_equiv_pos_site_id
 _symmetry_equiv_pos_as_xyz
  1  'x, y, z'
loop_
 _atom_site_type_symbol
 _atom_site_label
 _atom_site_symmetry_multiplicity
 _atom_site_fract_x
 _atom_site_fract_y
 _atom_site_fract_z
 _atom_site_occupancy
  Nd  Nd0  1  0.58702397  0.17404800  0.61100001  1
  Nd  Nd1  1  0.41297591  0.82595199  0.38900001  1
  Nd  Nd2  1  0.13443897  0.26887800  0.25000000  1
  Nd  Nd3  1  0.86556091  0.73112199  0.75000001  1
  Nd  Nd4  1  0.58702397  0.17404800  0.88900001  1
  Nd  Nd5  1  0.41297591  0.82595199  0.11100000  1
  Ge  Ge6  1  0.16143997  0.32288000  0.75000001  1
  Ge  Ge7  1  0.83855992  0.67711999  0.25000000  1
  Ge  Ge8  1  0.10571098  0.21142200  0.46098101  1
  Ge  Ge9  1  0.89428890  0.78857799  0.53901901  1
  Ge  Ge10  1  0.89428890  0.78857799  0.96098101  1
  Ge  Ge11  1  0.10571098  0.21142200  0.03901900  1
  Ge  Ge12  1  0.70474694  0.40949400  0.40546001  1
  Ge  Ge13  1  0.29525294  0.59050600  0.59454001  1
  Ge  Ge14  1  0.29525294  0.59050600  0.90546001  1
  Ge  Ge15  1  0.70474694  0.40949400  0.09454000  1
