# generated using pymatgen
data_Y3Mn(SiP7)2
_symmetry_space_group_name_H-M   'P 1'
_cell_length_a   5.48079634
_cell_length_b   7.83331680
_cell_length_c   7.83331680
_cell_angle_alpha   93.37413788
_cell_angle_beta   109.16766357
_cell_angle_gamma   109.16766357
_symmetry_Int_Tables_number   1
_chemical_formula_structural   Y3Mn(SiP7)2
_chemical_formula_sum   'Y3 Mn1 Si2 P14'
_cell_volume   294.77023241
_cell_formula_units_Z   1
loop_
 _symmetry_equiv_pos_site_id
 _symmetry_equiv_pos_as_xyz
  1  'x, y, z'
loop_
 _atom_site_type_symbol
 _atom_site_label
 _atom_site_symmetry_multiplicity
 _atom_site_fract_x
 _atom_site_fract_y
 _atom_site_fract_z
 _atom_site_occupancy
  Y  Y0  1  0.23625396  0.59784700  0.86924700  1
  Y  Y1  1  0.26374599  0.13075300  0.40215300  1
  Y  Y2  1  0.76374598  0.40215300  0.13075298  1
  Mn  Mn3  1  0.73625395  0.86924699  0.59784698  1
  Si  Si4  1  0.87398799  0.26220900  0.53851098  1
  Si  Si5  1  0.75000001  0.00350100  0.99649899  1
  P  P6  1  0.37398797  0.53851100  0.26220899  1
  P  P7  1  0.12601195  0.73779099  0.46148899  1
  P  P8  1  0.62601198  0.46148900  0.73779099  1
  P  P9  1  0.24999993  0.99649899  0.00350098  1
  P  P10  1  0.24999999  0.22968700  0.77031300  1
  P  P11  1  0.74999995  0.77031299  0.22968697  1
  P  P12  1  0.24999997  0.48890000  0.51109999  1
  P  P13  1  0.74999997  0.51110000  0.48889998  1
  P  P14  1  0.24999995  0.78522499  0.21477499  1
  P  P15  1  0.75000000  0.21477500  0.78522498  1
  P  P16  1  0.16464398  0.26226400  0.06303399  1
  P  P17  1  0.66464400  0.06303400  0.26226398  1
  P  P18  1  0.83535596  0.73773599  0.93696598  1
  P  P19  1  0.33535594  0.93696599  0.73773599  1
