# generated using pymatgen
data_CsTl6VSO6
_symmetry_space_group_name_H-M   'P 1'
_cell_length_a   3.41124201
_cell_length_b   9.84510422
_cell_length_c   9.84829903
_cell_angle_alpha   60.01814270
_cell_angle_beta   89.99638367
_cell_angle_gamma   89.99581146
_symmetry_Int_Tables_number   1
_chemical_formula_structural   CsTl6VSO6
_chemical_formula_sum   'Cs1 Tl6 V1 S1 O6'
_cell_volume   286.48644207
_cell_formula_units_Z   1
loop_
 _symmetry_equiv_pos_site_id
 _symmetry_equiv_pos_as_xyz
  1  'x, y, z'
loop_
 _atom_site_type_symbol
 _atom_site_label
 _atom_site_symmetry_multiplicity
 _atom_site_fract_x
 _atom_site_fract_y
 _atom_site_fract_z
 _atom_site_occupancy
  Cs  Cs0  1  0.50000000  0.00000000  0.00000001  1
  Tl  Tl1  1  0.25131100  0.11051900  0.51407402  1
  Tl  Tl2  1  0.25135998  0.51402200  0.37555700  1
  Tl  Tl3  1  0.25127099  0.37530400  0.11056299  1
  Tl  Tl4  1  0.74868897  0.88948100  0.48592600  1
  Tl  Tl5  1  0.74863998  0.48597800  0.62444302  1
  Tl  Tl6  1  0.74872898  0.62469600  0.88943702  1
  V  V7  1  0.24901998  0.66685100  0.66648234  1
  S  S8  1  0.75097999  0.33314900  0.33351768  1
  O  O9  1  0.24640699  0.29189300  0.64772102  1
  O  O10  1  0.24641598  0.64778700  0.06010998  1
  O  O11  1  0.24642200  0.06011100  0.29205501  1
  O  O12  1  0.75359297  0.70810700  0.35227900  1
  O  O13  1  0.75358399  0.35221300  0.93989004  1
  O  O14  1  0.75357797  0.93988900  0.70794501  1
