# generated using pymatgen
data_Hf4Ni9
_symmetry_space_group_name_H-M   'P 1'
_cell_length_a   5.04355001
_cell_length_b   6.81407356
_cell_length_c   6.81407356
_cell_angle_alpha   82.12792969
_cell_angle_beta   68.27924347
_cell_angle_gamma   68.27924347
_symmetry_Int_Tables_number   1
_chemical_formula_structural   Hf4Ni9
_chemical_formula_sum   'Hf4 Ni9'
_cell_volume   202.10639304
_cell_formula_units_Z   1
loop_
 _symmetry_equiv_pos_site_id
 _symmetry_equiv_pos_as_xyz
  1  'x, y, z'
loop_
 _atom_site_type_symbol
 _atom_site_label
 _atom_site_symmetry_multiplicity
 _atom_site_fract_x
 _atom_site_fract_y
 _atom_site_fract_z
 _atom_site_occupancy
  Hf  Hf0  1  0.00000000  0.00000000  0.00000000  1
  Hf  Hf1  1  0.27741300  0.22258700  0.22258699  1
  Hf  Hf2  1  0.50000000  0.22258700  0.77741299  1
  Hf  Hf3  1  0.50000000  0.77741300  0.22258698  1
  Ni  Ni4  1  0.72258700  0.77741300  0.77741298  1
  Ni  Ni5  1  0.33820200  0.66179800  0.66179798  1
  Ni  Ni6  1  0.66179800  0.33820200  0.33820199  1
  Ni  Ni7  1  0.00000000  0.33820200  0.66179799  1
  Ni  Ni8  1  0.00000000  0.66179800  0.33820198  1
  Ni  Ni9  1  0.50000000  0.50000000  -0.00000001  1
  Ni  Ni10  1  0.00000000  0.00000000  0.50000000  1
  Ni  Ni11  1  0.50000000  0.00000000  0.50000000  1
  Ni  Ni12  1  0.00000000  0.50000000  0.99999999  1
