# generated using pymatgen
data_AsPO8
_symmetry_space_group_name_H-M   'P 1'
_cell_length_a   4.60804510
_cell_length_b   5.23609257
_cell_length_c   5.23609257
_cell_angle_alpha   79.47959900
_cell_angle_beta   81.79712677
_cell_angle_gamma   98.20287323
_symmetry_Int_Tables_number   1
_chemical_formula_structural   AsPO8
_chemical_formula_sum   'As1 P1 O8'
_cell_volume   121.08052947
_cell_formula_units_Z   1
loop_
 _symmetry_equiv_pos_site_id
 _symmetry_equiv_pos_as_xyz
  1  'x, y, z'
loop_
 _atom_site_type_symbol
 _atom_site_label
 _atom_site_symmetry_multiplicity
 _atom_site_fract_x
 _atom_site_fract_y
 _atom_site_fract_z
 _atom_site_occupancy
  P  P0  1  0.00000003  0.88951000  0.88950999  1
  As  As1  1  0.58849701  0.33728900  0.73264298  1
  O  O2  1  0.41150302  0.73264300  0.33728899  1
  O  O3  1  0.50000002  0.45310500  0.45310499  1
  O  O4  1  0.19694602  0.67034900  0.15020300  1
  O  O5  1  0.26568703  0.84124400  0.56581899  1
  O  O6  1  0.80305400  0.15020300  0.67034898  1
  O  O7  1  0.73431302  0.56581900  0.84124398  1
  O  O8  1  0.29756201  0.19764900  0.91545399  1
  O  O9  1  0.70243803  0.91545400  0.19764898  1
