# generated using pymatgen
data_Tl4SnGe7
_symmetry_space_group_name_H-M   'P 1'
_cell_length_a   4.43030930
_cell_length_b   4.43030930
_cell_length_c   18.10271835
_cell_angle_alpha   90.00000000
_cell_angle_beta   90.00000000
_cell_angle_gamma   90.67053986
_symmetry_Int_Tables_number   1
_chemical_formula_structural   Tl4SnGe7
_chemical_formula_sum   'Tl4 Sn1 Ge7'
_cell_volume   355.28931493
_cell_formula_units_Z   1
loop_
 _symmetry_equiv_pos_site_id
 _symmetry_equiv_pos_as_xyz
  1  'x, y, z'
loop_
 _atom_site_type_symbol
 _atom_site_label
 _atom_site_symmetry_multiplicity
 _atom_site_fract_x
 _atom_site_fract_y
 _atom_site_fract_z
 _atom_site_occupancy
  Tl  Tl0  1  0.36369401  0.36369399  0.11086100  1
  Tl  Tl1  1  0.63630602  0.63630598  0.88913898  1
  Tl  Tl2  1  0.13630600  0.13630600  0.61086099  1
  Tl  Tl3  1  0.86369402  0.86369397  0.38913899  1
  Ge  Ge4  1  0.36700901  0.36700899  0.43616299  1
  Sn  Sn5  1  0.63299102  0.63299098  0.56383699  1
  Ge  Ge6  1  0.13299100  0.13299100  0.93616298  1
  Ge  Ge7  1  0.86700902  0.86700897  0.06383700  1
  Ge  Ge8  1  0.87368299  0.37368299  0.25000000  1
  Ge  Ge9  1  0.62631699  0.12631700  0.74999999  1
  Ge  Ge10  1  0.12631704  0.62631698  0.74999999  1
  Ge  Ge11  1  0.37368304  0.87368297  0.25000000  1
