# generated using pymatgen
data_Nb2V4MoS7
_symmetry_space_group_name_H-M   'P 1'
_cell_length_a   3.25618911
_cell_length_b   9.08517361
_cell_length_c   9.08517361
_cell_angle_alpha   120.00000000
_cell_angle_beta   90.00000000
_cell_angle_gamma   90.00000000
_symmetry_Int_Tables_number   1
_chemical_formula_structural   Nb2V4MoS7
_chemical_formula_sum   'Nb2 V4 Mo1 S7'
_cell_volume   232.75912295
_cell_formula_units_Z   1
loop_
 _symmetry_equiv_pos_site_id
 _symmetry_equiv_pos_as_xyz
  1  'x, y, z'
loop_
 _atom_site_type_symbol
 _atom_site_label
 _atom_site_symmetry_multiplicity
 _atom_site_fract_x
 _atom_site_fract_y
 _atom_site_fract_z
 _atom_site_occupancy
  Nb  Nb0  1  0.24999999  0.48926601  0.36998498  1
  Nb  Nb1  1  0.74999998  0.36998401  0.88071799  1
  V  V2  1  0.74999998  0.11928100  0.48926499  1
  V  V3  1  0.24999999  0.88071902  0.51073497  1
  V  V4  1  0.24999999  0.63001602  0.11928198  1
  V  V5  1  0.74999998  0.51073401  0.63001498  1
  S  S6  1  0.24999999  0.33333334  0.66666665  1
  Mo  Mo7  1  0.74999998  0.66666669  0.33333331  1
  S  S8  1  0.24999999  0.34653101  0.05138999  1
  S  S9  1  0.74999998  0.05139000  0.70485900  1
  S  S10  1  0.74999998  0.29514101  0.34653099  1
  S  S11  1  0.24999999  0.70485902  0.65346898  1
  S  S12  1  0.74999998  0.65346902  0.94860998  1
  S  S13  1  0.24999999  0.94861003  0.29514097  1
