# generated using pymatgen
data_ZrTiTe2SeO5
_symmetry_space_group_name_H-M   'P 1'
_cell_length_a   6.04725409
_cell_length_b   6.04725361
_cell_length_c   12.25524902
_cell_angle_alpha   90.00000000
_cell_angle_beta   90.00000000
_cell_angle_gamma   120.00000000
_symmetry_Int_Tables_number   1
_chemical_formula_structural   ZrTiTe2SeO5
_chemical_formula_sum   'Zr2 Ti2 Te4 Se2 O10'
_cell_volume   388.12281365
_cell_formula_units_Z   2
loop_
 _symmetry_equiv_pos_site_id
 _symmetry_equiv_pos_as_xyz
  1  'x, y, z'
loop_
 _atom_site_type_symbol
 _atom_site_label
 _atom_site_symmetry_multiplicity
 _atom_site_fract_x
 _atom_site_fract_y
 _atom_site_fract_z
 _atom_site_occupancy
  Ti  Ti0  1  0.66666664  0.33333332  0.75000000  1
  Ti  Ti1  1  0.33333329  0.66666663  0.25000000  1
  Zr  Zr2  1  0.66666664  0.33333332  0.00225300  1
  Zr  Zr3  1  0.33333329  0.66666663  0.99774700  1
  Te  Te4  1  0.33333329  0.66666663  0.50225300  1
  Te  Te5  1  0.66666664  0.33333332  0.49774700  1
  Te  Te6  1  0.00000000  0.00000000  0.50000000  1
  Te  Te7  1  0.00000000  0.00000000  0.00000000  1
  O  O8  1  0.66759699  0.00246300  0.63712300  1
  O  O9  1  0.33486598  0.33240298  0.63712300  1
  O  O10  1  0.99753695  0.66513397  0.63712300  1
  Se  Se11  1  0.66513393  0.99753695  0.36287700  1
  Se  Se12  1  0.00246296  0.66759697  0.36287700  1
  O  O13  1  0.33240298  0.33486598  0.36287700  1
  O  O14  1  0.33240294  0.99753695  0.13712300  1
  O  O15  1  0.66513395  0.66759697  0.13712300  1
  O  O16  1  0.00246298  0.33486598  0.13712300  1
  O  O17  1  0.33486600  0.00246300  0.86287700  1
  O  O18  1  0.99753697  0.33240298  0.86287700  1
  O  O19  1  0.66759695  0.66513397  0.86287700  1
