# generated using pymatgen
data_H2
_symmetry_space_group_name_H-M   'P 1'
_cell_length_a   3.91735196
_cell_length_b   3.91735172
_cell_length_c   8.36116600
_cell_angle_alpha   90.00000000
_cell_angle_beta   90.00000000
_cell_angle_gamma   120.00000000
_symmetry_Int_Tables_number   1
_chemical_formula_structural   H2
_chemical_formula_sum   H7
_cell_volume   111.11754499
_cell_formula_units_Z   3
loop_
 _symmetry_equiv_pos_site_id
 _symmetry_equiv_pos_as_xyz
  1  'x, y, z'
loop_
 _atom_site_type_symbol
 _atom_site_label
 _atom_site_symmetry_multiplicity
 _atom_site_fract_x
 _atom_site_fract_y
 _atom_site_fract_z
 _atom_site_occupancy
  H  H0  1  0.66666666  0.33333332  0.67800900  1
  H  H1  1  0.33333330  0.66666665  0.32199100  1
  H  H2  1  0.00000000  0.00000000  0.00000000  1
  H  H3  1  0.00000000  0.00000000  0.85203400  1
  H  H4  1  0.00000000  0.00000000  0.14796600  1
  H  H5  1  0.66666666  0.33333332  0.39515600  1
  H  H6  1  0.33333330  0.66666665  0.60484400  1
