# generated using pymatgen
data_Ca7MgPd4
_symmetry_space_group_name_H-M   'P 1'
_cell_length_a   4.56854582
_cell_length_b   7.66153622
_cell_length_c   8.62549210
_cell_angle_alpha   90.00000000
_cell_angle_beta   90.00000000
_cell_angle_gamma   90.00000000
_symmetry_Int_Tables_number   1
_chemical_formula_structural   Ca7MgPd4
_chemical_formula_sum   'Ca7 Mg1 Pd4'
_cell_volume   301.91015787
_cell_formula_units_Z   1
loop_
 _symmetry_equiv_pos_site_id
 _symmetry_equiv_pos_as_xyz
  1  'x, y, z'
loop_
 _atom_site_type_symbol
 _atom_site_label
 _atom_site_symmetry_multiplicity
 _atom_site_fract_x
 _atom_site_fract_y
 _atom_site_fract_z
 _atom_site_occupancy
  Ca  Ca0  1  0.75000003  0.96965197  0.67862799  1
  Ca  Ca1  1  0.25000001  0.03034800  0.32137200  1
  Ca  Ca2  1  0.75000003  0.46965199  0.82137199  1
  Ca  Ca3  1  0.25000001  0.53034798  0.17862800  1
  Ca  Ca4  1  0.75000003  0.35258599  0.43529100  1
  Ca  Ca5  1  0.25000001  0.14741400  0.93529099  1
  Ca  Ca6  1  0.25000001  0.64741398  0.56470899  1
  Mg  Mg7  1  0.75000003  0.85258598  0.06470900  1
  Pd  Pd8  1  0.25000001  0.77769398  0.87946499  1
  Pd  Pd9  1  0.25000001  0.27769399  0.62053499  1
  Pd  Pd10  1  0.75000003  0.72230598  0.37946500  1
  Pd  Pd11  1  0.75000003  0.22230599  0.12053500  1
