# generated using pymatgen
data_Nd2Ni7
_symmetry_space_group_name_H-M   'P 1'
_cell_length_a   6.74959183
_cell_length_b   6.93224907
_cell_length_c   6.87071466
_cell_angle_alpha   90.00000000
_cell_angle_beta   71.02795410
_cell_angle_gamma   90.00000000
_symmetry_Int_Tables_number   1
_chemical_formula_structural   Nd2Ni7
_chemical_formula_sum   'Nd4 Ni14'
_cell_volume   304.01607515
_cell_formula_units_Z   2
loop_
 _symmetry_equiv_pos_site_id
 _symmetry_equiv_pos_as_xyz
  1  'x, y, z'
loop_
 _atom_site_type_symbol
 _atom_site_label
 _atom_site_symmetry_multiplicity
 _atom_site_fract_x
 _atom_site_fract_y
 _atom_site_fract_z
 _atom_site_occupancy
  Nd  Nd0  1  0.56111502  0.33062900  0.80921699  1
  Nd  Nd1  1  0.93888503  0.83062899  0.19078298  1
  Nd  Nd2  1  0.43888501  0.66937099  0.19078299  1
  Nd  Nd3  1  0.06111500  0.16937100  0.80921700  1
  Ni  Ni4  1  0.86803003  0.54396299  0.90973999  1
  Ni  Ni5  1  0.63197002  0.04396300  0.09025999  1
  Ni  Ni6  1  0.13197000  0.45603700  0.09026000  1
  Ni  Ni7  1  0.36803001  0.95603699  0.90974000  1
  Ni  Ni8  1  0.87121503  0.13173700  0.49567599  1
  Ni  Ni9  1  0.62878502  0.63173699  0.50432399  1
  Ni  Ni10  1  0.12878500  0.86826299  0.50432400  1
  Ni  Ni11  1  0.37121501  0.36826300  0.49567600  1
  Ni  Ni12  1  0.00000000  0.50000000  0.50000000  1
  Ni  Ni13  1  0.50000002  0.00000000  0.49999999  1
  Ni  Ni14  1  0.74944502  0.83728799  0.75145499  1
  Ni  Ni15  1  0.75055502  0.33728800  0.24854499  1
  Ni  Ni16  1  0.25055501  0.16271200  0.24854500  1
  Ni  Ni17  1  0.24944501  0.66271199  0.75145500  1
