# generated using pymatgen
data_K3Li4Ga7
_symmetry_space_group_name_H-M   'P 1'
_cell_length_a   6.53895521
_cell_length_b   7.74718332
_cell_length_c   8.55255890
_cell_angle_alpha   90.00000000
_cell_angle_beta   90.00000000
_cell_angle_gamma   89.77240753
_symmetry_Int_Tables_number   1
_chemical_formula_structural   K3Li4Ga7
_chemical_formula_sum   'K3 Li4 Ga7'
_cell_volume   433.25625655
_cell_formula_units_Z   1
loop_
 _symmetry_equiv_pos_site_id
 _symmetry_equiv_pos_as_xyz
  1  'x, y, z'
loop_
 _atom_site_type_symbol
 _atom_site_label
 _atom_site_symmetry_multiplicity
 _atom_site_fract_x
 _atom_site_fract_y
 _atom_site_fract_z
 _atom_site_occupancy
  Li  Li0  1  0.49921500  0.22758899  0.05631800  1
  K  K1  1  0.00472005  0.76298498  0.94096601  1
  K  K2  1  0.99527998  0.23701499  0.44096601  1
  K  K3  1  0.50078503  0.77241098  0.55631801  1
  Li  Li4  1  0.68295802  0.58640898  0.20314900  1
  Li  Li5  1  0.31704202  0.41359099  0.70314901  1
  Ga  Ga6  1  0.50982301  0.38388999  0.41052300  1
  Li  Li7  1  0.01957104  0.61585098  0.59355401  1
  Ga  Ga8  1  0.98042899  0.38414899  0.09355400  1
  Ga  Ga9  1  0.49017702  0.61610998  0.91052301  1
  Ga  Ga10  1  0.74866404  0.91378098  0.24856600  1
  Ga  Ga11  1  0.25133600  0.08621900  0.74856601  1
  Ga  Ga12  1  0.75284498  0.07624600  0.74892401  1
  Ga  Ga13  1  0.24715505  0.92375398  0.24892400  1
