# generated using pymatgen
data_U10Ge6Ru
_symmetry_space_group_name_H-M   'P 1'
_cell_length_a   6.42889023
_cell_length_b   8.52864170
_cell_length_c   8.52864170
_cell_angle_alpha   120.00000000
_cell_angle_beta   90.00000000
_cell_angle_gamma   90.00000000
_symmetry_Int_Tables_number   1
_chemical_formula_structural   U10Ge6Ru
_chemical_formula_sum   'U10 Ge6 Ru1'
_cell_volume   404.97329076
_cell_formula_units_Z   1
loop_
 _symmetry_equiv_pos_site_id
 _symmetry_equiv_pos_as_xyz
  1  'x, y, z'
loop_
 _atom_site_type_symbol
 _atom_site_label
 _atom_site_symmetry_multiplicity
 _atom_site_fract_x
 _atom_site_fract_y
 _atom_site_fract_z
 _atom_site_occupancy
  U  U0  1  0.49999998  0.66666668  0.33333330  1
  U  U1  1  0.49999998  0.33333334  0.66666663  1
  U  U2  1  0.99999996  0.33333334  0.66666663  1
  U  U3  1  -0.00000000  0.66666668  0.33333330  1
  U  U4  1  0.73408297  1.00000001  0.75681294  1
  U  U5  1  0.73408297  0.75681301  0.99999994  1
  U  U6  1  0.73408297  0.24318700  0.24318698  1
  U  U7  1  0.26591699  1.00000001  0.24318695  1
  U  U8  1  0.26591699  0.24318700  -0.00000001  1
  U  U9  1  0.26591699  0.75681301  0.75681295  1
  Ge  Ge10  1  0.74893697  0.00000000  0.39679399  1
  Ru  Ru11  1  0.74893697  0.39679401  0.99999995  1
  Ge  Ge12  1  0.74893697  0.60320601  0.60320596  1
  Ge  Ge13  1  0.25106299  0.00000000  0.60320598  1
  Ge  Ge14  1  0.25106299  0.60320601  -0.00000003  1
  Ge  Ge15  1  0.25106299  0.39679401  0.39679397  1
  Ge  Ge16  1  0.49999998  0.00000000  -0.00000000  1
