# generated using pymatgen
data_Ba4Nd2NiSbO10
_symmetry_space_group_name_H-M   'P 1'
_cell_length_a   5.83121681
_cell_length_b   9.32553196
_cell_length_c   9.32553196
_cell_angle_alpha   73.84685516
_cell_angle_beta   71.78111267
_cell_angle_gamma   71.78111267
_symmetry_Int_Tables_number   1
_chemical_formula_structural   Ba4Nd2NiSbO10
_chemical_formula_sum   'Ba4 Nd2 Ni1 Sb1 O10'
_cell_volume   448.30009659
_cell_formula_units_Z   1
loop_
 _symmetry_equiv_pos_site_id
 _symmetry_equiv_pos_as_xyz
  1  'x, y, z'
loop_
 _atom_site_type_symbol
 _atom_site_label
 _atom_site_symmetry_multiplicity
 _atom_site_fract_x
 _atom_site_fract_y
 _atom_site_fract_z
 _atom_site_occupancy
  Ba  Ba0  1  0.73505301  0.37856401  0.62143597  1
  Ba  Ba1  1  0.26494697  0.62143602  0.37856398  1
  Ba  Ba2  1  0.76494698  0.87856403  0.12143595  1
  Ba  Ba3  1  0.23505300  0.12143600  0.87856400  1
  Nd  Nd4  1  0.74999999  0.75000002  0.74999997  1
  Nd  Nd5  1  0.25000000  0.25000001  0.24999999  1
  Sb  Sb6  1  0.24999998  0.52675002  0.97324999  1
  Ni  Ni7  1  0.24999995  0.97325003  0.52674998  1
  O  O8  1  0.75000001  0.47325002  0.02674996  1
  O  O9  1  0.75000004  0.02675000  0.47324998  1
  O  O10  1  0.56831401  0.28524501  0.01941297  1
  O  O11  1  0.12702801  0.01941300  0.28524500  1
  O  O12  1  0.93168602  0.48058702  0.21475496  1
  O  O13  1  0.37297201  0.21475501  0.48058699  1
  O  O14  1  0.43168598  0.71475502  0.98058698  1
  O  O15  1  0.87297198  0.98058703  0.71475496  1
  O  O16  1  0.06831397  0.51941302  0.78524500  1
  O  O17  1  0.62702798  0.78524502  0.51941297  1
