# generated using pymatgen
data_Ce3AlPd6
_symmetry_space_group_name_H-M   'P 1'
_cell_length_a   4.29308987
_cell_length_b   5.67161131
_cell_length_c   9.40905571
_cell_angle_alpha   81.75644684
_cell_angle_beta   76.81263733
_cell_angle_gamma   67.76094055
_symmetry_Int_Tables_number   1
_chemical_formula_structural   Ce3AlPd6
_chemical_formula_sum   'Ce3 Al1 Pd6'
_cell_volume   206.05058395
_cell_formula_units_Z   1
loop_
 _symmetry_equiv_pos_site_id
 _symmetry_equiv_pos_as_xyz
  1  'x, y, z'
loop_
 _atom_site_type_symbol
 _atom_site_label
 _atom_site_symmetry_multiplicity
 _atom_site_fract_x
 _atom_site_fract_y
 _atom_site_fract_z
 _atom_site_occupancy
  Ce  Ce0  1  0.81252601  0.25902200  0.11592598  1
  Ce  Ce1  1  0.18747393  0.74097800  0.88407400  1
  Ce  Ce2  1  0.99241997  0.68501500  0.33014499  1
  Al  Al3  1  0.00757997  0.31498500  0.66985499  1
  Pd  Pd4  1  0.52189094  0.83999300  0.11622501  1
  Pd  Pd5  1  0.47810900  0.16000700  0.88377497  1
  Pd  Pd6  1  0.64335900  0.27129100  0.44199098  1
  Pd  Pd7  1  0.35664094  0.72870900  0.55800900  1
  Pd  Pd8  1  0.27354000  0.11013800  0.34278199  1
  Pd  Pd9  1  0.72645994  0.88986200  0.65721799  1
