# generated using pymatgen
data_Li3MnO5
_symmetry_space_group_name_H-M   'P 1'
_cell_length_a   5.44909477
_cell_length_b   5.46224976
_cell_length_c   7.10944605
_cell_angle_alpha   72.60025787
_cell_angle_beta   72.61389923
_cell_angle_gamma   72.17775726
_symmetry_Int_Tables_number   1
_chemical_formula_structural   Li3MnO5
_chemical_formula_sum   'Li6 Mn2 O10'
_cell_volume   187.16363145
_cell_formula_units_Z   2
loop_
 _symmetry_equiv_pos_site_id
 _symmetry_equiv_pos_as_xyz
  1  'x, y, z'
loop_
 _atom_site_type_symbol
 _atom_site_label
 _atom_site_symmetry_multiplicity
 _atom_site_fract_x
 _atom_site_fract_y
 _atom_site_fract_z
 _atom_site_occupancy
  Li  Li0  1  0.65257701  0.66732602  0.84256301  1
  Li  Li1  1  0.35953501  0.31563901  0.66807401  1
  Li  Li2  1  0.65106801  0.65846302  0.33311802  1
  Li  Li3  1  0.33168201  0.33151101  0.16193701  1
  Li  Li4  1  0.00771600  0.02263400  0.50208600  1
  Li  Li5  1  0.99815002  0.00548400  0.99148005  1
  Mn  Mn6  1  0.35696300  0.97535403  0.33145799  1
  O  O7  1  0.56695501  0.56237602  0.62926201  1
  Mn  Mn8  1  0.23316900  0.23458801  0.95751600  1
  O  O9  1  0.11186700  0.10848000  0.70000900  1
  O  O10  1  0.76469401  0.76565402  0.03928802  1
  O  O11  1  0.42793001  0.43303301  0.37389001  1
  O  O12  1  0.96947002  0.36614401  0.32817104  1
  O  O13  1  0.64863201  0.02329800  0.66517603  1
  O  O14  1  0.30122500  0.69411502  0.00302000  1
  O  O15  1  0.69041901  0.30774701  0.00140703  1
  O  O16  1  0.03539100  0.63514202  0.66691298  1
  O  O17  1  0.89255601  0.89301302  0.30463402  1
