# generated using pymatgen
data_BaCe7(Bi3Pb)3
_symmetry_space_group_name_H-M   'P 1'
_cell_length_a   6.57377100
_cell_length_b   8.70493126
_cell_length_c   11.40803051
_cell_angle_alpha   107.32630920
_cell_angle_beta   96.76306915
_cell_angle_gamma   100.12763977
_symmetry_Int_Tables_number   1
_chemical_formula_structural   BaCe7(Bi3Pb)3
_chemical_formula_sum   'Ba1 Ce7 Bi9 Pb3'
_cell_volume   603.34600691
_cell_formula_units_Z   1
loop_
 _symmetry_equiv_pos_site_id
 _symmetry_equiv_pos_as_xyz
  1  'x, y, z'
loop_
 _atom_site_type_symbol
 _atom_site_label
 _atom_site_symmetry_multiplicity
 _atom_site_fract_x
 _atom_site_fract_y
 _atom_site_fract_z
 _atom_site_occupancy
  Ba  Ba0  1  0.33182000  0.03215600  0.74458100  1
  Ce  Ce1  1  0.66818004  0.96784401  0.25541904  1
  Ce  Ce2  1  0.95763500  0.25164800  0.05578898  1
  Ce  Ce3  1  0.04236503  0.74835201  0.94421105  1
  Ce  Ce4  1  0.55750601  0.43055200  0.33623001  1
  Ce  Ce5  1  0.44249402  0.56944801  0.66377003  1
  Ce  Ce6  1  0.12542803  0.75393301  0.38374204  1
  Ce  Ce7  1  0.87457200  0.24606700  0.61625799  1
  Bi  Bi8  1  0.04984101  0.35233300  0.37855102  1
  Bi  Bi9  1  0.95015902  0.64766701  0.62144901  1
  Bi  Bi10  1  0.35500900  0.16570300  0.49740300  1
  Bi  Bi11  1  0.64499103  0.83429701  0.50259703  1
  Bi  Bi12  1  0.43668200  0.16831100  0.05075900  1
  Bi  Bi13  1  0.56331803  0.83168901  0.94924104  1
  Pb  Pb14  1  0.32445502  0.60146401  0.13801402  1
  Bi  Bi15  1  0.67554501  0.39853600  0.86198601  1
  Bi  Bi16  1  0.22335002  0.40619800  0.86535003  1
  Pb  Pb17  1  0.77665002  0.59380201  0.13465001  1
  Pb  Pb18  1  0.17822800  0.03877700  0.22384800  1
  Bi  Bi19  1  0.82177203  0.96122301  0.77615204  1
