# generated using pymatgen
data_CaBO3
_symmetry_space_group_name_H-M   'P 1'
_cell_length_a   6.40036058
_cell_length_b   6.40036058
_cell_length_c   7.04820299
_cell_angle_alpha   103.36639404
_cell_angle_beta   103.36639404
_cell_angle_gamma   97.03227234
_symmetry_Int_Tables_number   1
_chemical_formula_structural   CaBO3
_chemical_formula_sum   'Ca4 B4 O12'
_cell_volume   268.53770118
_cell_formula_units_Z   4
loop_
 _symmetry_equiv_pos_site_id
 _symmetry_equiv_pos_as_xyz
  1  'x, y, z'
loop_
 _atom_site_type_symbol
 _atom_site_label
 _atom_site_symmetry_multiplicity
 _atom_site_fract_x
 _atom_site_fract_y
 _atom_site_fract_z
 _atom_site_occupancy
  Ca  Ca0  1  0.11836396  0.88163600  0.24999999  1
  Ca  Ca1  1  0.88163600  0.11836400  0.75000000  1
  Ca  Ca2  1  0.59210099  0.40789900  0.24999999  1
  Ca  Ca3  1  0.40789898  0.59210100  0.75000000  1
  B  B4  1  0.39747000  0.14383000  0.75187300  1
  B  B5  1  0.85616998  0.60253000  0.74812699  1
  B  B6  1  0.60252997  0.85617000  0.24812698  1
  B  B7  1  0.14382998  0.39747000  0.25187300  1
  O  O8  1  0.94291399  0.40797600  0.23492599  1
  O  O9  1  0.59202400  0.05708600  0.26507400  1
  O  O10  1  0.05708597  0.59202400  0.76507400  1
  O  O11  1  0.40797596  0.94291400  0.73492599  1
  O  O12  1  0.20858299  0.25855100  0.12303000  1
  O  O13  1  0.74144897  0.79141700  0.37696999  1
  O  O14  1  0.79141697  0.74144900  0.87696999  1
  O  O15  1  0.25855099  0.20858300  0.62303000  1
  O  O16  1  0.30039098  0.53522500  0.39987799  1
  O  O17  1  0.46477497  0.69960900  0.10012199  1
  O  O18  1  0.69960898  0.46477500  0.60012200  1
  O  O19  1  0.53522499  0.30039100  0.89987800  1
