# generated using pymatgen
data_NbFe4Mo3
_symmetry_space_group_name_H-M   'P 1'
_cell_length_a   4.25966692
_cell_length_b   4.58367395
_cell_length_c   5.11192179
_cell_angle_alpha   90.00000000
_cell_angle_beta   90.00000000
_cell_angle_gamma   90.00000000
_symmetry_Int_Tables_number   1
_chemical_formula_structural   NbFe4Mo3
_chemical_formula_sum   'Nb1 Fe4 Mo3'
_cell_volume   99.80988599
_cell_formula_units_Z   1
loop_
 _symmetry_equiv_pos_site_id
 _symmetry_equiv_pos_as_xyz
  1  'x, y, z'
loop_
 _atom_site_type_symbol
 _atom_site_label
 _atom_site_symmetry_multiplicity
 _atom_site_fract_x
 _atom_site_fract_y
 _atom_site_fract_z
 _atom_site_occupancy
  Fe  Fe0  1  0.50000001  0.65032801  0.50000002  1
  Nb  Nb1  1  -0.00000000  0.34967200  -0.00000000  1
  Fe  Fe2  1  0.50000001  0.15908900  0.74910803  1
  Fe  Fe3  1  0.50000001  0.15908900  0.25089201  1
  Mo  Mo4  1  -0.00000000  0.84091101  0.75089203  1
  Mo  Mo5  1  -0.00000000  0.84091101  0.24910801  1
  Mo  Mo6  1  -0.00000000  0.31847400  0.50000002  1
  Fe  Fe7  1  0.50000001  0.68152601  0.00000000  1
