# generated using pymatgen
data_BaLa2SnGe11Ru2
_symmetry_space_group_name_H-M   'P 1'
_cell_length_a   8.13325024
_cell_length_b   8.13325024
_cell_length_c   8.13325024
_cell_angle_alpha   109.47122192
_cell_angle_beta   109.47122192
_cell_angle_gamma   109.47122192
_symmetry_Int_Tables_number   1
_chemical_formula_structural   BaLa2SnGe11Ru2
_chemical_formula_sum   'Ba1 La2 Sn1 Ge11 Ru2'
_cell_volume   414.16223152
_cell_formula_units_Z   1
loop_
 _symmetry_equiv_pos_site_id
 _symmetry_equiv_pos_as_xyz
  1  'x, y, z'
loop_
 _atom_site_type_symbol
 _atom_site_label
 _atom_site_symmetry_multiplicity
 _atom_site_fract_x
 _atom_site_fract_y
 _atom_site_fract_z
 _atom_site_occupancy
  Ba  Ba0  1  0.00000000  0.00000000  0.00000000  1
  La  La1  1  0.15801202  0.33905100  0.49706300  1
  Ge  Ge2  1  0.84198801  0.66094900  0.50293703  1
  La  La3  1  0.15801204  0.66094900  0.81896100  1
  Sn  Sn4  1  0.84198799  0.33905100  0.18103903  1
  Ge  Ge5  1  0.66094901  0.50293700  0.84198801  1
  Ge  Ge6  1  0.33905102  0.49706300  0.15801203  1
  Ge  Ge7  1  0.33905100  0.18103900  0.84198798  1
  Ge  Ge8  1  0.66094903  0.81896100  0.15801205  1
  Ge  Ge9  1  0.81896098  0.15801200  0.66094900  1
  Ge  Ge10  1  0.18103905  0.84198800  0.33905104  1
  Ge  Ge11  1  0.49706299  0.15801200  0.33905101  1
  Ge  Ge12  1  0.50293703  0.84198800  0.66094903  1
  Ru  Ru13  1  0.50000001  0.50000000  0.50000002  1
  Ge  Ge14  1  0.00000000  0.00000000  0.49999998  1
  Ge  Ge15  1  0.00000003  0.50000000  0.00000003  1
  Ru  Ru16  1  0.50000005  0.99999999  0.00000007  1
