# generated using pymatgen
data_Ba3Sr2Cd2Hg2S10O
_symmetry_space_group_name_H-M   'P 1'
_cell_length_a   7.47253704
_cell_length_b   7.47253704
_cell_length_c   13.03615093
_cell_angle_alpha   73.34499359
_cell_angle_beta   73.34499359
_cell_angle_gamma   59.99999237
_symmetry_Int_Tables_number   1
_chemical_formula_structural   Ba3Sr2Cd2Hg2S10O
_chemical_formula_sum   'Ba3 Sr2 Cd2 Hg2 S10 O1'
_cell_volume   594.87651067
_cell_formula_units_Z   1
loop_
 _symmetry_equiv_pos_site_id
 _symmetry_equiv_pos_as_xyz
  1  'x, y, z'
loop_
 _atom_site_type_symbol
 _atom_site_label
 _atom_site_symmetry_multiplicity
 _atom_site_fract_x
 _atom_site_fract_y
 _atom_site_fract_z
 _atom_site_occupancy
  Ba  Ba0  1  0.12613600  0.12613600  0.62159202  1
  Sr  Sr1  1  0.28929701  0.28929700  0.13210900  1
  Ba  Ba2  1  0.87386403  0.87386399  0.37840801  1
  Ba  Ba3  1  0.71070303  0.71070299  0.86789103  1
  Cd  Cd4  1  0.58910202  0.58910099  0.23269501  1
  Sr  Sr5  1  0.41089801  0.41089899  0.76730503  1
  Hg  Hg6  1  0.00000000  0.00000000  0.00000000  1
  Cd  Cd7  1  0.50000002  0.49999999  0.50000002  1
  S  S8  1  0.79814403  0.79814399  0.11916300  1
  Hg  Hg9  1  0.20185601  0.20185600  0.88083703  1
  S  S10  1  0.85479701  0.38549799  0.37420701  1
  S  S11  1  0.38549801  0.38549799  0.37420701  1
  S  S12  1  0.14520302  0.61450199  0.62579302  1
  S  S13  1  0.38549803  0.85479699  0.37420701  1
  S  S14  1  0.28454903  0.79814399  0.11916300  1
  S  S15  1  0.61450201  0.14520300  0.62579302  1
  S  S16  1  0.20185603  0.71545099  0.88083703  1
  O  O17  1  0.61450202  0.61450199  0.62579302  1
  S  S18  1  0.71545101  0.20185600  0.88083703  1
  S  S19  1  0.79814401  0.28454900  0.11916300  1
