# generated using pymatgen
data_Cs3RbBr4
_symmetry_space_group_name_H-M   'P 1'
_cell_length_a   3.92330194
_cell_length_b   11.17712402
_cell_length_c   11.17712402
_cell_angle_alpha   120.00000000
_cell_angle_beta   90.00000000
_cell_angle_gamma   90.00000000
_symmetry_Int_Tables_number   1
_chemical_formula_structural   Cs3RbBr4
_chemical_formula_sum   'Cs3 Rb1 Br4'
_cell_volume   424.46560457
_cell_formula_units_Z   1
loop_
 _symmetry_equiv_pos_site_id
 _symmetry_equiv_pos_as_xyz
  1  'x, y, z'
loop_
 _atom_site_type_symbol
 _atom_site_label
 _atom_site_symmetry_multiplicity
 _atom_site_fract_x
 _atom_site_fract_y
 _atom_site_fract_z
 _atom_site_occupancy
  Cs  Cs0  1  0.25000000  0.66666666  0.33333331  1
  Rb  Rb1  1  0.75000001  0.33333333  0.66666664  1
  Cs  Cs2  1  0.75000001  0.78464799  0.21535198  1
  Cs  Cs3  1  0.75000001  0.43070400  0.21535199  1
  Br  Br4  1  0.75000001  0.78464799  0.56929597  1
  Br  Br5  1  0.25000000  0.21535200  0.78464798  1
  Br  Br6  1  0.25000000  0.56929599  0.78464797  1
  Br  Br7  1  0.25000000  0.21535200  0.43070398  1
