# generated using pymatgen
data_Ca3MgMn2Cd3PPbCl8O
_symmetry_space_group_name_H-M   'P 1'
_cell_length_a   4.09819078
_cell_length_b   9.68460178
_cell_length_c   12.64997196
_cell_angle_alpha   95.60796356
_cell_angle_beta   90.00000000
_cell_angle_gamma   90.00000000
_symmetry_Int_Tables_number   1
_chemical_formula_structural   Ca3MgMn2Cd3PPbCl8O
_chemical_formula_sum   'Ca3 Mg1 Mn2 Cd3 P1 Pb1 Cl8 O1'
_cell_volume   499.66612184
_cell_formula_units_Z   1
loop_
 _symmetry_equiv_pos_site_id
 _symmetry_equiv_pos_as_xyz
  1  'x, y, z'
loop_
 _atom_site_type_symbol
 _atom_site_label
 _atom_site_symmetry_multiplicity
 _atom_site_fract_x
 _atom_site_fract_y
 _atom_site_fract_z
 _atom_site_occupancy
  Ca  Ca0  1  -0.00000000  0.50000001  0.00000002  1
  Ca  Ca1  1  0.00000000  0.00000000  0.50000000  1
  Ca  Ca2  1  0.50000003  0.19827001  0.77786800  1
  Mn  Mn3  1  0.50000003  0.80173002  0.22213204  1
  Cd  Cd4  1  0.50000003  0.80344902  0.67516203  1
  Mn  Mn5  1  -0.00000000  0.39939301  0.55416601  1
  Cd  Cd6  1  0.50000003  0.19655101  0.32483801  1
  Mg  Mg7  1  0.50000003  0.60449102  0.78053302  1
  P  P8  1  0.50000003  0.39550901  0.21946702  1
  Cd  Cd9  1  -0.00000000  0.89152703  0.93657604  1
  Pb  Pb10  1  -0.00000000  0.10847300  0.06342400  1
  Cl  Cl11  1  -0.00000000  0.60060702  0.44583402  1
  Cl  Cl12  1  -0.00000000  0.94828303  0.74181904  1
  O  O13  1  -0.00000000  0.44651801  0.75508402  1
  Cl  Cl14  1  -0.00000000  0.05171700  0.25818100  1
  Cl  Cl15  1  -0.00000000  0.55348202  0.24491602  1
  Cl  Cl16  1  0.50000003  0.75767102  0.47404403  1
  Cl  Cl17  1  0.50000003  0.73915602  0.96672403  1
  Cl  Cl18  1  0.50000003  0.26084401  0.03327601  1
  Cl  Cl19  1  0.50000003  0.24232901  0.52595601  1
