# generated using pymatgen
data_Ce2Al3Si5
_symmetry_space_group_name_H-M   'P 1'
_cell_length_a   4.32712889
_cell_length_b   4.32712889
_cell_length_c   10.98884487
_cell_angle_alpha   90.00000000
_cell_angle_beta   90.00000000
_cell_angle_gamma   90.00000000
_symmetry_Int_Tables_number   1
_chemical_formula_structural   Ce2Al3Si5
_chemical_formula_sum   'Ce2 Al3 Si5'
_cell_volume   205.75561935
_cell_formula_units_Z   1
loop_
 _symmetry_equiv_pos_site_id
 _symmetry_equiv_pos_as_xyz
  1  'x, y, z'
loop_
 _atom_site_type_symbol
 _atom_site_label
 _atom_site_symmetry_multiplicity
 _atom_site_fract_x
 _atom_site_fract_y
 _atom_site_fract_z
 _atom_site_occupancy
  Ce  Ce0  1  0.00000000  0.00000000  0.99893201  1
  Ce  Ce1  1  0.50000001  0.50000001  0.49801601  1
  Al  Al2  1  0.00000000  0.50000001  0.23946600  1
  Al  Al3  1  0.50000001  0.00000000  0.75357001  1
  Si  Si4  1  0.50000001  0.00000000  0.23946600  1
  Al  Al5  1  0.00000000  0.50000001  0.75357001  1
  Si  Si6  1  0.00000000  0.00000000  0.61500801  1
  Si  Si7  1  0.00000000  0.00000000  0.38232000  1
  Si  Si8  1  0.50000001  0.50000001  0.89881801  1
  Si  Si9  1  0.50000001  0.50000001  0.12083300  1
