# generated using pymatgen
data_Ce2DyTlS4
_symmetry_space_group_name_H-M   'P 1'
_cell_length_a   5.69375610
_cell_length_b   5.69375610
_cell_length_c   7.05047703
_cell_angle_alpha   113.81501770
_cell_angle_beta   113.81501770
_cell_angle_gamma   90.00000000
_symmetry_Int_Tables_number   1
_chemical_formula_structural   Ce2DyTlS4
_chemical_formula_sum   'Ce2 Dy1 Tl1 S4'
_cell_volume   187.63715634
_cell_formula_units_Z   1
loop_
 _symmetry_equiv_pos_site_id
 _symmetry_equiv_pos_as_xyz
  1  'x, y, z'
loop_
 _atom_site_type_symbol
 _atom_site_label
 _atom_site_symmetry_multiplicity
 _atom_site_fract_x
 _atom_site_fract_y
 _atom_site_fract_z
 _atom_site_occupancy
  Dy  Dy0  1  0.00000000  0.00000000  0.00000000  1
  Ce  Ce1  1  0.74999995  0.24999998  0.49999994  1
  Ce  Ce2  1  0.49999994  0.49999997  -0.00000007  1
  Tl  Tl3  1  0.24999994  0.74999995  0.49999992  1
  S  S4  1  0.74689191  0.74689195  0.49378390  1
  S  S5  1  0.25310797  0.25310798  0.50621597  1
  S  S6  1  0.00310796  0.50310797  0.00621596  1
  S  S7  1  0.49689191  0.99689194  0.99378389  1
