# generated using pymatgen
data_NaAl3CuO8
_symmetry_space_group_name_H-M   'P 1'
_cell_length_a   3.00496006
_cell_length_b   7.19340372
_cell_length_c   7.30049181
_cell_angle_alpha   86.91551971
_cell_angle_beta   78.12335205
_cell_angle_gamma   77.94390869
_symmetry_Int_Tables_number   1
_chemical_formula_structural   NaAl3CuO8
_chemical_formula_sum   'Na1 Al3 Cu1 O8'
_cell_volume   151.01266586
_cell_formula_units_Z   1
loop_
 _symmetry_equiv_pos_site_id
 _symmetry_equiv_pos_as_xyz
  1  'x, y, z'
loop_
 _atom_site_type_symbol
 _atom_site_label
 _atom_site_symmetry_multiplicity
 _atom_site_fract_x
 _atom_site_fract_y
 _atom_site_fract_z
 _atom_site_occupancy
  Na  Na0  1  0.49999999  0.00000000  0.99999998  1
  Al  Al1  1  0.35003089  0.81655099  0.48338705  1
  Al  Al2  1  0.16273993  0.49000999  0.18451003  1
  Al  Al3  1  0.83725992  0.50998999  0.81549002  1
  Cu  Cu4  1  0.64996897  0.18344900  0.51661300  1
  O  O5  1  0.54193391  0.63453799  0.28159404  1
  O  O6  1  0.15863999  0.04206000  0.64066000  1
  O  O7  1  0.15753296  0.30087300  0.38406102  1
  O  O8  1  0.20837491  0.64062899  0.94262104  1
  O  O9  1  0.79162494  0.35937100  0.05737901  1
  O  O10  1  0.84246690  0.69912699  0.61593903  1
  O  O11  1  0.84135986  0.95793999  0.35934005  1
  O  O12  1  0.45806595  0.36546200  0.71840601  1
