# generated using pymatgen
data_Tl3Sn12Bi
_symmetry_space_group_name_H-M   'P 1'
_cell_length_a   4.24242306
_cell_length_b   9.12694836
_cell_length_c   11.68545437
_cell_angle_alpha   89.73223877
_cell_angle_beta   90.00000000
_cell_angle_gamma   90.00000000
_symmetry_Int_Tables_number   1
_chemical_formula_structural   Tl3Sn12Bi
_chemical_formula_sum   'Tl3 Sn12 Bi1'
_cell_volume   452.46024779
_cell_formula_units_Z   1
loop_
 _symmetry_equiv_pos_site_id
 _symmetry_equiv_pos_as_xyz
  1  'x, y, z'
loop_
 _atom_site_type_symbol
 _atom_site_label
 _atom_site_symmetry_multiplicity
 _atom_site_fract_x
 _atom_site_fract_y
 _atom_site_fract_z
 _atom_site_occupancy
  Tl  Tl0  1  0.49999999  0.59602998  0.97741604  1
  Tl  Tl1  1  0.49999999  0.79554797  0.61308003  1
  Tl  Tl2  1  0.49999999  0.28791799  0.88769903  1
  Sn  Sn3  1  -0.00000000  0.20673399  0.38945001  1
  Sn  Sn4  1  -0.00000000  0.69635497  0.11413602  1
  Bi  Bi5  1  0.49999999  0.89324096  0.90936304  1
  Sn  Sn6  1  0.49999999  0.39224898  0.59770502  1
  Sn  Sn7  1  0.00000000  0.11782500  0.09017500  1
  Sn  Sn8  1  -0.00000000  0.61130898  0.40399702  1
  Sn  Sn9  1  0.49999999  0.90702196  0.32011803  1
  Sn  Sn10  1  0.49999999  0.39864198  0.18128401  1
  Sn  Sn11  1  0.00000000  0.09308200  0.67998002  1
  Sn  Sn12  1  -0.00000000  0.58959798  0.81812803  1
  Sn  Sn13  1  0.49999999  0.10043900  0.52162601  1
  Sn  Sn14  1  0.00000000  0.41337498  0.01789001  1
  Sn  Sn15  1  0.00000000  0.90063396  0.47795303  1
