# generated using pymatgen
data_SrCa5
_symmetry_space_group_name_H-M   'P 1'
_cell_length_a   6.16521120
_cell_length_b   6.53672981
_cell_length_c   6.53673077
_cell_angle_alpha   60.00000381
_cell_angle_beta   90.00000000
_cell_angle_gamma   90.00000000
_symmetry_Int_Tables_number   1
_chemical_formula_structural   SrCa5
_chemical_formula_sum   'Sr1 Ca5'
_cell_volume   228.13910799
_cell_formula_units_Z   1
loop_
 _symmetry_equiv_pos_site_id
 _symmetry_equiv_pos_as_xyz
  1  'x, y, z'
loop_
 _atom_site_type_symbol
 _atom_site_label
 _atom_site_symmetry_multiplicity
 _atom_site_fract_x
 _atom_site_fract_y
 _atom_site_fract_z
 _atom_site_occupancy
  Ca  Ca0  1  0.49999998  0.00000000  0.32291099  1
  Sr  Sr1  1  0.49999998  0.67708902  0.00000001  1
  Ca  Ca2  1  0.49999998  0.32291101  0.67708899  1
  Ca  Ca3  1  -0.00000000  0.66666668  0.66666666  1
  Ca  Ca4  1  0.00000000  0.33333334  0.33333333  1
  Ca  Ca5  1  0.00000000  0.00000000  0.00000000  1
