# generated using pymatgen
data_Li5NbWO13
_symmetry_space_group_name_H-M   'P 1'
_cell_length_a   7.27769184
_cell_length_b   7.39253378
_cell_length_c   7.31160021
_cell_angle_alpha   119.63849640
_cell_angle_beta   90.00000000
_cell_angle_gamma   119.48742676
_symmetry_Int_Tables_number   1
_chemical_formula_structural   Li5NbWO13
_chemical_formula_sum   'Li5 Nb1 W1 O13'
_cell_volume   281.78773507
_cell_formula_units_Z   1
loop_
 _symmetry_equiv_pos_site_id
 _symmetry_equiv_pos_as_xyz
  1  'x, y, z'
loop_
 _atom_site_type_symbol
 _atom_site_label
 _atom_site_symmetry_multiplicity
 _atom_site_fract_x
 _atom_site_fract_y
 _atom_site_fract_z
 _atom_site_occupancy
  Li  Li0  1  0.50000001  0.00000000  0.49999999  1
  Li  Li1  1  0.50000001  0.00000000  -0.00000000  1
  Li  Li2  1  -0.00000001  0.50000001  0.49999998  1
  Li  Li3  1  0.50000000  0.50000001  0.49999998  1
  Nb  Nb4  1  0.00000000  0.00000000  0.00000000  1
  Li  Li5  1  0.00000000  0.00000000  0.49999999  1
  W  W6  1  0.10027798  0.76498501  0.82744397  1
  O  O7  1  0.66470700  0.76498401  0.82744297  1
  O  O8  1  0.93198900  0.86397801  0.18198898  1
  O  O9  1  0.66470600  0.76498301  0.43753998  1
  O  O10  1  0.10027698  0.76498401  0.43754098  1
  O  O11  1  0.57501801  0.15003600  0.82501797  1
  O  O12  1  0.89972201  0.23501500  0.17255599  1
  O  O13  1  0.33529300  0.23501600  0.17255699  1
  O  O14  1  0.06801100  0.13602200  0.81801097  1
  O  O15  1  0.33529400  0.23501700  0.56245998  1
  O  O16  1  0.89972301  0.23501600  0.56245898  1
  O  O17  1  0.42498199  0.84996401  0.17498198  1
  O  O18  1  0.31557399  0.63114801  0.56557398  1
  O  O19  1  0.68442601  0.36885201  0.43442598  1
