# generated using pymatgen
data_Hf2MgTiAlNi3
_symmetry_space_group_name_H-M   'P 1'
_cell_length_a   5.25768280
_cell_length_b   5.25768280
_cell_length_c   5.25768280
_cell_angle_alpha   90.00000000
_cell_angle_beta   90.00000000
_cell_angle_gamma   90.00000000
_symmetry_Int_Tables_number   1
_chemical_formula_structural   Hf2MgTiAlNi3
_chemical_formula_sum   'Hf2 Mg1 Ti1 Al1 Ni3'
_cell_volume   145.33932665
_cell_formula_units_Z   1
loop_
 _symmetry_equiv_pos_site_id
 _symmetry_equiv_pos_as_xyz
  1  'x, y, z'
loop_
 _atom_site_type_symbol
 _atom_site_label
 _atom_site_symmetry_multiplicity
 _atom_site_fract_x
 _atom_site_fract_y
 _atom_site_fract_z
 _atom_site_occupancy
  Ti  Ti0  1  0.00000000  0.50000002  0.74218903  1
  Hf  Hf1  1  0.50000002  0.25781101  0.00000000  1
  Hf  Hf2  1  0.74218903  0.00000000  0.50000002  1
  Ni  Ni3  1  0.00000000  0.50000002  0.25781101  1
  Mg  Mg4  1  0.50000002  0.74218903  0.00000000  1
  Al  Al5  1  0.25781101  0.00000000  0.50000002  1
  Ni  Ni6  1  0.00000000  0.00000000  0.00000000  1
  Ni  Ni7  1  0.50000002  0.50000002  0.50000002  1
