# generated using pymatgen
data_LiVFeGeP
_symmetry_space_group_name_H-M   'P 1'
_cell_length_a   3.93009210
_cell_length_b   3.93009210
_cell_length_c   5.72059202
_cell_angle_alpha   110.09049988
_cell_angle_beta   110.09049988
_cell_angle_gamma   90.00000000
_symmetry_Int_Tables_number   1
_chemical_formula_structural   LiVFeGeP
_chemical_formula_sum   'Li1 V1 Fe1 Ge1 P1'
_cell_volume   77.23176530
_cell_formula_units_Z   1
loop_
 _symmetry_equiv_pos_site_id
 _symmetry_equiv_pos_as_xyz
  1  'x, y, z'
loop_
 _atom_site_type_symbol
 _atom_site_label
 _atom_site_symmetry_multiplicity
 _atom_site_fract_x
 _atom_site_fract_y
 _atom_site_fract_z
 _atom_site_occupancy
  Li  Li0  1  0.00000000  0.00000000  0.00000000  1
  V  V1  1  0.25000000  0.74999999  0.50000000  1
  Fe  Fe2  1  0.74999999  0.25000000  0.50000000  1
  Ge  Ge3  1  0.61627600  0.61627599  0.23255201  1
  P  P4  1  0.38372400  0.38372399  0.76744799  1
