# generated using pymatgen
data_TaNb2FeSN5
_symmetry_space_group_name_H-M   'P 1'
_cell_length_a   3.20346498
_cell_length_b   6.53679276
_cell_length_c   6.53679276
_cell_angle_alpha   106.04586792
_cell_angle_beta   90.00000000
_cell_angle_gamma   90.00000000
_symmetry_Int_Tables_number   1
_chemical_formula_structural   TaNb2FeSN5
_chemical_formula_sum   'Ta1 Nb2 Fe1 S1 N5'
_cell_volume   131.55010724
_cell_formula_units_Z   1
loop_
 _symmetry_equiv_pos_site_id
 _symmetry_equiv_pos_as_xyz
  1  'x, y, z'
loop_
 _atom_site_type_symbol
 _atom_site_label
 _atom_site_symmetry_multiplicity
 _atom_site_fract_x
 _atom_site_fract_y
 _atom_site_fract_z
 _atom_site_occupancy
  Ta  Ta0  1  -0.00000000  0.49999999  -0.00000001  1
  Nb  Nb1  1  0.00000000  0.00000000  0.49999999  1
  Nb  Nb2  1  0.50000000  0.49999999  0.49999998  1
  Fe  Fe3  1  0.50000000  0.00000000  -0.00000000  1
  N  N4  1  -0.00000000  0.35637799  0.64362198  1
  N  N5  1  0.50000000  0.32635799  0.04928499  1
  S  S6  1  0.50000000  0.95071498  0.67364196  1
  N  N7  1  0.50000000  0.04928500  0.32635799  1
  N  N8  1  0.50000000  0.67364198  0.95071496  1
  N  N9  1  -0.00000000  0.64362198  0.35637798  1
