# generated using pymatgen
data_Li2Mn2O7
_symmetry_space_group_name_H-M   'P 1'
_cell_length_a   4.70739841
_cell_length_b   5.26818466
_cell_length_c   5.26818466
_cell_angle_alpha   78.75613403
_cell_angle_beta   81.08249664
_cell_angle_gamma   98.91750336
_symmetry_Int_Tables_number   1
_chemical_formula_structural   Li2Mn2O7
_chemical_formula_sum   'Li2 Mn2 O7'
_cell_volume   124.25671286
_cell_formula_units_Z   1
loop_
 _symmetry_equiv_pos_site_id
 _symmetry_equiv_pos_as_xyz
  1  'x, y, z'
loop_
 _atom_site_type_symbol
 _atom_site_label
 _atom_site_symmetry_multiplicity
 _atom_site_fract_x
 _atom_site_fract_y
 _atom_site_fract_z
 _atom_site_occupancy
  Li  Li0  1  0.00000002  0.24615201  0.24615200  1
  Li  Li1  1  0.00000005  0.62206102  0.62206101  1
  Mn  Mn2  1  0.40557202  0.17906401  0.74761499  1
  Mn  Mn3  1  0.59442807  0.74761502  0.17906397  1
  O  O4  1  0.15940403  0.36200801  0.85115001  1
  O  O5  1  0.26802105  0.54809902  0.33967199  1
  O  O6  1  0.73854307  0.62378002  0.92785498  1
  O  O7  1  0.50000002  0.05771500  0.05771498  1
  O  O8  1  0.73197905  0.33967201  0.54809897  1
  O  O9  1  0.26145708  0.92785503  0.62378000  1
  O  O10  1  0.84059609  0.85115003  0.36200796  1
