# generated using pymatgen
data_BaLaSn4
_symmetry_space_group_name_H-M   'P 1'
_cell_length_a   4.94231415
_cell_length_b   4.94231367
_cell_length_c   9.20051289
_cell_angle_alpha   90.00000000
_cell_angle_beta   90.00000000
_cell_angle_gamma   120.00000000
_symmetry_Int_Tables_number   1
_chemical_formula_structural   BaLaSn4
_chemical_formula_sum   'Ba1 La1 Sn4'
_cell_volume   194.62710452
_cell_formula_units_Z   1
loop_
 _symmetry_equiv_pos_site_id
 _symmetry_equiv_pos_as_xyz
  1  'x, y, z'
loop_
 _atom_site_type_symbol
 _atom_site_label
 _atom_site_symmetry_multiplicity
 _atom_site_fract_x
 _atom_site_fract_y
 _atom_site_fract_z
 _atom_site_occupancy
  Ba  Ba0  1  0.00000000  0.00000000  0.50000001  1
  La  La1  1  0.00000000  0.00000000  0.00000000  1
  Sn  Sn2  1  0.33333329  0.66666664  0.25000000  1
  Sn  Sn3  1  0.66666663  0.33333332  0.75000001  1
  Sn  Sn4  1  0.33333329  0.66666664  0.75000001  1
  Sn  Sn5  1  0.66666663  0.33333332  0.25000000  1
