# generated using pymatgen
data_BeB2C
_symmetry_space_group_name_H-M   'P 1'
_cell_length_a   2.82056999
_cell_length_b   2.82056975
_cell_length_c   7.09919977
_cell_angle_alpha   90.00000000
_cell_angle_beta   90.00000000
_cell_angle_gamma   120.00000000
_symmetry_Int_Tables_number   1
_chemical_formula_structural   BeB2C
_chemical_formula_sum   'Be1 B2 C1'
_cell_volume   48.91181229
_cell_formula_units_Z   1
loop_
 _symmetry_equiv_pos_site_id
 _symmetry_equiv_pos_as_xyz
  1  'x, y, z'
loop_
 _atom_site_type_symbol
 _atom_site_label
 _atom_site_symmetry_multiplicity
 _atom_site_fract_x
 _atom_site_fract_y
 _atom_site_fract_z
 _atom_site_occupancy
  Be  Be0  1  0.33333330  0.66666665  0.50000002  1
  B  B1  1  0.66666665  0.33333332  0.19627801  1
  B  B2  1  0.66666665  0.33333332  0.80372203  1
  C  C3  1  0.33333330  0.66666665  -0.00000000  1
