# generated using pymatgen
data_DyAl2
_symmetry_space_group_name_H-M   'P 1'
_cell_length_a   5.29834604
_cell_length_b   5.31883860
_cell_length_c   8.88974285
_cell_angle_alpha   90.00000000
_cell_angle_beta   90.00000000
_cell_angle_gamma   119.87262726
_symmetry_Int_Tables_number   1
_chemical_formula_structural   DyAl2
_chemical_formula_sum   'Dy4 Al8'
_cell_volume   217.23657402
_cell_formula_units_Z   4
loop_
 _symmetry_equiv_pos_site_id
 _symmetry_equiv_pos_as_xyz
  1  'x, y, z'
loop_
 _atom_site_type_symbol
 _atom_site_label
 _atom_site_symmetry_multiplicity
 _atom_site_fract_x
 _atom_site_fract_y
 _atom_site_fract_z
 _atom_site_occupancy
  Dy  Dy0  1  0.66523497  0.33047000  0.81388301  1
  Dy  Dy1  1  0.33015196  0.66030399  0.68525301  1
  Dy  Dy2  1  0.33015196  0.66030399  0.31474701  1
  Dy  Dy3  1  0.66523497  0.33047000  0.18611700  1
  Al  Al4  1  0.00431100  0.00862200  0.75098401  1
  Al  Al5  1  0.00431100  0.00862200  0.24901600  1
  Al  Al6  1  0.16873395  0.82729999  -0.00000000  1
  Al  Al7  1  0.65856594  0.82729999  -0.00000000  1
  Al  Al8  1  0.16765098  0.33530200  -0.00000000  1
  Al  Al9  1  0.83129598  0.17408500  0.50000001  1
  Al  Al10  1  0.34278899  0.17408500  0.50000001  1
  Al  Al11  1  0.83141495  0.66282999  0.50000001  1
