# generated using pymatgen
data_Ga
_symmetry_space_group_name_H-M   'P 1'
_cell_length_a   4.56911278
_cell_length_b   5.09739399
_cell_length_c   5.10979652
_cell_angle_alpha   60.08025742
_cell_angle_beta   90.00000000
_cell_angle_gamma   90.00000000
_symmetry_Int_Tables_number   1
_chemical_formula_structural   Ga
_chemical_formula_sum   Ga6
_cell_volume   103.14898916
_cell_formula_units_Z   6
loop_
 _symmetry_equiv_pos_site_id
 _symmetry_equiv_pos_as_xyz
  1  'x, y, z'
loop_
 _atom_site_type_symbol
 _atom_site_label
 _atom_site_symmetry_multiplicity
 _atom_site_fract_x
 _atom_site_fract_y
 _atom_site_fract_z
 _atom_site_occupancy
  Ga  Ga0  1  0.25000001  0.82671501  -0.00000001  1
  Ga  Ga1  1  0.75000004  0.17328500  -0.00000000  1
  Ga  Ga2  1  0.25000001  0.15676700  0.32097499  1
  Ga  Ga3  1  0.25000001  0.47774201  0.67902498  1
  Ga  Ga4  1  0.75000004  0.52225801  0.32097499  1
  Ga  Ga5  1  0.75000004  0.84323301  0.67902497  1
