# generated using pymatgen
data_Ce4CoBiO5
_symmetry_space_group_name_H-M   'P 1'
_cell_length_a   4.00210381
_cell_length_b   4.00210381
_cell_length_c   15.22430515
_cell_angle_alpha   97.55269623
_cell_angle_beta   97.55269623
_cell_angle_gamma   90.00000000
_symmetry_Int_Tables_number   1
_chemical_formula_structural   Ce4CoBiO5
_chemical_formula_sum   'Ce4 Co1 Bi1 O5'
_cell_volume   239.59549420
_cell_formula_units_Z   1
loop_
 _symmetry_equiv_pos_site_id
 _symmetry_equiv_pos_as_xyz
  1  'x, y, z'
loop_
 _atom_site_type_symbol
 _atom_site_label
 _atom_site_symmetry_multiplicity
 _atom_site_fract_x
 _atom_site_fract_y
 _atom_site_fract_z
 _atom_site_occupancy
  Ce  Ce0  1  0.65844103  0.65844103  0.31688200  1
  Ce  Ce1  1  0.92911505  0.92911505  0.85823001  1
  Ce  Ce2  1  0.07575500  0.07575500  0.15151000  1
  Ce  Ce3  1  0.34558802  0.34558802  0.69117601  1
  Co  Co4  1  0.79794104  0.79794104  0.59588201  1
  Bi  Bi5  1  0.21231801  0.21231801  0.42463600  1
  O  O6  1  0.48631003  0.48631002  0.97262001  1
  O  O7  1  0.88903504  0.38903502  0.77807001  1
  O  O8  1  0.38903502  0.88903504  0.77807001  1
  O  O9  1  0.10823101  0.60823103  0.21646200  1
  O  O10  1  0.60823103  0.10823101  0.21646200  1
