# generated using pymatgen
data_Nb4Fe3GeMo
_symmetry_space_group_name_H-M   'P 1'
_cell_length_a   6.98236609
_cell_length_b   6.98236561
_cell_length_c   7.01709414
_cell_angle_alpha   90.00000000
_cell_angle_beta   90.00000000
_cell_angle_gamma   120.00000000
_symmetry_Int_Tables_number   1
_chemical_formula_structural   Nb4Fe3GeMo
_chemical_formula_sum   'Nb4 Fe3 Ge1 Mo1'
_cell_volume   296.27372303
_cell_formula_units_Z   1
loop_
 _symmetry_equiv_pos_site_id
 _symmetry_equiv_pos_as_xyz
  1  'x, y, z'
loop_
 _atom_site_type_symbol
 _atom_site_label
 _atom_site_symmetry_multiplicity
 _atom_site_fract_x
 _atom_site_fract_y
 _atom_site_fract_z
 _atom_site_occupancy
  Nb  Nb0  1  0.66666665  0.33333333  0.49999999  1
  Nb  Nb1  1  0.33333331  0.66666667  0.49999999  1
  Nb  Nb2  1  0.00000000  0.00000000  0.49999999  1
  Nb  Nb3  1  0.33291100  0.00000000  0.27812299  1
  Fe  Fe4  1  -0.00000001  0.33291100  0.27812299  1
  Ge  Ge5  1  0.66708897  0.66708900  0.27812299  1
  Fe  Fe6  1  0.66708899  0.00000000  0.72187699  1
  Mo  Mo7  1  -0.00000002  0.66708900  0.72187699  1
  Fe  Fe8  1  0.33291099  0.33291100  0.72187699  1
