# generated using pymatgen
data_Mg3Cr(NiO3)4
_symmetry_space_group_name_H-M   'P 1'
_cell_length_a   5.42772198
_cell_length_b   5.51152706
_cell_length_c   7.87528801
_cell_angle_alpha   90.00000000
_cell_angle_beta   90.00000000
_cell_angle_gamma   90.00000000
_symmetry_Int_Tables_number   1
_chemical_formula_structural   Mg3Cr(NiO3)4
_chemical_formula_sum   'Mg3 Cr1 Ni4 O12'
_cell_volume   235.58952873
_cell_formula_units_Z   1
loop_
 _symmetry_equiv_pos_site_id
 _symmetry_equiv_pos_as_xyz
  1  'x, y, z'
loop_
 _atom_site_type_symbol
 _atom_site_label
 _atom_site_symmetry_multiplicity
 _atom_site_fract_x
 _atom_site_fract_y
 _atom_site_fract_z
 _atom_site_occupancy
  Cr  Cr0  1  0.00000000  0.00000000  0.00000000  1
  Mg  Mg1  1  0.00000000  0.00000000  0.50000000  1
  Mg  Mg2  1  0.50000000  0.49999999  0.00000000  1
  Mg  Mg3  1  0.50000000  0.49999999  0.50000000  1
  Ni  Ni4  1  0.99093200  0.46291399  0.75000000  1
  Ni  Ni5  1  0.50906800  0.96291399  0.75000000  1
  Ni  Ni6  1  0.49093200  0.03708600  0.25000000  1
  Ni  Ni7  1  0.00906800  0.53708599  0.25000000  1
  O  O8  1  0.11815400  0.92190399  0.25000000  1
  O  O9  1  0.17023800  0.67458299  0.56517200  1
  O  O10  1  0.17023800  0.67458299  0.93482800  1
  O  O11  1  0.32976200  0.17458300  0.56517200  1
  O  O12  1  0.32976200  0.17458300  0.93482800  1
  O  O13  1  0.38184600  0.42190400  0.25000000  1
  O  O14  1  0.61815400  0.57809599  0.75000000  1
  O  O15  1  0.67023800  0.82541699  0.06517200  1
  O  O16  1  0.67023800  0.82541699  0.43482800  1
  O  O17  1  0.82976200  0.32541700  0.06517200  1
  O  O18  1  0.82976200  0.32541700  0.43482800  1
  O  O19  1  0.88184600  0.07809600  0.75000000  1
