# generated using pymatgen
data_TiCu(NiO4)2
_symmetry_space_group_name_H-M   'P 1'
_cell_length_a   5.45283508
_cell_length_b   5.45283508
_cell_length_c   5.45283508
_cell_angle_alpha   90.00000000
_cell_angle_beta   90.00000000
_cell_angle_gamma   90.00000000
_symmetry_Int_Tables_number   1
_chemical_formula_structural   TiCu(NiO4)2
_chemical_formula_sum   'Ti1 Cu1 Ni2 O8'
_cell_volume   162.13138360
_cell_formula_units_Z   1
loop_
 _symmetry_equiv_pos_site_id
 _symmetry_equiv_pos_as_xyz
  1  'x, y, z'
loop_
 _atom_site_type_symbol
 _atom_site_label
 _atom_site_symmetry_multiplicity
 _atom_site_fract_x
 _atom_site_fract_y
 _atom_site_fract_z
 _atom_site_occupancy
  Cu  Cu0  1  0.00000000  0.49999999  0.49999999  1
  Ti  Ti1  1  0.49999999  0.49999999  -0.00000000  1
  Ni  Ni2  1  0.49999999  0.00000000  0.49999999  1
  Ni  Ni3  1  0.00000000  0.00000000  0.00000000  1
  O  O4  1  0.38393599  0.11606400  0.88393599  1
  O  O5  1  0.11606400  0.88393599  0.38393599  1
  O  O6  1  0.88393599  0.38393599  0.11606400  1
  O  O7  1  0.61606399  0.61606399  0.61606399  1
  O  O8  1  0.38393599  0.38393599  0.38393599  1
  O  O9  1  0.11606400  0.61606399  0.88393599  1
  O  O10  1  0.88393599  0.11606400  0.61606399  1
  O  O11  1  0.61606399  0.88393599  0.11606400  1
