# generated using pymatgen
data_LiNi3AsO8
_symmetry_space_group_name_H-M   'P 1'
_cell_length_a   2.99906206
_cell_length_b   7.20424604
_cell_length_c   7.20424604
_cell_angle_alpha   87.51690674
_cell_angle_beta   77.98630524
_cell_angle_gamma   77.98630524
_symmetry_Int_Tables_number   1
_chemical_formula_structural   LiNi3AsO8
_chemical_formula_sum   'Li1 Ni3 As1 O8'
_cell_volume   148.91113018
_cell_formula_units_Z   1
loop_
 _symmetry_equiv_pos_site_id
 _symmetry_equiv_pos_as_xyz
  1  'x, y, z'
loop_
 _atom_site_type_symbol
 _atom_site_label
 _atom_site_symmetry_multiplicity
 _atom_site_fract_x
 _atom_site_fract_y
 _atom_site_fract_z
 _atom_site_occupancy
  Li  Li0  1  0.49999999  0.00000000  -0.00000001  1
  Ni  Ni1  1  0.65044798  0.18330300  0.51580097  1
  Ni  Ni2  1  0.16624897  0.48419899  0.18330297  1
  Ni  Ni3  1  0.83375096  0.51580099  0.81669694  1
  As  As4  1  0.34955195  0.81669699  0.48419894  1
  O  O5  1  0.83323995  0.71004599  0.62347294  1
  O  O6  1  0.45671397  0.37652699  0.71004496  1
  O  O7  1  0.54328596  0.62347299  0.28995495  1
  O  O8  1  0.16675998  0.28995400  0.37652697  1
  O  O9  1  0.15340200  0.04837000  0.64482598  1
  O  O10  1  0.79822797  0.35517399  0.04836997  1
  O  O11  1  0.84659794  0.95162999  0.35517393  1
  O  O12  1  0.20177196  0.64482599  0.95162994  1
