# generated using pymatgen
data_Ce2Co5
_symmetry_space_group_name_H-M   'P 1'
_cell_length_a   4.62425613
_cell_length_b   4.62425613
_cell_length_c   8.44726849
_cell_angle_alpha   105.88533783
_cell_angle_beta   105.88533783
_cell_angle_gamma   90.00000000
_symmetry_Int_Tables_number   1
_chemical_formula_structural   Ce2Co5
_chemical_formula_sum   'Ce2 Co5'
_cell_volume   166.55243135
_cell_formula_units_Z   1
loop_
 _symmetry_equiv_pos_site_id
 _symmetry_equiv_pos_as_xyz
  1  'x, y, z'
loop_
 _atom_site_type_symbol
 _atom_site_label
 _atom_site_symmetry_multiplicity
 _atom_site_fract_x
 _atom_site_fract_y
 _atom_site_fract_z
 _atom_site_occupancy
  Ce  Ce0  1  0.64776198  0.64776198  0.29552399  1
  Ce  Ce1  1  0.35223799  0.35223799  0.70447599  1
  Co  Co2  1  0.00000000  0.00000000  0.00000000  1
  Co  Co3  1  0.85130897  0.85130897  0.70261799  1
  Co  Co4  1  0.14869100  0.14869100  0.29738199  1
  Co  Co5  1  -0.00000000  0.49999999  0.99999998  1
  Co  Co6  1  0.49999999  0.00000000  -0.00000000  1
