# generated using pymatgen
data_Ce3Al2SiP5
_symmetry_space_group_name_H-M   'P 1'
_cell_length_a   4.58245611
_cell_length_b   7.02031612
_cell_length_c   8.63126659
_cell_angle_alpha   113.99640656
_cell_angle_beta   105.39409637
_cell_angle_gamma   90.00000000
_symmetry_Int_Tables_number   1
_chemical_formula_structural   Ce3Al2SiP5
_chemical_formula_sum   'Ce3 Al2 Si1 P5'
_cell_volume   242.72655404
_cell_formula_units_Z   1
loop_
 _symmetry_equiv_pos_site_id
 _symmetry_equiv_pos_as_xyz
  1  'x, y, z'
loop_
 _atom_site_type_symbol
 _atom_site_label
 _atom_site_symmetry_multiplicity
 _atom_site_fract_x
 _atom_site_fract_y
 _atom_site_fract_z
 _atom_site_occupancy
  Ce  Ce0  1  0.00000000  0.49999998  -0.00000001  1
  Ce  Ce1  1  0.86699098  0.86699097  0.73398197  1
  Ce  Ce2  1  0.13300900  0.13300900  0.26601799  1
  Al  Al3  1  0.33203999  0.14828400  0.66407999  1
  Si  Si4  1  0.33203999  0.51579598  0.66407998  1
  Al  Al5  1  0.66795999  0.48420399  0.33591999  1
  P  P6  1  0.66795999  0.85171597  0.33591998  1
  P  P7  1  0.49999999  0.20075199  0.00000000  1
  P  P8  1  0.49999999  0.79924798  -0.00000001  1
  P  P9  1  0.78383299  0.28383299  0.56766599  1
  P  P10  1  0.21616700  0.71616698  0.43233398  1
