# generated using pymatgen
data_MgPO3
_symmetry_space_group_name_H-M   'P 1'
_cell_length_a   5.28233480
_cell_length_b   6.79291677
_cell_length_c   6.79291677
_cell_angle_alpha   86.07078552
_cell_angle_beta   81.26957703
_cell_angle_gamma   81.26957703
_symmetry_Int_Tables_number   1
_chemical_formula_structural   MgPO3
_chemical_formula_sum   'Mg4 P4 O12'
_cell_volume   237.87268985
_cell_formula_units_Z   4
loop_
 _symmetry_equiv_pos_site_id
 _symmetry_equiv_pos_as_xyz
  1  'x, y, z'
loop_
 _atom_site_type_symbol
 _atom_site_label
 _atom_site_symmetry_multiplicity
 _atom_site_fract_x
 _atom_site_fract_y
 _atom_site_fract_z
 _atom_site_occupancy
  Mg  Mg0  1  0.75000005  0.90767197  0.09232801  1
  Mg  Mg1  1  0.25000000  0.09232800  0.90767199  1
  Mg  Mg2  1  0.75000001  0.27068999  0.72931001  1
  Mg  Mg3  1  0.25000005  0.72930998  0.27068999  1
  P  P4  1  0.78343802  0.39212399  0.20794302  1
  P  P5  1  0.71656204  0.79205698  0.60787600  1
  P  P6  1  0.21656204  0.60787598  0.79205698  1
  P  P7  1  0.28343801  0.20794299  0.39212400  1
  O  O8  1  0.85916600  0.20851399  0.02879303  1
  O  O9  1  0.64083406  0.97120697  0.79148599  1
  O  O10  1  0.14083405  0.79148598  0.97120697  1
  O  O11  1  0.35916600  0.02879300  0.20851401  1
  O  O12  1  0.61917803  0.62319498  0.14321801  1
  O  O13  1  0.88082205  0.85678198  0.37680501  1
  O  O14  1  0.38082202  0.37680499  0.85678199  1
  O  O15  1  0.11917801  0.14321800  0.62319499  1
  O  O16  1  0.08451303  0.42404999  0.29287399  1
  O  O17  1  0.41548704  0.70712598  0.57594999  1
  O  O18  1  0.91548703  0.57594998  0.70712601  1
  O  O19  1  0.58451301  0.29287399  0.42405001  1
