# generated using pymatgen
data_Sm(BC)2
_symmetry_space_group_name_H-M   'P 1'
_cell_length_a   3.58415389
_cell_length_b   3.58415389
_cell_length_c   5.58913231
_cell_angle_alpha   108.70139313
_cell_angle_beta   108.70139313
_cell_angle_gamma   90.00000000
_symmetry_Int_Tables_number   1
_chemical_formula_structural   Sm(BC)2
_chemical_formula_sum   'Sm1 B2 C2'
_cell_volume   63.99311159
_cell_formula_units_Z   1
loop_
 _symmetry_equiv_pos_site_id
 _symmetry_equiv_pos_as_xyz
  1  'x, y, z'
loop_
 _atom_site_type_symbol
 _atom_site_label
 _atom_site_symmetry_multiplicity
 _atom_site_fract_x
 _atom_site_fract_y
 _atom_site_fract_z
 _atom_site_occupancy
  Sm  Sm0  1  0.00000000  0.00000000  0.00000000  1
  B  B1  1  0.75000004  0.25000001  0.50000005  1
  B  B2  1  0.25000003  0.75000004  0.50000005  1
  C  C3  1  0.66250205  0.66250203  0.32500405  1
  C  C4  1  0.33749803  0.33749802  0.67499605  1
