# generated using pymatgen
data_Hg2Au
_symmetry_space_group_name_H-M   'P 1'
_cell_length_a   3.34304428
_cell_length_b   3.34304428
_cell_length_c   7.34977007
_cell_angle_alpha   76.85446167
_cell_angle_beta   76.85446167
_cell_angle_gamma   59.99999619
_symmetry_Int_Tables_number   1
_chemical_formula_structural   Hg2Au
_chemical_formula_sum   'Hg2 Au1'
_cell_volume   68.63917978
_cell_formula_units_Z   1
loop_
 _symmetry_equiv_pos_site_id
 _symmetry_equiv_pos_as_xyz
  1  'x, y, z'
loop_
 _atom_site_type_symbol
 _atom_site_label
 _atom_site_symmetry_multiplicity
 _atom_site_fract_x
 _atom_site_fract_y
 _atom_site_fract_z
 _atom_site_occupancy
  Hg  Hg0  1  0.00000000  0.00000000  0.00000000  1
  Hg  Hg1  1  0.38885200  0.38885199  0.83344399  1
  Au  Au2  1  0.61114800  0.61114799  0.16655597  1
