# generated using pymatgen
data_MgAl3(Co2O5)2
_symmetry_space_group_name_H-M   'P 1'
_cell_length_a   4.67834616
_cell_length_b   4.67834616
_cell_length_c   9.08080292
_cell_angle_alpha   90.00000000
_cell_angle_beta   90.00000000
_cell_angle_gamma   90.00000000
_symmetry_Int_Tables_number   1
_chemical_formula_structural   MgAl3(Co2O5)2
_chemical_formula_sum   'Mg1 Al3 Co4 O10'
_cell_volume   198.75083210
_cell_formula_units_Z   1
loop_
 _symmetry_equiv_pos_site_id
 _symmetry_equiv_pos_as_xyz
  1  'x, y, z'
loop_
 _atom_site_type_symbol
 _atom_site_label
 _atom_site_symmetry_multiplicity
 _atom_site_fract_x
 _atom_site_fract_y
 _atom_site_fract_z
 _atom_site_occupancy
  Mg  Mg0  1  0.49999998  0.49999998  0.83343801  1
  Al  Al1  1  0.00000000  0.00000000  0.33343800  1
  Al  Al2  1  0.49999998  0.49999998  0.49936700  1
  Al  Al3  1  0.00000000  0.00000000  0.99936701  1
  Co  Co4  1  0.49999998  0.49999998  0.16734200  1
  Co  Co5  1  0.00000000  0.00000000  0.66734201  1
  Co  Co6  1  0.19481599  0.80518397  0.16577700  1
  Co  Co7  1  0.19931199  0.80068797  0.49899600  1
  O  O8  1  0.19540199  0.80459797  0.83515301  1
  O  O9  1  0.80518397  0.19481599  0.16577700  1
  O  O10  1  0.80068797  0.19931199  0.49899600  1
  O  O11  1  0.80459797  0.19540199  0.83515301  1
  O  O12  1  0.30068799  0.30068799  0.99899601  1
  O  O13  1  0.30459799  0.30459799  0.33515300  1
  O  O14  1  0.30518399  0.30518399  0.66577701  1
  O  O15  1  0.69931198  0.69931198  0.99899601  1
  O  O16  1  0.69540198  0.69540198  0.33515300  1
  O  O17  1  0.69481598  0.69481598  0.66577701  1
