# generated using pymatgen
data_Th3U5(RuN2)3
_symmetry_space_group_name_H-M   'P 1'
_cell_length_a   3.32769990
_cell_length_b   10.32788563
_cell_length_c   10.32788563
_cell_angle_alpha   120.00000000
_cell_angle_beta   90.00000000
_cell_angle_gamma   90.00000000
_symmetry_Int_Tables_number   1
_chemical_formula_structural   Th3U5(RuN2)3
_chemical_formula_sum   'Th3 U5 Ru3 N6'
_cell_volume   307.39558459
_cell_formula_units_Z   1
loop_
 _symmetry_equiv_pos_site_id
 _symmetry_equiv_pos_as_xyz
  1  'x, y, z'
loop_
 _atom_site_type_symbol
 _atom_site_label
 _atom_site_symmetry_multiplicity
 _atom_site_fract_x
 _atom_site_fract_y
 _atom_site_fract_z
 _atom_site_occupancy
  Th  Th0  1  -0.00000000  0.45825101  -0.00000002  1
  Th  Th1  1  1.00000003  0.54174901  0.54174897  1
  Th  Th2  1  -0.00000000  0.00000000  0.45825099  1
  U  U3  1  0.50000002  0.20167800  0.73877098  1
  U  U4  1  0.50000002  0.53709301  0.79832097  1
  U  U5  1  0.50000002  0.26122800  0.46290598  1
  U  U6  1  0.50000002  0.46290701  0.26122898  1
  U  U7  1  0.50000002  0.73877201  0.20167897  1
  Ru  Ru8  1  0.50000002  0.79832201  0.53709396  1
  Ru  Ru9  1  -0.00000000  0.33333334  0.66666664  1
  Ru  Ru10  1  -0.00000000  0.66666668  0.33333330  1
  N  N11  1  0.50000002  0.27650100  -0.00000001  1
  N  N12  1  0.50000002  0.72349901  0.72349896  1
  N  N13  1  0.50000002  0.00000000  0.27650099  1
  N  N14  1  1.00000003  0.70453501  0.99999996  1
  N  N15  1  1.00000003  0.29546501  0.29546498  1
  N  N16  1  1.00000003  0.00000000  0.70453499  1
