# generated using pymatgen
data_UTlSn
_symmetry_space_group_name_H-M   'P 1'
_cell_length_a   3.08734894
_cell_length_b   5.00363016
_cell_length_c   5.00363016
_cell_angle_alpha   120.00000000
_cell_angle_beta   90.00000000
_cell_angle_gamma   90.00000000
_symmetry_Int_Tables_number   1
_chemical_formula_structural   UTlSn
_chemical_formula_sum   'U1 Tl1 Sn1'
_cell_volume   66.94016094
_cell_formula_units_Z   1
loop_
 _symmetry_equiv_pos_site_id
 _symmetry_equiv_pos_as_xyz
  1  'x, y, z'
loop_
 _atom_site_type_symbol
 _atom_site_label
 _atom_site_symmetry_multiplicity
 _atom_site_fract_x
 _atom_site_fract_y
 _atom_site_fract_z
 _atom_site_occupancy
  Tl  Tl0  1  0.50000001  0.33333333  0.66666669  1
  U  U1  1  0.50000001  0.66666666  0.33333336  1
  Sn  Sn2  1  0.00000000  0.00000000  0.00000000  1
