# generated using pymatgen
data_Cs2KI3
_symmetry_space_group_name_H-M   'P 1'
_cell_length_a   4.07125616
_cell_length_b   7.00425911
_cell_length_c   10.08218193
_cell_angle_alpha   70.54076385
_cell_angle_beta   78.35170746
_cell_angle_gamma   73.10449219
_symmetry_Int_Tables_number   1
_chemical_formula_structural   Cs2KI3
_chemical_formula_sum   'Cs2 K1 I3'
_cell_volume   257.61574464
_cell_formula_units_Z   1
loop_
 _symmetry_equiv_pos_site_id
 _symmetry_equiv_pos_as_xyz
  1  'x, y, z'
loop_
 _atom_site_type_symbol
 _atom_site_label
 _atom_site_symmetry_multiplicity
 _atom_site_fract_x
 _atom_site_fract_y
 _atom_site_fract_z
 _atom_site_occupancy
  K  K0  1  0.16645796  0.78078000  0.88630402  1
  Cs  Cs1  1  0.48760096  0.32859100  0.69620701  1
  Cs  Cs2  1  0.51239895  0.67140900  0.30379303  1
  I  I3  1  0.83354195  0.21922000  0.11369601  1
  I  I4  1  0.80409293  0.82461600  0.56719803  1
  I  I5  1  0.19590698  0.17538400  0.43280200  1
