# generated using pymatgen
data_CeAl3Si2
_symmetry_space_group_name_H-M   'P 1'
_cell_length_a   6.41029501
_cell_length_b   6.41609621
_cell_length_c   6.99808598
_cell_angle_alpha   62.71493530
_cell_angle_beta   90.00000000
_cell_angle_gamma   90.00000000
_symmetry_Int_Tables_number   1
_chemical_formula_structural   CeAl3Si2
_chemical_formula_sum   'Ce2 Al6 Si4'
_cell_volume   255.80044837
_cell_formula_units_Z   2
loop_
 _symmetry_equiv_pos_site_id
 _symmetry_equiv_pos_as_xyz
  1  'x, y, z'
loop_
 _atom_site_type_symbol
 _atom_site_label
 _atom_site_symmetry_multiplicity
 _atom_site_fract_x
 _atom_site_fract_y
 _atom_site_fract_z
 _atom_site_occupancy
  Ce  Ce0  1  0.16339300  0.33586398  0.00000001  1
  Ce  Ce1  1  0.83660700  0.66413597  0.00000002  1
  Al  Al2  1  0.33660700  0.83586396  0.00000003  1
  Al  Al3  1  0.66339300  0.16413599  0.00000000  1
  Al  Al4  1  0.25000000  0.49704998  0.50000000  1
  Al  Al5  1  0.75000000  0.00295000  0.49999999  1
  Al  Al6  1  0.25000000  0.99704995  0.50000002  1
  Al  Al7  1  0.75000000  0.50294998  0.50000000  1
  Si  Si8  1  0.50000000  0.61764597  0.76470800  1
  Si  Si9  1  0.00000000  0.11764599  0.76470798  1
  Si  Si10  1  0.50000000  0.38235398  0.23529201  1
  Si  Si11  1  0.00000000  0.88235396  0.23529202  1
