# generated using pymatgen
data_H2
_symmetry_space_group_name_H-M   'P 1'
_cell_length_a   3.15138006
_cell_length_b   3.16199732
_cell_length_c   7.63428211
_cell_angle_alpha   93.25535583
_cell_angle_beta   90.00000000
_cell_angle_gamma   119.88898468
_symmetry_Int_Tables_number   1
_chemical_formula_structural   H2
_chemical_formula_sum   H5
_cell_volume   65.81309311
_cell_formula_units_Z   2
loop_
 _symmetry_equiv_pos_site_id
 _symmetry_equiv_pos_as_xyz
  1  'x, y, z'
loop_
 _atom_site_type_symbol
 _atom_site_label
 _atom_site_symmetry_multiplicity
 _atom_site_fract_x
 _atom_site_fract_y
 _atom_site_fract_z
 _atom_site_occupancy
  H  H0  1  0.10232100  0.00000000  0.00000000  1
  H  H1  1  0.76614197  0.27897898  0.73989399  1
  H  H2  1  0.48716294  0.72102095  0.26010599  1
  H  H3  1  0.75936796  0.31083998  0.86642398  1
  H  H4  1  0.44852794  0.68915995  0.13357599  1
