# generated using pymatgen
data_CeGa3Pd2
_symmetry_space_group_name_H-M   'P 1'
_cell_length_a   5.28499556
_cell_length_b   5.28499556
_cell_length_c   5.28499556
_cell_angle_alpha   107.13033295
_cell_angle_beta   107.13033295
_cell_angle_gamma   114.26185608
_symmetry_Int_Tables_number   1
_chemical_formula_structural   CeGa3Pd2
_chemical_formula_sum   'Ce1 Ga3 Pd2'
_cell_volume   113.03401158
_cell_formula_units_Z   1
loop_
 _symmetry_equiv_pos_site_id
 _symmetry_equiv_pos_as_xyz
  1  'x, y, z'
loop_
 _atom_site_type_symbol
 _atom_site_label
 _atom_site_symmetry_multiplicity
 _atom_site_fract_x
 _atom_site_fract_y
 _atom_site_fract_z
 _atom_site_occupancy
  Ce  Ce0  1  0.32171603  0.17828302  0.50000005  1
  Ga  Ga1  1  0.67828410  0.82171708  0.50000012  1
  Ga  Ga2  1  0.17828406  0.67828407  0.85656810  1
  Ga  Ga3  1  0.82171607  0.32171603  0.14343207  1
  Pd  Pd4  1  0.25000003  0.25000002  0.00000003  1
  Pd  Pd5  1  0.75000010  0.75000007  0.00000009  1
