# generated using pymatgen
data_Ce2Al2SiRu3Rh5
_symmetry_space_group_name_H-M   'P 1'
_cell_length_a   5.29554415
_cell_length_b   5.29554510
_cell_length_c   8.72265911
_cell_angle_alpha   90.00000000
_cell_angle_beta   90.00000000
_cell_angle_gamma   119.99999237
_symmetry_Int_Tables_number   1
_chemical_formula_structural   Ce2Al2SiRu3Rh5
_chemical_formula_sum   'Ce2 Al2 Si1 Ru3 Rh5'
_cell_volume   211.83651812
_cell_formula_units_Z   1
loop_
 _symmetry_equiv_pos_site_id
 _symmetry_equiv_pos_as_xyz
  1  'x, y, z'
loop_
 _atom_site_type_symbol
 _atom_site_label
 _atom_site_symmetry_multiplicity
 _atom_site_fract_x
 _atom_site_fract_y
 _atom_site_fract_z
 _atom_site_occupancy
  Ce  Ce0  1  0.00000000  0.00000000  0.00000000  1
  Ce  Ce1  1  0.49999998  1.00000001  0.23166500  1
  Al  Al2  1  0.49999998  1.00000001  0.76833499  1
  Al  Al3  1  -0.00000000  0.50000001  0.23166500  1
  Si  Si4  1  -0.00000000  0.50000001  0.76833499  1
  Ru  Ru5  1  0.49999998  0.50000001  0.23166500  1
  Rh  Rh6  1  0.49999998  0.50000001  0.76833499  1
  Rh  Rh7  1  0.33333332  0.66666668  0.49999999  1
  Rh  Rh8  1  0.66666665  0.33333334  0.49999999  1
  Ru  Ru9  1  0.00000000  0.00000000  0.33655700  1
  Ru  Ru10  1  0.00000000  0.00000000  0.66344299  1
  Rh  Rh11  1  0.33333332  0.66666668  -0.00000000  1
  Rh  Rh12  1  0.66666665  0.33333334  -0.00000000  1
