# generated using pymatgen
data_Ca7MgSiP2
_symmetry_space_group_name_H-M   'P 1'
_cell_length_a   3.87907600
_cell_length_b   9.19215488
_cell_length_c   9.19215488
_cell_angle_alpha   60.06904221
_cell_angle_beta   77.81908417
_cell_angle_gamma   77.81908417
_symmetry_Int_Tables_number   1
_chemical_formula_structural   Ca7MgSiP2
_chemical_formula_sum   'Ca7 Mg1 Si1 P2'
_cell_volume   275.48457252
_cell_formula_units_Z   1
loop_
 _symmetry_equiv_pos_site_id
 _symmetry_equiv_pos_as_xyz
  1  'x, y, z'
loop_
 _atom_site_type_symbol
 _atom_site_label
 _atom_site_symmetry_multiplicity
 _atom_site_fract_x
 _atom_site_fract_y
 _atom_site_fract_z
 _atom_site_occupancy
  Ca  Ca0  1  0.35221505  0.91290101  0.38266900  1
  Ca  Ca1  1  0.64778503  0.61733100  0.08709901  1
  Ca  Ca2  1  0.00000006  0.99815301  0.00184699  1
  Ca  Ca3  1  0.13447202  0.28159300  0.44946300  1
  Ca  Ca4  1  0.86552803  0.55053700  0.71840702  1
  Ca  Ca5  1  0.31404602  0.31173800  0.06016900  1
  Mg  Mg6  1  0.68595305  0.93983201  0.68826201  1
  Ca  Ca7  1  0.50000001  0.26271400  0.73728601  1
  P  P8  1  0.00000004  0.66067800  0.33932199  1
  Si  Si9  1  0.23712204  0.69057000  0.83518600  1
  P  P10  1  0.76287800  0.16481400  0.30943002  1
