# generated using pymatgen
data_Li4MnO5
_symmetry_space_group_name_H-M   'P 1'
_cell_length_a   5.07002592
_cell_length_b   5.53122997
_cell_length_c   7.65158796
_cell_angle_alpha   102.49188995
_cell_angle_beta   103.96234894
_cell_angle_gamma   105.70693970
_symmetry_Int_Tables_number   1
_chemical_formula_structural   Li4MnO5
_chemical_formula_sum   'Li8 Mn2 O10'
_cell_volume   191.13638101
_cell_formula_units_Z   2
loop_
 _symmetry_equiv_pos_site_id
 _symmetry_equiv_pos_as_xyz
  1  'x, y, z'
loop_
 _atom_site_type_symbol
 _atom_site_label
 _atom_site_symmetry_multiplicity
 _atom_site_fract_x
 _atom_site_fract_y
 _atom_site_fract_z
 _atom_site_occupancy
  Li  Li0  1  0.20474709  0.89450201  0.39397106  1
  Li  Li1  1  0.39621404  0.29537200  0.78793703  1
  Li  Li2  1  0.50000006  0.50000000  0.50000005  1
  Li  Li3  1  0.60378608  0.70462801  0.21206307  1
  Li  Li4  1  0.79525304  0.10549800  0.60602904  1
  Li  Li5  1  0.09576207  0.68420501  0.69040804  1
  Li  Li6  1  0.90423806  0.31579500  0.30959206  1
  Li  Li7  1  0.00000005  0.50000000  0.00000003  1
  Mn  Mn8  1  0.70101610  0.89056501  0.90093008  1
  Mn  Mn9  1  0.29898402  0.10943500  0.09907002  1
  O  O10  1  0.05352901  0.04304800  0.84875000  1
  O  O11  1  0.34959807  0.66886101  0.92682205  1
  O  O12  1  0.13471903  0.31542300  0.54063202  1
  O  O13  1  0.21547806  0.52927700  0.24549704  1
  O  O14  1  0.45492810  0.88672801  0.67013207  1
  O  O15  1  0.54507203  0.11327200  0.32986803  1
  O  O16  1  0.78452207  0.47072300  0.75450306  1
  O  O17  1  0.86528109  0.68457701  0.45936808  1
  O  O18  1  0.65040205  0.33113900  0.07317805  1
  O  O19  1  0.94647112  0.95695201  0.15125010  1
