# generated using pymatgen
data_Lu2CuAg
_symmetry_space_group_name_H-M   'P 1'
_cell_length_a   4.89817524
_cell_length_b   4.89817524
_cell_length_c   4.89817524
_cell_angle_alpha   60.00000000
_cell_angle_beta   60.00000000
_cell_angle_gamma   60.00000000
_symmetry_Int_Tables_number   1
_chemical_formula_structural   Lu2CuAg
_chemical_formula_sum   'Lu2 Cu1 Ag1'
_cell_volume   83.09749996
_cell_formula_units_Z   1
loop_
 _symmetry_equiv_pos_site_id
 _symmetry_equiv_pos_as_xyz
  1  'x, y, z'
loop_
 _atom_site_type_symbol
 _atom_site_label
 _atom_site_symmetry_multiplicity
 _atom_site_fract_x
 _atom_site_fract_y
 _atom_site_fract_z
 _atom_site_occupancy
  Lu  Lu0  1  0.75000002  0.75000002  0.75000002  1
  Lu  Lu1  1  0.25000001  0.25000001  0.25000001  1
  Cu  Cu2  1  0.50000001  0.50000001  0.50000001  1
  Ag  Ag3  1  0.00000000  0.00000000  0.00000000  1
