# generated using pymatgen
data_Ba9SrLa3Bi7
_symmetry_space_group_name_H-M   'P 1'
_cell_length_a   7.35013008
_cell_length_b   11.33538818
_cell_length_c   11.33538818
_cell_angle_alpha   120.00000000
_cell_angle_beta   90.00000000
_cell_angle_gamma   90.00000000
_symmetry_Int_Tables_number   1
_chemical_formula_structural   Ba9SrLa3Bi7
_chemical_formula_sum   'Ba9 Sr1 La3 Bi7'
_cell_volume   817.89669150
_cell_formula_units_Z   1
loop_
 _symmetry_equiv_pos_site_id
 _symmetry_equiv_pos_as_xyz
  1  'x, y, z'
loop_
 _atom_site_type_symbol
 _atom_site_label
 _atom_site_symmetry_multiplicity
 _atom_site_fract_x
 _atom_site_fract_y
 _atom_site_fract_z
 _atom_site_occupancy
  Sr  Sr0  1  0.44876800  0.33333333  0.66666666  1
  Ba  Ba1  1  0.94876799  0.66666666  0.33333333  1
  Ba  Ba2  1  0.24772700  0.12552700  0.87447399  1
  Ba  Ba3  1  0.24772700  0.74894699  0.87447399  1
  Ba  Ba4  1  0.24772700  0.12552700  0.25105400  1
  Ba  Ba5  1  0.74772699  0.87447299  0.12552600  1
  Ba  Ba6  1  0.74772699  0.25105300  0.12552600  1
  Ba  Ba7  1  0.74772699  0.87447299  0.74894599  1
  La  La8  1  0.43840200  0.54155599  0.45844299  1
  La  La9  1  0.43840200  0.91688699  0.45844300  1
  La  La10  1  0.43840200  0.54155599  0.08311200  1
  Ba  Ba11  1  0.93840199  0.45844399  0.54155699  1
  Bi  Bi12  1  0.93840199  0.08311300  0.54155699  1
  Ba  Ba13  1  0.93840199  0.45844399  0.91688799  1
  Bi  Bi14  1  0.16897400  0.81159199  0.18840900  1
  Bi  Bi15  1  0.16897400  0.37681699  0.18840900  1
  Bi  Bi16  1  0.16897400  0.81159199  0.62318399  1
  Bi  Bi17  1  0.66897399  0.18840800  0.81159099  1
  Bi  Bi18  1  0.66897399  0.62318299  0.81159099  1
  Bi  Bi19  1  0.66897399  0.18840800  0.37681600  1
