# generated using pymatgen
data_Zr5TiNi12
_symmetry_space_group_name_H-M   'P 1'
_cell_length_a   6.61631393
_cell_length_b   7.54183197
_cell_length_c   7.24283218
_cell_angle_alpha   118.69697571
_cell_angle_beta   90.00000000
_cell_angle_gamma   116.01720428
_symmetry_Int_Tables_number   1
_chemical_formula_structural   Zr5TiNi12
_chemical_formula_sum   'Zr5 Ti1 Ni12'
_cell_volume   274.53535952
_cell_formula_units_Z   1
loop_
 _symmetry_equiv_pos_site_id
 _symmetry_equiv_pos_as_xyz
  1  'x, y, z'
loop_
 _atom_site_type_symbol
 _atom_site_label
 _atom_site_symmetry_multiplicity
 _atom_site_fract_x
 _atom_site_fract_y
 _atom_site_fract_z
 _atom_site_occupancy
  Ti  Ti0  1  0.49415898  0.39034498  0.94517195  1
  Zr  Zr1  1  0.10381297  0.60965397  0.05482696  1
  Zr  Zr2  1  0.04817097  0.55461298  0.52730695  1
  Zr  Zr3  1  0.49355898  0.44538798  0.47269396  1
  Zr  Zr4  1  0.91434896  0.99687896  0.74843992  1
  Zr  Zr5  1  0.91747101  0.00312200  0.25156099  1
  Ni  Ni6  1  0.47376395  0.93636696  0.71818393  1
  Ni  Ni7  1  0.53739800  0.06363400  0.28181699  1
  Ni  Ni8  1  0.16265798  0.33513099  0.67144796  1
  Ni  Ni9  1  0.82752597  0.66486797  0.32855095  1
  Ni  Ni10  1  0.16265798  0.33513099  0.16368198  1
  Ni  Ni11  1  0.82752597  0.66486797  0.83631694  1
  Ni  Ni12  1  0.24387695  0.99999996  0.49999993  1
  Ni  Ni13  1  0.24387695  0.99999996  0.99999992  1
  Ni  Ni14  1  0.49594096  0.74628497  0.91152393  1
  Ni  Ni15  1  0.74965699  0.25371599  0.08847698  1
  Ni  Ni16  1  0.49594196  0.74628597  0.33476195  1
  Ni  Ni17  1  0.74965599  0.25371499  0.66523897  1
