# generated using pymatgen
data_MgPO3
_symmetry_space_group_name_H-M   'P 1'
_cell_length_a   5.32000780
_cell_length_b   6.61366892
_cell_length_c   6.61366892
_cell_angle_alpha   81.96363831
_cell_angle_beta   75.21482086
_cell_angle_gamma   75.21482086
_symmetry_Int_Tables_number   1
_chemical_formula_structural   MgPO3
_chemical_formula_sum   'Mg4 P4 O12'
_cell_volume   216.85069777
_cell_formula_units_Z   4
loop_
 _symmetry_equiv_pos_site_id
 _symmetry_equiv_pos_as_xyz
  1  'x, y, z'
loop_
 _atom_site_type_symbol
 _atom_site_label
 _atom_site_symmetry_multiplicity
 _atom_site_fract_x
 _atom_site_fract_y
 _atom_site_fract_z
 _atom_site_occupancy
  Mg  Mg0  1  0.74999993  0.72911901  0.27088102  1
  Mg  Mg1  1  0.24999997  0.27088100  0.72911901  1
  Mg  Mg2  1  0.24999991  0.91195201  0.08804806  1
  Mg  Mg3  1  0.74999999  0.08804800  0.91195197  1
  P  P4  1  0.22155896  0.38981700  0.20401602  1
  P  P5  1  0.27844092  0.79598401  0.61018305  1
  P  P6  1  0.77844094  0.61018301  0.79598401  1
  P  P7  1  0.72155898  0.20401600  0.38981698  1
  O  O8  1  0.57711494  0.65930501  0.63393402  1
  O  O9  1  0.92288496  0.36606600  0.34069498  1
  O  O10  1  0.17323394  0.63271101  0.11375404  1
  O  O11  1  0.32676592  0.88624601  0.36728905  1
  O  O12  1  0.42288497  0.34069500  0.36606601  1
  O  O13  1  0.07711494  0.63393401  0.65930505  1
  O  O14  1  0.83629999  0.02781400  0.21495296  1
  O  O15  1  0.66369992  0.78504701  0.97218603  1
  O  O16  1  0.16369991  0.97218601  0.78504707  1
  O  O17  1  0.33629998  0.21495300  0.02781400  1
  O  O18  1  0.67323399  0.11375400  0.63271098  1
  O  O19  1  0.82676596  0.36728900  0.88624599  1
