# generated using pymatgen
data_LuNbAl6
_symmetry_space_group_name_H-M   'P 1'
_cell_length_a   4.50935602
_cell_length_b   5.67612982
_cell_length_c   5.67613029
_cell_angle_alpha   60.00000000
_cell_angle_beta   90.00000000
_cell_angle_gamma   90.00000000
_symmetry_Int_Tables_number   1
_chemical_formula_structural   LuNbAl6
_chemical_formula_sum   'Lu1 Nb1 Al6'
_cell_volume   125.82004389
_cell_formula_units_Z   1
loop_
 _symmetry_equiv_pos_site_id
 _symmetry_equiv_pos_as_xyz
  1  'x, y, z'
loop_
 _atom_site_type_symbol
 _atom_site_label
 _atom_site_symmetry_multiplicity
 _atom_site_fract_x
 _atom_site_fract_y
 _atom_site_fract_z
 _atom_site_occupancy
  Nb  Nb0  1  0.25000000  0.33333335  0.33333332  1
  Lu  Lu1  1  0.75000000  0.66666670  0.66666664  1
  Al  Al2  1  0.75000000  0.67402903  0.16298598  1
  Al  Al3  1  0.75000000  0.16298501  0.16298599  1
  Al  Al4  1  0.75000000  0.16298501  0.67402998  1
  Al  Al5  1  0.25000000  0.32597101  0.83701398  1
  Al  Al6  1  0.25000000  0.83701504  0.83701397  1
  Al  Al7  1  0.25000000  0.83701504  0.32596997  1
