# generated using pymatgen
data_CsRb5(Bi2Pb)4
_symmetry_space_group_name_H-M   'P 1'
_cell_length_a   7.75894594
_cell_length_b   7.75894594
_cell_length_c   12.04298115
_cell_angle_alpha   90.00000000
_cell_angle_beta   90.00000000
_cell_angle_gamma   90.00000000
_symmetry_Int_Tables_number   1
_chemical_formula_structural   CsRb5(Bi2Pb)4
_chemical_formula_sum   'Cs1 Rb5 Bi8 Pb4'
_cell_volume   725.00242404
_cell_formula_units_Z   1
loop_
 _symmetry_equiv_pos_site_id
 _symmetry_equiv_pos_as_xyz
  1  'x, y, z'
loop_
 _atom_site_type_symbol
 _atom_site_label
 _atom_site_symmetry_multiplicity
 _atom_site_fract_x
 _atom_site_fract_y
 _atom_site_fract_z
 _atom_site_occupancy
  Rb  Rb0  1  0.50000000  0.00000000  0.74999999  1
  Rb  Rb1  1  -0.00000000  0.50000000  0.74999999  1
  Rb  Rb2  1  0.50000000  0.00000000  0.25000000  1
  Rb  Rb3  1  -0.00000000  0.50000000  0.25000000  1
  Cs  Cs4  1  0.50000000  0.50000000  0.49999999  1
  Rb  Rb5  1  0.00000000  0.00000000  0.00000000  1
  Bi  Bi6  1  0.70844101  0.19420600  0.00000000  1
  Bi  Bi7  1  0.69420601  0.20844100  0.49999999  1
  Bi  Bi8  1  0.30579400  0.79155901  0.49999999  1
  Bi  Bi9  1  0.29155900  0.80579401  0.00000000  1
  Bi  Bi10  1  0.79155901  0.69420601  0.49999999  1
  Bi  Bi11  1  0.20844100  0.30579400  0.49999999  1
  Pb  Pb12  1  0.00000000  0.00000000  0.22510700  1
  Pb  Pb13  1  0.50000000  0.50000000  0.27489300  1
  Bi  Bi14  1  0.00000000  0.00000000  0.77489299  1
  Bi  Bi15  1  0.50000000  0.50000000  0.72510699  1
  Pb  Pb16  1  0.80579401  0.70844101  0.00000000  1
  Pb  Pb17  1  0.19420600  0.29155900  0.00000000  1
