# generated using pymatgen
data_Nd2Sn
_symmetry_space_group_name_H-M   'P 1'
_cell_length_a   3.86784792
_cell_length_b   5.69409084
_cell_length_c   9.06110001
_cell_angle_alpha   90.00000000
_cell_angle_beta   102.32352448
_cell_angle_gamma   90.00000000
_symmetry_Int_Tables_number   1
_chemical_formula_structural   Nd2Sn
_chemical_formula_sum   'Nd4 Sn2'
_cell_volume   194.96228673
_cell_formula_units_Z   2
loop_
 _symmetry_equiv_pos_site_id
 _symmetry_equiv_pos_as_xyz
  1  'x, y, z'
loop_
 _atom_site_type_symbol
 _atom_site_label
 _atom_site_symmetry_multiplicity
 _atom_site_fract_x
 _atom_site_fract_y
 _atom_site_fract_z
 _atom_site_occupancy
  Nd  Nd0  1  0.08669200  0.25000001  0.17338399  1
  Nd  Nd1  1  0.77093902  0.25000001  0.54187798  1
  Nd  Nd2  1  0.91330803  0.75000002  0.82661597  1
  Nd  Nd3  1  0.22906101  0.75000002  0.45812198  1
  Sn  Sn4  1  0.43148301  0.25000001  0.86296596  1
  Sn  Sn5  1  0.56851702  0.75000002  0.13703400  1
