# generated using pymatgen
data_CeSi2
_symmetry_space_group_name_H-M   'P 1'
_cell_length_a   5.29025984
_cell_length_b   5.29025936
_cell_length_c   8.73864937
_cell_angle_alpha   90.00000000
_cell_angle_beta   90.00000000
_cell_angle_gamma   120.00000000
_symmetry_Int_Tables_number   1
_chemical_formula_structural   CeSi2
_chemical_formula_sum   'Ce4 Si8'
_cell_volume   211.80144246
_cell_formula_units_Z   4
loop_
 _symmetry_equiv_pos_site_id
 _symmetry_equiv_pos_as_xyz
  1  'x, y, z'
loop_
 _atom_site_type_symbol
 _atom_site_label
 _atom_site_symmetry_multiplicity
 _atom_site_fract_x
 _atom_site_fract_y
 _atom_site_fract_z
 _atom_site_occupancy
  Ce  Ce0  1  0.66666667  0.33333333  0.56432598  1
  Ce  Ce1  1  0.33333330  0.66666667  0.43567398  1
  Ce  Ce2  1  0.33333330  0.66666667  0.06432600  1
  Ce  Ce3  1  0.66666667  0.33333333  0.93567396  1
  Si  Si4  1  0.00000000  0.00000000  0.49999998  1
  Si  Si5  1  0.00000000  0.00000000  0.00000000  1
  Si  Si6  1  0.17301798  0.34603600  0.74999997  1
  Si  Si7  1  0.17301796  0.82698200  0.74999997  1
  Si  Si8  1  0.65396397  0.82698200  0.74999997  1
  Si  Si9  1  0.82698199  0.65396400  0.24999999  1
  Si  Si10  1  0.82698201  0.17301800  0.24999999  1
  Si  Si11  1  0.34603600  0.17301800  0.24999999  1
