# generated using pymatgen
data_ZrTiMnNi3O2
_symmetry_space_group_name_H-M   'P 1'
_cell_length_a   5.28981304
_cell_length_b   5.28981304
_cell_length_c   5.81910086
_cell_angle_alpha   62.96584702
_cell_angle_beta   62.96584702
_cell_angle_gamma   60.00001144
_symmetry_Int_Tables_number   1
_chemical_formula_structural   ZrTiMnNi3O2
_chemical_formula_sum   'Zr1 Ti1 Mn1 Ni3 O2'
_cell_volume   120.03294312
_cell_formula_units_Z   1
loop_
 _symmetry_equiv_pos_site_id
 _symmetry_equiv_pos_as_xyz
  1  'x, y, z'
loop_
 _atom_site_type_symbol
 _atom_site_label
 _atom_site_symmetry_multiplicity
 _atom_site_fract_x
 _atom_site_fract_y
 _atom_site_fract_z
 _atom_site_occupancy
  Mn  Mn0  1  0.50000000  0.50000000  0.50000003  1
  Zr  Zr1  1  0.00000000  0.00000000  0.00000000  1
  Ti  Ti2  1  0.38467600  0.05919300  0.77080603  1
  Ni  Ni3  1  0.05919300  0.78532501  0.77080603  1
  Ni  Ni4  1  0.21467500  0.61532400  0.22919401  1
  Ni  Ni5  1  0.94080701  0.21467500  0.22919402  1
  O  O6  1  0.61532400  0.94080701  0.22919402  1
  O  O7  1  0.78532500  0.38467600  0.77080604  1
