# generated using pymatgen
data_Li6CoNi3SnSb2O5
_symmetry_space_group_name_H-M   'P 1'
_cell_length_a   7.27441597
_cell_length_b   7.29681063
_cell_length_c   7.31219006
_cell_angle_alpha   81.53614807
_cell_angle_beta   72.82585907
_cell_angle_gamma   60.10147476
_symmetry_Int_Tables_number   1
_chemical_formula_structural   Li6CoNi3SnSb2O5
_chemical_formula_sum   'Li6 Co1 Ni3 Sn1 Sb2 O5'
_cell_volume   321.47192186
_cell_formula_units_Z   1
loop_
 _symmetry_equiv_pos_site_id
 _symmetry_equiv_pos_as_xyz
  1  'x, y, z'
loop_
 _atom_site_type_symbol
 _atom_site_label
 _atom_site_symmetry_multiplicity
 _atom_site_fract_x
 _atom_site_fract_y
 _atom_site_fract_z
 _atom_site_occupancy
  Li  Li0  1  0.91172200  0.17655600  0.25000003  1
  Li  Li1  1  0.24403402  0.51193200  0.24999997  1
  Li  Li2  1  0.08827804  0.82344400  0.74999994  1
  Li  Li3  1  0.75596602  0.48806800  0.75000000  1
  Li  Li4  1  0.58019304  0.83961400  0.24999997  1
  Li  Li5  1  0.41980700  0.16038600  0.75000001  1
  O  O6  1  0.25963004  0.84661200  0.36738695  1
  Ni  Ni7  1  0.74037000  0.15338800  0.63261303  1
  O  O8  1  0.82152502  0.55515100  0.37639800  1
  Co  Co9  1  0.66334004  0.86364800  0.88988397  1
  Sb  Sb10  1  0.47301204  0.86364800  0.61011596  1
  Sb  Sb11  1  0.52698800  0.13635200  0.38988402  1
  Sn  Sn12  1  0.33666000  0.13635200  0.11011601  1
  Ni  Ni13  1  0.37667602  0.44484900  0.87639799  1
  Ni  Ni14  1  0.17847502  0.44484900  0.62360197  1
  O  O15  1  0.89375803  0.84661200  0.13261298  1
  O  O16  1  0.10624201  0.15338800  0.86738699  1
  O  O17  1  0.62332402  0.55515100  0.12360199  1
