# generated using pymatgen
data_Ca4Mg2NiO11
_symmetry_space_group_name_H-M   'P 1'
_cell_length_a   3.19368410
_cell_length_b   8.58416176
_cell_length_c   8.58518982
_cell_angle_alpha   119.99604034
_cell_angle_beta   90.00000000
_cell_angle_gamma   90.00000000
_symmetry_Int_Tables_number   1
_chemical_formula_structural   Ca4Mg2NiO11
_chemical_formula_sum   'Ca4 Mg2 Ni1 O11'
_cell_volume   203.83920164
_cell_formula_units_Z   1
loop_
 _symmetry_equiv_pos_site_id
 _symmetry_equiv_pos_as_xyz
  1  'x, y, z'
loop_
 _atom_site_type_symbol
 _atom_site_label
 _atom_site_symmetry_multiplicity
 _atom_site_fract_x
 _atom_site_fract_y
 _atom_site_fract_z
 _atom_site_occupancy
  Ca  Ca0  1  -0.00000000  0.58954602  0.00000000  1
  Ca  Ca1  1  0.00000000  0.41032701  0.41034999  1
  Ca  Ca2  1  0.00000000  0.99997703  0.58964999  1
  Ca  Ca3  1  -0.00000000  0.83040602  0.82968299  1
  Mg  Mg4  1  -0.00000000  0.00072400  0.17031700  1
  Mg  Mg5  1  -0.00000000  0.16957300  0.00000000  1
  Ni  Ni6  1  0.49999998  0.99973403  0.00000000  1
  O  O7  1  0.49999998  0.79728102  0.00000000  1
  O  O8  1  0.49999998  0.20283701  0.20278600  1
  O  O9  1  0.49999998  0.00005200  0.79721399  1
  O  O10  1  0.00000000  0.33348501  0.66694999  1
  O  O11  1  0.00000000  0.66653502  0.33305000  1
  O  O12  1  0.49999998  0.53850102  0.72329399  1
  O  O13  1  0.49999998  0.18478901  0.46168799  1
  O  O14  1  0.49999998  0.27659301  0.81536199  1
  O  O15  1  0.49999998  0.81520702  0.27670600  1
  O  O16  1  0.49999998  0.72310102  0.53831199  1
  O  O17  1  0.49999998  0.46123101  0.18463800  1
