# generated using pymatgen
data_LaCe7BiPd10Pb
_symmetry_space_group_name_H-M   'P 1'
_cell_length_a   4.50052977
_cell_length_b   11.51087379
_cell_length_c   11.51087379
_cell_angle_alpha   90.00000000
_cell_angle_beta   90.00000000
_cell_angle_gamma   90.00000000
_symmetry_Int_Tables_number   1
_chemical_formula_structural   LaCe7BiPd10Pb
_chemical_formula_sum   'La1 Ce7 Bi1 Pd10 Pb1'
_cell_volume   596.32116393
_cell_formula_units_Z   1
loop_
 _symmetry_equiv_pos_site_id
 _symmetry_equiv_pos_as_xyz
  1  'x, y, z'
loop_
 _atom_site_type_symbol
 _atom_site_label
 _atom_site_symmetry_multiplicity
 _atom_site_fract_x
 _atom_site_fract_y
 _atom_site_fract_z
 _atom_site_occupancy
  Ce  Ce0  1  1.00000005  0.70589801  0.29410201  1
  La  La1  1  1.00000005  0.29410201  0.70589801  1
  Ce  Ce2  1  0.50000003  0.79410201  0.79410201  1
  Ce  Ce3  1  0.50000003  0.20589800  0.20589800  1
  Ce  Ce4  1  1.00000005  0.39204801  0.39204801  1
  Ce  Ce5  1  0.00000000  0.60795201  0.60795201  1
  Bi  Bi6  1  0.50000003  0.89204802  0.10795200  1
  Ce  Ce7  1  0.50000003  0.10795200  0.89204802  1
  Ce  Ce8  1  0.00000000  0.33773601  0.00138800  1
  Pd  Pd9  1  0.00000000  0.66226401  0.99861202  1
  Pd  Pd10  1  0.50000003  0.50138801  0.16226400  1
  Pd  Pd11  1  0.50000003  0.83773601  0.49861201  1
  Pd  Pd12  1  0.50000003  0.49861201  0.83773601  1
  Pd  Pd13  1  0.50000003  0.16226400  0.50138801  1
  Pd  Pd14  1  0.00000000  0.00138800  0.33773601  1
  Pb  Pb15  1  0.00000000  0.99861202  0.66226401  1
  Pd  Pd16  1  1.00000005  0.08715100  0.08715100  1
  Pd  Pd17  1  1.00000005  0.91284902  0.91284902  1
  Pd  Pd18  1  0.50000003  0.58715101  0.41284901  1
  Pd  Pd19  1  0.50000003  0.41284901  0.58715101  1
