# generated using pymatgen
data_Mg
_symmetry_space_group_name_H-M   'P 1'
_cell_length_a   4.30020618
_cell_length_b   7.70522642
_cell_length_c   7.74134493
_cell_angle_alpha   78.34687805
_cell_angle_beta   73.87446594
_cell_angle_gamma   73.79679871
_symmetry_Int_Tables_number   1
_chemical_formula_structural   Mg
_chemical_formula_sum   Mg6
_cell_volume   234.45810098
_cell_formula_units_Z   6
loop_
 _symmetry_equiv_pos_site_id
 _symmetry_equiv_pos_as_xyz
  1  'x, y, z'
loop_
 _atom_site_type_symbol
 _atom_site_label
 _atom_site_symmetry_multiplicity
 _atom_site_fract_x
 _atom_site_fract_y
 _atom_site_fract_z
 _atom_site_occupancy
  Mg  Mg0  1  0.13056498  0.49549199  0.24337801  1
  Mg  Mg1  1  0.86943495  0.50450799  0.75662202  1
  Mg  Mg2  1  0.18290098  0.73052298  0.90367501  1
  Mg  Mg3  1  0.81709895  0.26947699  0.09632502  1
  Mg  Mg4  1  0.42725596  0.77909898  0.36638902  1
  Mg  Mg5  1  0.57274397  0.22090099  0.63361101  1
