# generated using pymatgen
data_LaCeZrO5
_symmetry_space_group_name_H-M   'P 1'
_cell_length_a   4.40612030
_cell_length_b   4.40818882
_cell_length_c   7.64079714
_cell_angle_alpha   73.25533295
_cell_angle_beta   73.25801086
_cell_angle_gamma   60.02038193
_symmetry_Int_Tables_number   1
_chemical_formula_structural   LaCeZrO5
_chemical_formula_sum   'La1 Ce1 Zr1 O5'
_cell_volume   121.22831488
_cell_formula_units_Z   1
loop_
 _symmetry_equiv_pos_site_id
 _symmetry_equiv_pos_as_xyz
  1  'x, y, z'
loop_
 _atom_site_type_symbol
 _atom_site_label
 _atom_site_symmetry_multiplicity
 _atom_site_fract_x
 _atom_site_fract_y
 _atom_site_fract_z
 _atom_site_occupancy
  Ce  Ce0  1  0.00005700  0.00008600  0.99984497  1
  La  La1  1  0.50005602  0.50008600  0.49984596  1
  Zr  Zr2  1  0.74994202  0.74991600  0.75015294  1
  O  O3  1  0.24994101  0.24991500  0.25015398  1
  O  O4  1  0.62500202  0.62499900  0.12499996  1
  O  O5  1  0.12500100  0.12499800  0.62500098  1
  O  O6  1  0.37500301  0.37500400  0.87498996  1
  O  O7  1  0.87499603  0.87499699  0.37500994  1
