# generated using pymatgen
data_Zr8TiNi(Sn4Bi)2
_symmetry_space_group_name_H-M   'P 1'
_cell_length_a   6.16366100
_cell_length_b   6.27226496
_cell_length_c   13.42495632
_cell_angle_alpha   90.00000000
_cell_angle_beta   90.00000000
_cell_angle_gamma   90.00000000
_symmetry_Int_Tables_number   1
_chemical_formula_structural   Zr8TiNi(Sn4Bi)2
_chemical_formula_sum   'Zr8 Ti1 Ni1 Sn8 Bi2'
_cell_volume   519.01035418
_cell_formula_units_Z   1
loop_
 _symmetry_equiv_pos_site_id
 _symmetry_equiv_pos_as_xyz
  1  'x, y, z'
loop_
 _atom_site_type_symbol
 _atom_site_label
 _atom_site_symmetry_multiplicity
 _atom_site_fract_x
 _atom_site_fract_y
 _atom_site_fract_z
 _atom_site_occupancy
  Ti  Ti0  1  0.75000000  0.99421501  0.30730199  1
  Zr  Zr1  1  0.25000000  0.00578500  0.69269798  1
  Zr  Zr2  1  0.25000000  0.50578500  0.30730199  1
  Zr  Zr3  1  0.75000000  0.49421500  0.69269798  1
  Zr  Zr4  1  0.50000000  0.75000001  0.91119698  1
  Zr  Zr5  1  0.00000000  0.25000000  0.08880300  1
  Zr  Zr6  1  0.50000000  0.25000000  0.08880300  1
  Zr  Zr7  1  0.00000000  0.75000001  0.91119698  1
  Sn  Sn8  1  0.75000000  0.90028801  0.06242700  1
  Zr  Zr9  1  0.25000000  0.09971200  0.93757298  1
  Sn  Sn10  1  0.25000000  0.59971200  0.06242700  1
  Sn  Sn11  1  0.75000000  0.40028800  0.93757298  1
  Bi  Bi12  1  0.75000000  0.49475600  0.21462599  1
  Sn  Sn13  1  0.25000000  0.50524400  0.78537398  1
  Ni  Ni14  1  0.25000000  0.00524400  0.21462599  1
  Sn  Sn15  1  0.75000000  0.99475601  0.78537398  1
  Bi  Bi16  1  0.50000000  0.75000001  0.50124899  1
  Sn  Sn17  1  0.00000000  0.25000000  0.49875099  1
  Sn  Sn18  1  0.50000000  0.25000000  0.49875099  1
  Sn  Sn19  1  0.00000000  0.75000001  0.50124899  1
