# generated using pymatgen
data_SrCaGa4
_symmetry_space_group_name_H-M   'P 1'
_cell_length_a   6.37765789
_cell_length_b   6.37765789
_cell_length_c   8.45975780
_cell_angle_alpha   90.00000000
_cell_angle_beta   90.00000000
_cell_angle_gamma   90.00000000
_symmetry_Int_Tables_number   1
_chemical_formula_structural   SrCaGa4
_chemical_formula_sum   'Sr2 Ca2 Ga8'
_cell_volume   344.09658943
_cell_formula_units_Z   2
loop_
 _symmetry_equiv_pos_site_id
 _symmetry_equiv_pos_as_xyz
  1  'x, y, z'
loop_
 _atom_site_type_symbol
 _atom_site_label
 _atom_site_symmetry_multiplicity
 _atom_site_fract_x
 _atom_site_fract_y
 _atom_site_fract_z
 _atom_site_occupancy
  Sr  Sr0  1  0.50000001  0.50000001  0.50000001  1
  Sr  Sr1  1  0.00000000  0.00000000  0.50000001  1
  Ca  Ca2  1  0.50000001  0.50000001  0.00000000  1
  Ca  Ca3  1  0.00000000  0.00000000  0.00000000  1
  Ga  Ga4  1  0.63664201  0.86335801  0.21010100  1
  Ga  Ga5  1  0.13664200  0.63664201  0.21010100  1
  Ga  Ga6  1  0.86335801  0.36335801  0.21010100  1
  Ga  Ga7  1  0.63664201  0.13664200  0.78989902  1
  Ga  Ga8  1  0.36335801  0.86335801  0.78989902  1
  Ga  Ga9  1  0.36335801  0.13664200  0.21010100  1
  Ga  Ga10  1  0.86335801  0.63664201  0.78989902  1
  Ga  Ga11  1  0.13664200  0.36335801  0.78989902  1
