# generated using pymatgen
data_Ce2Sn
_symmetry_space_group_name_H-M   'P 1'
_cell_length_a   6.88038778
_cell_length_b   6.88038778
_cell_length_c   9.26311684
_cell_angle_alpha   90.00000000
_cell_angle_beta   90.00000000
_cell_angle_gamma   90.00000000
_symmetry_Int_Tables_number   1
_chemical_formula_structural   Ce2Sn
_chemical_formula_sum   'Ce8 Sn4'
_cell_volume   438.51350600
_cell_formula_units_Z   4
loop_
 _symmetry_equiv_pos_site_id
 _symmetry_equiv_pos_as_xyz
  1  'x, y, z'
loop_
 _atom_site_type_symbol
 _atom_site_label
 _atom_site_symmetry_multiplicity
 _atom_site_fract_x
 _atom_site_fract_y
 _atom_site_fract_z
 _atom_site_occupancy
  Ce  Ce0  1  0.50000002  0.50000002  0.00000000  1
  Ce  Ce1  1  0.00000000  0.00000000  0.00000000  1
  Ce  Ce2  1  0.50000002  0.50000002  0.50000001  1
  Ce  Ce3  1  0.00000000  0.00000000  0.50000001  1
  Ce  Ce4  1  0.35420701  0.85420703  0.29760301  1
  Ce  Ce5  1  0.14579300  0.35420701  0.29760301  1
  Ce  Ce6  1  0.85420703  0.64579302  0.29760301  1
  Ce  Ce7  1  0.35420701  0.14579300  0.70239701  1
  Sn  Sn8  1  0.64579302  0.85420703  0.70239701  1
  Sn  Sn9  1  0.64579302  0.14579300  0.29760301  1
  Sn  Sn10  1  0.85420703  0.35420701  0.70239701  1
  Sn  Sn11  1  0.14579300  0.64579302  0.70239701  1
