# generated using pymatgen
data_SrLi6Mn(FeO)5
_symmetry_space_group_name_H-M   'P 1'
_cell_length_a   5.81684589
_cell_length_b   5.81684589
_cell_length_c   8.39176178
_cell_angle_alpha   90.00000000
_cell_angle_beta   90.00000000
_cell_angle_gamma   90.00000000
_symmetry_Int_Tables_number   1
_chemical_formula_structural   SrLi6Mn(FeO)5
_chemical_formula_sum   'Sr1 Li6 Mn1 Fe5 O5'
_cell_volume   283.94110177
_cell_formula_units_Z   1
loop_
 _symmetry_equiv_pos_site_id
 _symmetry_equiv_pos_as_xyz
  1  'x, y, z'
loop_
 _atom_site_type_symbol
 _atom_site_label
 _atom_site_symmetry_multiplicity
 _atom_site_fract_x
 _atom_site_fract_y
 _atom_site_fract_z
 _atom_site_occupancy
  Sr  Sr0  1  0.00000000  0.00000000  0.00000000  1
  Li  Li1  1  0.50000001  0.50000001  0.00000000  1
  Li  Li2  1  0.50000001  0.00000000  0.75890502  1
  Li  Li3  1  0.00000000  0.50000001  0.24109501  1
  Li  Li4  1  0.50000001  0.50000001  0.50000001  1
  Li  Li5  1  0.00000000  0.00000000  0.50000001  1
  Li  Li6  1  0.00000000  0.50000001  0.74370202  1
  Fe  Fe7  1  0.50000001  0.00000000  0.25629801  1
  Fe  Fe8  1  0.73014301  0.23014300  0.32826501  1
  Mn  Mn9  1  0.76985701  0.73014301  0.67173502  1
  Fe  Fe10  1  0.73014301  0.76985701  0.32826501  1
  Fe  Fe11  1  0.76985701  0.26985700  0.67173502  1
  Fe  Fe12  1  0.26985700  0.23014300  0.32826501  1
  O  O13  1  0.50000001  0.00000000  0.03359800  1
  O  O14  1  0.00000000  0.50000001  0.96640203  1
  O  O15  1  0.26985700  0.76985701  0.32826501  1
  O  O16  1  0.23014300  0.26985700  0.67173502  1
  O  O17  1  0.23014300  0.73014301  0.67173502  1
