# generated using pymatgen
data_Li2O
_symmetry_space_group_name_H-M   'P 1'
_cell_length_a   5.24706221
_cell_length_b   5.73791218
_cell_length_c   6.58585978
_cell_angle_alpha   115.82498169
_cell_angle_beta   113.47557831
_cell_angle_gamma   90.00000000
_symmetry_Int_Tables_number   1
_chemical_formula_structural   Li2O
_chemical_formula_sum   'Li4 O2'
_cell_volume   160.04941243
_cell_formula_units_Z   2
loop_
 _symmetry_equiv_pos_site_id
 _symmetry_equiv_pos_as_xyz
  1  'x, y, z'
loop_
 _atom_site_type_symbol
 _atom_site_label
 _atom_site_symmetry_multiplicity
 _atom_site_fract_x
 _atom_site_fract_y
 _atom_site_fract_z
 _atom_site_occupancy
  Li  Li0  1  0.74999997  0.00000000  -0.00000000  1
  Li  Li1  1  0.24999999  0.00000000  -0.00000000  1
  Li  Li2  1  0.39651799  0.70457798  0.79303604  1
  O  O3  1  0.60348198  0.29542199  0.20696401  1
  Li  Li4  1  0.89651796  0.08845800  0.79303602  1
  O  O5  1  0.10348200  0.91154198  0.20696402  1
