# generated using pymatgen
data_SrCa3Ni4O9
_symmetry_space_group_name_H-M   'P 1'
_cell_length_a   4.09626579
_cell_length_b   4.09626579
_cell_length_c   14.97034264
_cell_angle_alpha   97.82808685
_cell_angle_beta   97.82808685
_cell_angle_gamma   90.25604248
_symmetry_Int_Tables_number   1
_chemical_formula_structural   SrCa3Ni4O9
_chemical_formula_sum   'Sr1 Ca3 Ni4 O9'
_cell_volume   246.46561850
_cell_formula_units_Z   1
loop_
 _symmetry_equiv_pos_site_id
 _symmetry_equiv_pos_as_xyz
  1  'x, y, z'
loop_
 _atom_site_type_symbol
 _atom_site_label
 _atom_site_symmetry_multiplicity
 _atom_site_fract_x
 _atom_site_fract_y
 _atom_site_fract_z
 _atom_site_occupancy
  Ca  Ca0  1  0.92467388  0.94003996  0.86471398  1
  Ca  Ca1  1  0.79339590  0.80400697  0.59740298  1
  Ca  Ca2  1  0.05995999  0.07532600  0.13528600  1
  Sr  Sr3  1  0.19599297  0.20660399  0.40259700  1
  Ni  Ni4  1  0.47593494  0.52406498  1.00000000  1
  Ni  Ni5  1  0.61475992  0.65990797  0.27466798  1
  Ni  Ni6  1  0.34009195  0.38523998  0.72533200  1
  Ni  Ni7  1  0.30619896  0.28655199  0.59275100  1
  O  O8  1  0.57671193  0.55944898  0.13616098  1
  O  O9  1  0.50549790  0.97797096  0.99999999  1
  O  O10  1  0.02202896  0.49450198  1.00000001  1
  O  O11  1  0.63884196  0.11829300  0.27395899  1
  O  O12  1  0.15566594  0.63511697  0.27395899  1
  O  O13  1  0.36488291  0.84433397  0.72604099  1
  O  O14  1  0.88170693  0.36115799  0.72604099  1
  O  O15  1  0.71344791  0.69380097  0.40724898  1
  O  O16  1  0.44055095  0.42328798  0.86383900  1
