# generated using pymatgen
data_Hf5TiNi10
_symmetry_space_group_name_H-M   'P 1'
_cell_length_a   5.19797611
_cell_length_b   7.64919758
_cell_length_c   7.64919758
_cell_angle_alpha   83.37068176
_cell_angle_beta   70.13697815
_cell_angle_gamma   70.13697815
_symmetry_Int_Tables_number   1
_chemical_formula_structural   Hf5TiNi10
_chemical_formula_sum   'Hf5 Ti1 Ni10'
_cell_volume   269.02377588
_cell_formula_units_Z   1
loop_
 _symmetry_equiv_pos_site_id
 _symmetry_equiv_pos_as_xyz
  1  'x, y, z'
loop_
 _atom_site_type_symbol
 _atom_site_label
 _atom_site_symmetry_multiplicity
 _atom_site_fract_x
 _atom_site_fract_y
 _atom_site_fract_z
 _atom_site_occupancy
  Ti  Ti0  1  0.57439899  0.14914200  0.70206000  1
  Hf  Hf1  1  0.42560100  0.85085799  0.29794000  1
  Hf  Hf2  1  0.27645800  0.29794100  0.14914200  1
  Hf  Hf3  1  0.72354199  0.70205899  0.85085800  1
  Hf  Hf4  1  0.22354101  0.85085799  0.70205999  1
  Hf  Hf5  1  0.07440001  0.70205899  0.14914200  1
  Ni  Ni6  1  0.92559998  0.29794100  0.85085800  1
  Ni  Ni7  1  0.77645898  0.14914200  0.29794000  1
  Ni  Ni8  1  0.25000000  0.49999999  0.50000000  1
  Ni  Ni9  1  0.74999999  0.49999999  0.50000000  1
  Ni  Ni10  1  0.66700899  0.49999999  0.16598200  1
  Ni  Ni11  1  0.16701000  0.16598100  0.50000000  1
  Ni  Ni12  1  0.83298999  0.83401899  0.50000000  1
  Ni  Ni13  1  0.33299100  0.49999999  0.83401799  1
  Ni  Ni14  1  0.74999998  0.00000000  1.00000000  1
  Ni  Ni15  1  0.24999999  0.00000000  0.00000000  1
