# generated using pymatgen
data_FeCuC4
_symmetry_space_group_name_H-M   'P 1'
_cell_length_a   3.11033511
_cell_length_b   3.11033511
_cell_length_c   5.37630701
_cell_angle_alpha   73.18615723
_cell_angle_beta   73.18615723
_cell_angle_gamma   60.00001907
_symmetry_Int_Tables_number   1
_chemical_formula_structural   FeCuC4
_chemical_formula_sum   'Fe1 Cu1 C4'
_cell_volume   42.45630250
_cell_formula_units_Z   1
loop_
 _symmetry_equiv_pos_site_id
 _symmetry_equiv_pos_as_xyz
  1  'x, y, z'
loop_
 _atom_site_type_symbol
 _atom_site_label
 _atom_site_symmetry_multiplicity
 _atom_site_fract_x
 _atom_site_fract_y
 _atom_site_fract_z
 _atom_site_occupancy
  Cu  Cu0  1  0.00000000  0.00000000  0.00000000  1
  Fe  Fe1  1  0.50000002  0.50000000  0.49999998  1
  C  C2  1  0.61930703  0.61930700  0.14207898  1
  C  C3  1  0.12980001  0.12980000  0.61059999  1
  C  C4  1  0.87020004  0.87020000  0.38939997  1
  C  C5  1  0.38069302  0.38069300  0.85792099  1
