# generated using pymatgen
data_Li2Mg2GaNi
_symmetry_space_group_name_H-M   'P 1'
_cell_length_a   4.32463980
_cell_length_b   5.06503916
_cell_length_c   5.31871319
_cell_angle_alpha   90.00000000
_cell_angle_beta   90.00000000
_cell_angle_gamma   115.27167511
_symmetry_Int_Tables_number   1
_chemical_formula_structural   Li2Mg2GaNi
_chemical_formula_sum   'Li2 Mg2 Ga1 Ni1'
_cell_volume   105.35346624
_cell_formula_units_Z   1
loop_
 _symmetry_equiv_pos_site_id
 _symmetry_equiv_pos_as_xyz
  1  'x, y, z'
loop_
 _atom_site_type_symbol
 _atom_site_label
 _atom_site_symmetry_multiplicity
 _atom_site_fract_x
 _atom_site_fract_y
 _atom_site_fract_z
 _atom_site_occupancy
  Li  Li0  1  0.29385105  0.58770199  0.74999997  1
  Li  Li1  1  0.70614906  0.41229800  0.24999999  1
  Mg  Mg2  1  0.00000000  0.00000000  0.49999998  1
  Mg  Mg3  1  0.00000000  0.00000000  0.00000000  1
  Ni  Ni4  1  0.59766904  0.19533800  0.74999997  1
  Ga  Ga5  1  0.40233106  0.80466199  0.24999999  1
