# generated using pymatgen
data_Li5MnO11
_symmetry_space_group_name_H-M   'P 1'
_cell_length_a   5.00424004
_cell_length_b   5.29165316
_cell_length_c   8.53425503
_cell_angle_alpha   90.00000000
_cell_angle_beta   90.00000000
_cell_angle_gamma   91.02101898
_symmetry_Int_Tables_number   1
_chemical_formula_structural   Li5MnO11
_chemical_formula_sum   'Li5 Mn1 O11'
_cell_volume   225.95718720
_cell_formula_units_Z   1
loop_
 _symmetry_equiv_pos_site_id
 _symmetry_equiv_pos_as_xyz
  1  'x, y, z'
loop_
 _atom_site_type_symbol
 _atom_site_label
 _atom_site_symmetry_multiplicity
 _atom_site_fract_x
 _atom_site_fract_y
 _atom_site_fract_z
 _atom_site_occupancy
  Li  Li0  1  0.50000000  0.50000000  0.19857000  1
  Li  Li1  1  0.00000000  0.00000000  0.10182000  1
  Li  Li2  1  0.50000000  1.00000000  0.42256200  1
  Li  Li3  1  0.50000000  0.50000000  0.60497900  1
  Mn  Mn4  1  0.00000000  0.50000000  0.91302300  1
  O  O5  1  0.73257500  0.87769200  0.25977000  1
  O  O6  1  0.70965600  0.81653100  0.58405200  1
  Li  Li7  1  0.80168400  0.80436400  0.93280200  1
  O  O8  1  0.29789300  0.67690700  0.43172100  1
  O  O9  1  0.21466700  0.67653200  0.07550300  1
  O  O10  1  0.24900200  0.63810700  0.75281700  1
  O  O11  1  0.75099800  0.36189300  0.75281700  1
  O  O12  1  0.78533300  0.32346800  0.07550300  1
  O  O13  1  0.70210700  0.32309300  0.43172100  1
  O  O14  1  0.19831600  0.19563600  0.93280200  1
  O  O15  1  0.29034400  0.18346900  0.58405200  1
  O  O16  1  0.26742500  0.12230800  0.25977000  1
