# generated using pymatgen
data_AgS
_symmetry_space_group_name_H-M   'P 1'
_cell_length_a   6.02101612
_cell_length_b   6.02101612
_cell_length_c   7.07991791
_cell_angle_alpha   115.16445923
_cell_angle_beta   115.16445923
_cell_angle_gamma   90.00000000
_symmetry_Int_Tables_number   1
_chemical_formula_structural   AgS
_chemical_formula_sum   'Ag4 S4'
_cell_volume   205.07240998
_cell_formula_units_Z   4
loop_
 _symmetry_equiv_pos_site_id
 _symmetry_equiv_pos_as_xyz
  1  'x, y, z'
loop_
 _atom_site_type_symbol
 _atom_site_label
 _atom_site_symmetry_multiplicity
 _atom_site_fract_x
 _atom_site_fract_y
 _atom_site_fract_z
 _atom_site_occupancy
  Ag  Ag0  1  0.75000000  0.25000000  0.50000004  1
  Ag  Ag1  1  0.00000000  0.00000000  0.00000000  1
  Ag  Ag2  1  0.50000001  0.50000000  0.00000003  1
  Ag  Ag3  1  0.25000002  0.75000000  0.50000004  1
  S  S4  1  0.87500002  0.85158400  0.25000006  1
  S  S5  1  0.60158400  0.12500000  0.75000003  1
  S  S6  1  0.37500001  0.39841600  0.25000003  1
  S  S7  1  0.14841602  0.62500000  0.75000004  1
