# generated using pymatgen
data_TiNiP
_symmetry_space_group_name_H-M   'P 1'
_cell_length_a   3.73735404
_cell_length_b   6.33682394
_cell_length_c   7.09441090
_cell_angle_alpha   90.00000000
_cell_angle_beta   90.00000000
_cell_angle_gamma   90.00000000
_symmetry_Int_Tables_number   1
_chemical_formula_structural   TiNiP
_chemical_formula_sum   'Ti4 Ni4 P4'
_cell_volume   168.01661085
_cell_formula_units_Z   4
loop_
 _symmetry_equiv_pos_site_id
 _symmetry_equiv_pos_as_xyz
  1  'x, y, z'
loop_
 _atom_site_type_symbol
 _atom_site_label
 _atom_site_symmetry_multiplicity
 _atom_site_fract_x
 _atom_site_fract_y
 _atom_site_fract_z
 _atom_site_occupancy
  Ti  Ti0  1  0.74999999  0.47878800  0.81566601  1
  Ti  Ti1  1  0.25000000  0.02121200  0.31566600  1
  Ti  Ti2  1  0.74999999  0.97878801  0.68433401  1
  Ti  Ti3  1  0.25000000  0.52121200  0.18433400  1
  Ni  Ni4  1  0.25000000  0.64019501  0.56084901  1
  Ni  Ni5  1  0.25000000  0.14019500  0.93915101  1
  Ni  Ni6  1  0.74999999  0.85980501  0.06084900  1
  Ni  Ni7  1  0.74999999  0.35980500  0.43915101  1
  P  P8  1  0.25000000  0.76617801  0.88111401  1
  P  P9  1  0.25000000  0.26617800  0.61888601  1
  P  P10  1  0.74999999  0.23382200  0.11888600  1
  P  P11  1  0.74999999  0.73382201  0.38111401  1
