# generated using pymatgen
data_CePd2
_symmetry_space_group_name_H-M   'P 1'
_cell_length_a   4.49420881
_cell_length_b   7.14930010
_cell_length_c   7.18654585
_cell_angle_alpha   90.00000000
_cell_angle_beta   90.00000000
_cell_angle_gamma   90.00000000
_symmetry_Int_Tables_number   1
_chemical_formula_structural   CePd2
_chemical_formula_sum   'Ce4 Pd8'
_cell_volume   230.90693415
_cell_formula_units_Z   4
loop_
 _symmetry_equiv_pos_site_id
 _symmetry_equiv_pos_as_xyz
  1  'x, y, z'
loop_
 _atom_site_type_symbol
 _atom_site_label
 _atom_site_symmetry_multiplicity
 _atom_site_fract_x
 _atom_site_fract_y
 _atom_site_fract_z
 _atom_site_occupancy
  Ce  Ce0  1  0.25000001  0.52042299  0.69003501  1
  Ce  Ce1  1  0.75000003  0.47957699  0.30996501  1
  Ce  Ce2  1  0.25000001  0.02042300  0.80996502  1
  Ce  Ce3  1  0.75000003  0.97957699  0.19003500  1
  Pd  Pd4  1  0.25000001  0.69942499  0.10691000  1
  Pd  Pd5  1  0.75000003  0.30057500  0.89309002  1
  Pd  Pd6  1  0.25000001  0.19942500  0.39309001  1
  Pd  Pd7  1  0.75000003  0.80057499  0.60691001  1
  Pd  Pd8  1  0.75000003  0.15256800  0.56428301  1
  Pd  Pd9  1  0.25000001  0.84743199  0.43571701  1
  Pd  Pd10  1  0.75000003  0.65256799  0.93571702  1
  Pd  Pd11  1  0.25000001  0.34743200  0.06428300  1
