# generated using pymatgen
data_Li2O2
_symmetry_space_group_name_H-M   'P 1'
_cell_length_a   5.40709019
_cell_length_b   5.68554878
_cell_length_c   7.22865248
_cell_angle_alpha   90.00000000
_cell_angle_beta   90.02065277
_cell_angle_gamma   90.00000000
_symmetry_Int_Tables_number   1
_chemical_formula_structural   Li2O2
_chemical_formula_sum   'Li8 O8'
_cell_volume   222.22520811
_cell_formula_units_Z   4
loop_
 _symmetry_equiv_pos_site_id
 _symmetry_equiv_pos_as_xyz
  1  'x, y, z'
loop_
 _atom_site_type_symbol
 _atom_site_label
 _atom_site_symmetry_multiplicity
 _atom_site_fract_x
 _atom_site_fract_y
 _atom_site_fract_z
 _atom_site_occupancy
  Li  Li0  1  0.98853897  0.32290601  0.25095796  1
  Li  Li1  1  0.49284298  0.17793501  0.00718898  1
  Li  Li2  1  0.99284297  0.82206503  0.50718896  1
  Li  Li3  1  0.48853898  0.67709403  0.75095798  1
  Li  Li4  1  0.50217998  0.18616801  0.49960898  1
  Li  Li5  1  0.00218000  0.81383203  0.99960900  1
  Li  Li6  1  0.50680598  0.68500203  0.25363098  1
  Li  Li7  1  0.00680600  0.31499801  0.75363100  1
  O  O8  1  0.92010597  0.15342201  0.95592896  1
  O  O9  1  0.86572897  0.20541601  0.54842497  1
  O  O10  1  0.83448897  0.70742903  0.22777397  1
  O  O11  1  0.92340997  0.61803302  0.77968396  1
  O  O12  1  0.42340999  0.38196701  0.27968398  1
  O  O13  1  0.42010599  0.84657803  0.45592898  1
  O  O14  1  0.33448899  0.29257101  0.72777399  1
  O  O15  1  0.36572899  0.79458403  0.04842499  1
