# generated using pymatgen
data_KTe3O8
_symmetry_space_group_name_H-M   'P 1'
_cell_length_a   5.40512228
_cell_length_b   5.40512228
_cell_length_c   7.55108786
_cell_angle_alpha   69.56999969
_cell_angle_beta   69.56999969
_cell_angle_gamma   70.17541504
_symmetry_Int_Tables_number   1
_chemical_formula_structural   KTe3O8
_chemical_formula_sum   'K1 Te3 O8'
_cell_volume   187.70310082
_cell_formula_units_Z   1
loop_
 _symmetry_equiv_pos_site_id
 _symmetry_equiv_pos_as_xyz
  1  'x, y, z'
loop_
 _atom_site_type_symbol
 _atom_site_label
 _atom_site_symmetry_multiplicity
 _atom_site_fract_x
 _atom_site_fract_y
 _atom_site_fract_z
 _atom_site_occupancy
  K  K0  1  0.00000000  0.00000000  0.49999999  1
  Te  Te1  1  0.00000000  0.00000000  0.00000000  1
  Te  Te2  1  0.07352693  0.92647301  0.25000005  1
  Te  Te3  1  0.92647299  0.07352700  0.75000003  1
  O  O4  1  0.75743594  0.79547301  0.11283308  1
  O  O5  1  0.20452698  0.24256400  0.38716701  1
  O  O6  1  0.71041198  0.27127200  0.44962304  1
  O  O7  1  0.72872798  0.28958800  0.05037705  1
  O  O8  1  0.28958795  0.72872801  0.55037704  1
  O  O9  1  0.27127195  0.71041201  0.94962303  1
  O  O10  1  0.79547294  0.75743601  0.61283307  1
  O  O11  1  0.24256398  0.20452700  0.88716700  1
