# generated using pymatgen
data_Li4Mg
_symmetry_space_group_name_H-M   'P 1'
_cell_length_a   4.10081196
_cell_length_b   5.87414598
_cell_length_c   7.29942894
_cell_angle_alpha   113.72644043
_cell_angle_beta   106.31389618
_cell_angle_gamma   90.00000000
_symmetry_Int_Tables_number   1
_chemical_formula_structural   Li4Mg
_chemical_formula_sum   'Li4 Mg1'
_cell_volume   153.20740398
_cell_formula_units_Z   1
loop_
 _symmetry_equiv_pos_site_id
 _symmetry_equiv_pos_as_xyz
  1  'x, y, z'
loop_
 _atom_site_type_symbol
 _atom_site_label
 _atom_site_symmetry_multiplicity
 _atom_site_fract_x
 _atom_site_fract_y
 _atom_site_fract_z
 _atom_site_occupancy
  Li  Li0  1  0.33505000  0.33505001  0.67010002  1
  Li  Li1  1  0.66495001  0.66495002  0.32990002  1
  Li  Li2  1  0.00000001  0.50000001  0.00000002  1
  Li  Li3  1  0.32803701  0.82803702  0.65607404  1
  Mg  Mg4  1  0.67196300  0.17196300  0.34392600  1
