# generated using pymatgen
data_SrCa3(AsO3)4
_symmetry_space_group_name_H-M   'P 1'
_cell_length_a   6.18054247
_cell_length_b   7.60031986
_cell_length_c   7.60031986
_cell_angle_alpha   87.78291321
_cell_angle_beta   78.51114655
_cell_angle_gamma   78.51114655
_symmetry_Int_Tables_number   1
_chemical_formula_structural   SrCa3(AsO3)4
_chemical_formula_sum   'Sr1 Ca3 As4 O12'
_cell_volume   342.85452192
_cell_formula_units_Z   1
loop_
 _symmetry_equiv_pos_site_id
 _symmetry_equiv_pos_as_xyz
  1  'x, y, z'
loop_
 _atom_site_type_symbol
 _atom_site_label
 _atom_site_symmetry_multiplicity
 _atom_site_fract_x
 _atom_site_fract_y
 _atom_site_fract_z
 _atom_site_occupancy
  Ca  Ca0  1  0.24999998  0.32639001  0.67361003  1
  Ca  Ca1  1  0.75000002  0.09228000  0.90772000  1
  Sr  Sr2  1  0.74999997  0.67361002  0.32639003  1
  Ca  Ca3  1  0.24999994  0.90772003  0.09228006  1
  As  As4  1  0.25405998  0.37557001  0.20181002  1
  As  As5  1  0.24593995  0.79819003  0.62443007  1
  As  As6  1  0.75406001  0.20181001  0.37557000  1
  As  As7  1  0.74593998  0.62443002  0.79819004  1
  O  O8  1  -0.00000005  0.67583002  0.63313007  1
  O  O9  1  0.33371999  0.23311001  0.01205001  1
  O  O10  1  0.66627997  0.76689003  0.98795006  1
  O  O11  1  0.33367995  0.86565003  0.40567006  1
  O  O12  1  0.16627994  0.98795003  0.76689009  1
  O  O13  1  0.49999997  0.63313002  0.67583005  1
  O  O14  1  0.83372002  0.01205000  0.23310998  1
  O  O15  1  -0.00000002  0.32417001  0.36687003  1
  O  O16  1  0.49999999  0.36687001  0.32417002  1
  O  O17  1  0.16631996  0.59433002  0.13435004  1
  O  O18  1  0.66632001  0.13435000  0.59433000  1
  O  O19  1  0.83368000  0.40567001  0.86565002  1
