# generated using pymatgen
data_Li
_symmetry_space_group_name_H-M   'P 1'
_cell_length_a   3.98034906
_cell_length_b   8.70482922
_cell_length_c   10.57462120
_cell_angle_alpha   113.42046356
_cell_angle_beta   90.00000000
_cell_angle_gamma   90.00000000
_symmetry_Int_Tables_number   1
_chemical_formula_structural   Li
_chemical_formula_sum   Li12
_cell_volume   336.20615568
_cell_formula_units_Z   12
loop_
 _symmetry_equiv_pos_site_id
 _symmetry_equiv_pos_as_xyz
  1  'x, y, z'
loop_
 _atom_site_type_symbol
 _atom_site_label
 _atom_site_symmetry_multiplicity
 _atom_site_fract_x
 _atom_site_fract_y
 _atom_site_fract_z
 _atom_site_occupancy
  Li  Li0  1  0.74999999  0.28888600  0.82225700  1
  Li  Li1  1  0.25000000  0.71111399  0.17774302  1
  Li  Li2  1  0.74999999  0.71650099  0.71636102  1
  Li  Li3  1  0.25000000  0.28349900  0.28363901  1
  Li  Li4  1  0.74999999  0.92027699  0.39951303  1
  Li  Li5  1  0.25000000  0.07972300  0.60048700  1
  Li  Li6  1  0.25000000  0.07791000  0.84572299  1
  Li  Li7  1  0.74999999  0.92208999  0.15427703  1
  Li  Li8  1  0.74999999  0.25089400  0.55621100  1
  Li  Li9  1  0.25000000  0.74910599  0.44378902  1
  Li  Li10  1  0.25000000  0.54390000  0.88180001  1
  Li  Li11  1  0.74999999  0.45610000  0.11820001  1
