# generated using pymatgen
data_LiTiCrFeO6
_symmetry_space_group_name_H-M   'P 1'
_cell_length_a   5.13127136
_cell_length_b   5.13127136
_cell_length_c   5.53269291
_cell_angle_alpha   62.37241745
_cell_angle_beta   62.37241745
_cell_angle_gamma   60.00000763
_symmetry_Int_Tables_number   1
_chemical_formula_structural   LiTiCrFeO6
_chemical_formula_sum   'Li1 Ti1 Cr1 Fe1 O6'
_cell_volume   106.54860261
_cell_formula_units_Z   1
loop_
 _symmetry_equiv_pos_site_id
 _symmetry_equiv_pos_as_xyz
  1  'x, y, z'
loop_
 _atom_site_type_symbol
 _atom_site_label
 _atom_site_symmetry_multiplicity
 _atom_site_fract_x
 _atom_site_fract_y
 _atom_site_fract_z
 _atom_site_occupancy
  Li  Li0  1  0.80568799  0.80568800  0.58293602  1
  Ti  Ti1  1  0.30568800  0.30568800  0.08293601  1
  Cr  Cr2  1  0.51055399  0.51055400  0.46833802  1
  Fe  Fe3  1  0.01055400  0.01055400  0.96833800  1
  O  O4  1  0.40666599  0.73226400  0.74677702  1
  O  O5  1  0.90666599  0.61429300  0.24677702  1
  O  O6  1  0.23226399  0.90666600  0.24677702  1
  O  O7  1  0.73226400  0.11429300  0.74677701  1
  O  O8  1  0.11429300  0.40666600  0.74677701  1
  O  O9  1  0.61429300  0.23226400  0.24677701  1
