# generated using pymatgen
data_CeSi3Ge
_symmetry_space_group_name_H-M   'P 1'
_cell_length_a   4.51514196
_cell_length_b   4.51514196
_cell_length_c   6.04851294
_cell_angle_alpha   111.91582489
_cell_angle_beta   111.91582489
_cell_angle_gamma   90.00000000
_symmetry_Int_Tables_number   1
_chemical_formula_structural   CeSi3Ge
_chemical_formula_sum   'Ce1 Si3 Ge1'
_cell_volume   104.73041269
_cell_formula_units_Z   1
loop_
 _symmetry_equiv_pos_site_id
 _symmetry_equiv_pos_as_xyz
  1  'x, y, z'
loop_
 _atom_site_type_symbol
 _atom_site_label
 _atom_site_symmetry_multiplicity
 _atom_site_fract_x
 _atom_site_fract_y
 _atom_site_fract_z
 _atom_site_occupancy
  Ce  Ce0  1  0.00000000  0.00000000  0.00000000  1
  Si  Si1  1  0.75000004  0.25000001  0.50000006  1
  Ge  Ge2  1  0.25000006  0.75000003  0.50000007  1
  Si  Si3  1  0.62095806  0.62095803  0.24191608  1
  Si  Si4  1  0.37904204  0.37904202  0.75808405  1
