# generated using pymatgen
data_TaNb2VO14
_symmetry_space_group_name_H-M   'P 1'
_cell_length_a   7.33644009
_cell_length_b   7.33644009
_cell_length_c   7.33644009
_cell_angle_alpha   88.64192963
_cell_angle_beta   60.28291321
_cell_angle_gamma   118.72340393
_symmetry_Int_Tables_number   1
_chemical_formula_structural   TaNb2VO14
_chemical_formula_sum   'Ta1 Nb2 V1 O14'
_cell_volume   282.39571849
_cell_formula_units_Z   1
loop_
 _symmetry_equiv_pos_site_id
 _symmetry_equiv_pos_as_xyz
  1  'x, y, z'
loop_
 _atom_site_type_symbol
 _atom_site_label
 _atom_site_symmetry_multiplicity
 _atom_site_fract_x
 _atom_site_fract_y
 _atom_site_fract_z
 _atom_site_occupancy
  Ta  Ta0  1  0.00062901  0.51582901  0.98479999  1
  Nb  Nb1  1  0.50062902  0.98542902  0.01519996  1
  Nb  Nb2  1  0.15761100  0.05370700  0.60390501  1
  V  V3  1  0.65761101  0.76151502  0.39609598  1
  O  O4  1  0.48691801  0.48691801  -0.00000002  1
  O  O5  1  0.98691801  0.48691801  0.50000000  1
  O  O6  1  0.25840601  0.45215401  0.93802999  1
  O  O7  1  0.89018401  0.45215401  0.30625200  1
  O  O8  1  0.25676901  0.44039701  0.31637199  1
  O  O9  1  0.75840601  0.19643600  0.69374702  1
  O  O10  1  0.39018400  0.19643600  0.06196900  1
  O  O11  1  0.62597301  0.81333102  0.94187198  1
  O  O12  1  0.25520301  0.81333102  0.31264196  1
  O  O13  1  0.75676901  0.57314101  0.68362800  1
  O  O14  1  0.12597301  0.56784501  0.68735798  1
  O  O15  1  0.75520301  0.56784501  0.05812799  1
  O  O16  1  0.25830801  0.82690202  0.93140697  1
  O  O17  1  0.75830801  0.18971400  0.06859401  1
