# generated using pymatgen
data_Ba4LaEu(NiO3)2
_symmetry_space_group_name_H-M   'P 1'
_cell_length_a   5.79815292
_cell_length_b   8.15491009
_cell_length_c   8.15491009
_cell_angle_alpha   120.00000000
_cell_angle_beta   90.00000000
_cell_angle_gamma   90.00000000
_symmetry_Int_Tables_number   1
_chemical_formula_structural   Ba4LaEu(NiO3)2
_chemical_formula_sum   'Ba4 La1 Eu1 Ni2 O6'
_cell_volume   333.93247114
_cell_formula_units_Z   1
loop_
 _symmetry_equiv_pos_site_id
 _symmetry_equiv_pos_as_xyz
  1  'x, y, z'
loop_
 _atom_site_type_symbol
 _atom_site_label
 _atom_site_symmetry_multiplicity
 _atom_site_fract_x
 _atom_site_fract_y
 _atom_site_fract_z
 _atom_site_occupancy
  Ba  Ba0  1  0.75000001  0.06582600  0.70405297  1
  Ba  Ba1  1  0.75000001  0.29594599  0.36177198  1
  Ba  Ba2  1  0.75000001  0.63822699  0.93417296  1
  Ba  Ba3  1  0.25000000  0.93417398  0.29594697  1
  La  La4  1  0.25000000  0.70405399  0.63822797  1
  Eu  Eu5  1  0.25000000  0.36177299  0.06582699  1
  Ni  Ni6  1  0.25000000  0.33333333  0.66666664  1
  Ni  Ni7  1  0.75000001  0.66666665  0.33333331  1
  O  O8  1  0.25000000  0.10960700  0.69108897  1
  O  O9  1  0.25000000  0.30890999  0.41851698  1
  O  O10  1  0.25000000  0.58148199  0.89039196  1
  O  O11  1  0.75000001  0.89039298  0.30891097  1
  O  O12  1  0.75000001  0.69108999  0.58148297  1
  O  O13  1  0.75000001  0.41851799  0.10960799  1
