# generated using pymatgen
data_LiMn2Ni15
_symmetry_space_group_name_H-M   'P 1'
_cell_length_a   4.68994093
_cell_length_b   4.71008873
_cell_length_c   13.01680660
_cell_angle_alpha   90.00000000
_cell_angle_beta   90.00000000
_cell_angle_gamma   119.67078400
_symmetry_Int_Tables_number   1
_chemical_formula_structural   LiMn2Ni15
_chemical_formula_sum   'Li1 Mn2 Ni15'
_cell_volume   249.84043963
_cell_formula_units_Z   1
loop_
 _symmetry_equiv_pos_site_id
 _symmetry_equiv_pos_as_xyz
  1  'x, y, z'
loop_
 _atom_site_type_symbol
 _atom_site_label
 _atom_site_symmetry_multiplicity
 _atom_site_fract_x
 _atom_site_fract_y
 _atom_site_fract_z
 _atom_site_occupancy
  Mn  Mn0  1  0.49999998  0.50000001  0.91801903  1
  Li  Li1  1  0.49999998  0.50000001  0.41463101  1
  Mn  Mn2  1  -0.00000002  0.50000001  0.75055202  1
  Ni  Ni3  1  -0.00000002  0.50000001  0.25041301  1
  Ni  Ni4  1  0.50000001  0.00000000  0.58193002  1
  Ni  Ni5  1  0.49999996  1.00000001  0.08441600  1
  Ni  Ni6  1  0.16553296  0.84426401  0.92100603  1
  Ni  Ni7  1  0.16381896  0.83707501  0.41563401  1
  Ni  Ni8  1  0.67629497  0.84328401  0.74688602  1
  Ni  Ni9  1  0.67900197  0.84590801  0.24684501  1
  Ni  Ni10  1  0.15793299  0.31561500  0.58212902  1
  Ni  Ni11  1  0.15502699  0.32268400  0.08751900  1
  Ni  Ni12  1  0.83446701  0.15573600  0.92100603  1
  Ni  Ni13  1  0.83618101  0.16292500  0.41563401  1
  Ni  Ni14  1  0.32370500  0.15671600  0.74688602  1
  Ni  Ni15  1  0.32099800  0.15409200  0.24684501  1
  Ni  Ni16  1  0.84206698  0.68438501  0.58212902  1
  Ni  Ni17  1  0.84497298  0.67731601  0.08751900  1
