# generated using pymatgen
data_Ce2Pb
_symmetry_space_group_name_H-M   'P 1'
_cell_length_a   4.71644497
_cell_length_b   8.18273163
_cell_length_c   8.18273258
_cell_angle_alpha   120.00000000
_cell_angle_beta   90.00000000
_cell_angle_gamma   90.00000000
_symmetry_Int_Tables_number   1
_chemical_formula_structural   Ce2Pb
_chemical_formula_sum   'Ce6 Pb3'
_cell_volume   273.49038919
_cell_formula_units_Z   3
loop_
 _symmetry_equiv_pos_site_id
 _symmetry_equiv_pos_as_xyz
  1  'x, y, z'
loop_
 _atom_site_type_symbol
 _atom_site_label
 _atom_site_symmetry_multiplicity
 _atom_site_fract_x
 _atom_site_fract_y
 _atom_site_fract_z
 _atom_site_occupancy
  Ce  Ce0  1  0.50000000  0.00000000  -0.00000000  1
  Ce  Ce1  1  1.00000001  0.33333335  0.66666664  1
  Ce  Ce2  1  1.00000001  0.66666670  0.33333333  1
  Ce  Ce3  1  -0.00000000  0.00000000  0.25738099  1
  Ce  Ce4  1  0.50000000  0.40686002  0.40685999  1
  Ce  Ce5  1  0.50000000  0.59314003  0.99999996  1
  Pb  Pb6  1  1.00000001  0.74261904  0.74261898  1
  Pb  Pb7  1  0.50000000  0.00000000  0.59313997  1
  Pb  Pb8  1  1.00000001  0.25738101  0.99999996  1
