# generated using pymatgen
data_ErU2(AlGe)3
_symmetry_space_group_name_H-M   'P 1'
_cell_length_a   3.78307390
_cell_length_b   6.70375395
_cell_length_c   6.70375443
_cell_angle_alpha   120.00000000
_cell_angle_beta   90.00000000
_cell_angle_gamma   90.00000000
_symmetry_Int_Tables_number   1
_chemical_formula_structural   ErU2(AlGe)3
_chemical_formula_sum   'Er1 U2 Al3 Ge3'
_cell_volume   147.23518941
_cell_formula_units_Z   1
loop_
 _symmetry_equiv_pos_site_id
 _symmetry_equiv_pos_as_xyz
  1  'x, y, z'
loop_
 _atom_site_type_symbol
 _atom_site_label
 _atom_site_symmetry_multiplicity
 _atom_site_fract_x
 _atom_site_fract_y
 _atom_site_fract_z
 _atom_site_occupancy
  U  U0  1  0.50000001  0.00000000  0.41268301  1
  U  U1  1  0.50000001  0.41268302  0.00000003  1
  Er  Er2  1  0.50000001  0.58731702  0.58731706  1
  Al  Al3  1  0.00000000  0.00000000  0.75587802  1
  Al  Al4  1  -0.00000000  0.75587803  0.00000005  1
  Al  Al5  1  -0.00000000  0.24412201  0.24412202  1
  Ge  Ge6  1  1.00000003  0.66666669  0.33333339  1
  Ge  Ge7  1  -0.00000000  0.33333335  0.66666671  1
  Ge  Ge8  1  0.50000001  0.00000000  -0.00000000  1
