# generated using pymatgen
data_Li3Nb3(FeO6)2
_symmetry_space_group_name_H-M   'P 1'
_cell_length_a   6.30059195
_cell_length_b   6.32753563
_cell_length_c   6.33480549
_cell_angle_alpha   91.09253693
_cell_angle_beta   91.06887817
_cell_angle_gamma   91.15151215
_symmetry_Int_Tables_number   1
_chemical_formula_structural   Li3Nb3(FeO6)2
_chemical_formula_sum   'Li3 Nb3 Fe2 O12'
_cell_volume   252.40839016
_cell_formula_units_Z   1
loop_
 _symmetry_equiv_pos_site_id
 _symmetry_equiv_pos_as_xyz
  1  'x, y, z'
loop_
 _atom_site_type_symbol
 _atom_site_label
 _atom_site_symmetry_multiplicity
 _atom_site_fract_x
 _atom_site_fract_y
 _atom_site_fract_z
 _atom_site_occupancy
  Li  Li0  1  0.94038702  0.43637102  0.24914894  1
  Li  Li1  1  0.25166203  0.94390203  0.43593595  1
  Nb  Nb2  1  0.43868101  0.25164901  0.94771796  1
  Li  Li3  1  0.05712502  0.56024102  0.75241796  1
  Nb  Nb4  1  0.74901501  0.05477600  0.56506596  1
  Nb  Nb5  1  0.56054303  0.74952503  0.05011795  1
  Fe  Fe6  1  0.99919204  0.99865603  0.99789291  1
  Fe  Fe7  1  0.49903402  0.49875802  0.49919295  1
  O  O8  1  0.19503402  0.57893602  0.41756396  1
  O  O9  1  0.41958701  0.19610101  0.56528197  1
  O  O10  1  0.58951102  0.43014701  0.20161096  1
  O  O11  1  0.80380702  0.42542401  0.56196294  1
  O  O12  1  0.55826103  0.80357003  0.42718194  1
  O  O13  1  0.42157402  0.56490802  0.79614695  1
  O  O14  1  0.96666101  0.09589600  0.30554395  1
  O  O15  1  0.29881203  0.95776803  0.10088195  1
  O  O16  1  0.08452301  0.30470201  0.96954997  1
  O  O17  1  0.05253503  0.91076403  0.69707095  1
  O  O18  1  0.69967301  0.04043600  0.90942196  1
  O  O19  1  0.91438203  0.69747002  0.05029394  1
