# generated using pymatgen
data_Ba2Bi
_symmetry_space_group_name_H-M   'P 1'
_cell_length_a   6.07404804
_cell_length_b   6.48342991
_cell_length_c   6.24672556
_cell_angle_alpha   90.00000000
_cell_angle_beta   66.50839996
_cell_angle_gamma   90.00000000
_symmetry_Int_Tables_number   1
_chemical_formula_structural   Ba2Bi
_chemical_formula_sum   'Ba4 Bi2'
_cell_volume   225.61134490
_cell_formula_units_Z   2
loop_
 _symmetry_equiv_pos_site_id
 _symmetry_equiv_pos_as_xyz
  1  'x, y, z'
loop_
 _atom_site_type_symbol
 _atom_site_label
 _atom_site_symmetry_multiplicity
 _atom_site_fract_x
 _atom_site_fract_y
 _atom_site_fract_z
 _atom_site_occupancy
  Ba  Ba0  1  0.00000000  0.00000000  0.00000000  1
  Ba  Ba1  1  0.00000000  0.50000001  0.50000002  1
  Ba  Ba2  1  0.41689000  0.64272601  0.73986401  1
  Ba  Ba3  1  0.58311000  0.14272600  0.76013600  1
  Bi  Bi4  1  0.58311000  0.35727401  0.26013599  1
  Bi  Bi5  1  0.41689000  0.85727401  0.23986399  1
