# generated using pymatgen
data_Li3Mn(BC)3
_symmetry_space_group_name_H-M   'P 1'
_cell_length_a   4.05787516
_cell_length_b   4.05787516
_cell_length_c   8.28339481
_cell_angle_alpha   90.00000000
_cell_angle_beta   90.00000000
_cell_angle_gamma   90.00000000
_symmetry_Int_Tables_number   1
_chemical_formula_structural   Li3Mn(BC)3
_chemical_formula_sum   'Li3 Mn1 B3 C3'
_cell_volume   136.39728469
_cell_formula_units_Z   1
loop_
 _symmetry_equiv_pos_site_id
 _symmetry_equiv_pos_as_xyz
  1  'x, y, z'
loop_
 _atom_site_type_symbol
 _atom_site_label
 _atom_site_symmetry_multiplicity
 _atom_site_fract_x
 _atom_site_fract_y
 _atom_site_fract_z
 _atom_site_occupancy
  Li  Li0  1  0.49999998  0.49999998  0.03415300  1
  Li  Li1  1  0.49999998  0.49999998  0.49771601  1
  Li  Li2  1  0.00000000  0.00000000  0.75217102  1
  Mn  Mn3  1  0.00000000  0.00000000  0.25412501  1
  C  C4  1  0.49999998  0.00000000  0.23752801  1
  B  B5  1  -0.00000000  0.49999998  0.23752801  1
  B  B6  1  0.49999998  0.00000000  0.71355702  1
  B  B7  1  -0.00000000  0.49999998  0.71355702  1
  C  C8  1  0.00000000  0.00000000  0.99817902  1
  C  C9  1  0.00000000  0.00000000  0.47358601  1
