# generated using pymatgen
data_TbDy(HoPd3)2
_symmetry_space_group_name_H-M   'P 1'
_cell_length_a   4.30480194
_cell_length_b   5.84136200
_cell_length_c   9.28766537
_cell_angle_alpha   82.03684998
_cell_angle_beta   76.59997559
_cell_angle_gamma   68.37834930
_symmetry_Int_Tables_number   1
_chemical_formula_structural   TbDy(HoPd3)2
_chemical_formula_sum   'Tb1 Dy1 Ho2 Pd6'
_cell_volume   210.83804657
_cell_formula_units_Z   1
loop_
 _symmetry_equiv_pos_site_id
 _symmetry_equiv_pos_as_xyz
  1  'x, y, z'
loop_
 _atom_site_type_symbol
 _atom_site_label
 _atom_site_symmetry_multiplicity
 _atom_site_fract_x
 _atom_site_fract_y
 _atom_site_fract_z
 _atom_site_occupancy
  Dy  Dy0  1  0.31578203  0.75638799  0.61204801  1
  Ho  Ho1  1  0.68421802  0.24361200  0.38795201  1
  Tb  Tb2  1  0.50195501  0.16976600  0.82632404  1
  Ho  Ho3  1  0.49804504  0.83023399  0.17367599  1
  Pd  Pd4  1  0.14584403  0.77275099  0.93556103  1
  Pd  Pd5  1  0.85415602  0.22724900  0.06443900  1
  Pd  Pd6  1  0.01052601  0.35399500  0.62495302  1
  Pd  Pd7  1  0.98947403  0.64600499  0.37504701  1
  Pd  Pd8  1  0.22855102  0.41496399  0.12793400  1
  Pd  Pd9  1  0.77144903  0.58503599  0.87206603  1
