# generated using pymatgen
data_Li3FeC7
_symmetry_space_group_name_H-M   'P 1'
_cell_length_a   4.66546726
_cell_length_b   5.43781996
_cell_length_c   5.43781996
_cell_angle_alpha   98.25038147
_cell_angle_beta   103.61165619
_cell_angle_gamma   103.61165619
_symmetry_Int_Tables_number   1
_chemical_formula_structural   Li3FeC7
_chemical_formula_sum   'Li3 Fe1 C7'
_cell_volume   127.39543290
_cell_formula_units_Z   1
loop_
 _symmetry_equiv_pos_site_id
 _symmetry_equiv_pos_as_xyz
  1  'x, y, z'
loop_
 _atom_site_type_symbol
 _atom_site_label
 _atom_site_symmetry_multiplicity
 _atom_site_fract_x
 _atom_site_fract_y
 _atom_site_fract_z
 _atom_site_occupancy
  Li  Li0  1  0.49999998  0.68793397  0.31206594  1
  Li  Li1  1  0.49999999  0.31206599  0.68793396  1
  Li  Li2  1  0.09039598  0.80487096  0.80487092  1
  Fe  Fe3  1  0.90960399  0.19512899  0.19512898  1
  C  C4  1  0.73102900  0.04335500  0.35242998  1
  C  C5  1  0.26897098  0.64756997  0.95664493  1
  C  C6  1  0.26897097  0.95664495  0.64756992  1
  C  C7  1  0.73102899  0.35242998  0.04335497  1
  C  C8  1  0.00000000  0.00000000  0.00000000  1
  C  C9  1  0.22111199  0.37717798  0.37717796  1
  C  C10  1  0.77888798  0.62282197  0.62282194  1
