# generated using pymatgen
data_LiAlSiP2
_symmetry_space_group_name_H-M   'P 1'
_cell_length_a   4.18211985
_cell_length_b   4.18211985
_cell_length_c   5.62475204
_cell_angle_alpha   111.82422638
_cell_angle_beta   111.82422638
_cell_angle_gamma   90.00000000
_symmetry_Int_Tables_number   1
_chemical_formula_structural   LiAlSiP2
_chemical_formula_sum   'Li1 Al1 Si1 P2'
_cell_volume   83.68394285
_cell_formula_units_Z   1
loop_
 _symmetry_equiv_pos_site_id
 _symmetry_equiv_pos_as_xyz
  1  'x, y, z'
loop_
 _atom_site_type_symbol
 _atom_site_label
 _atom_site_symmetry_multiplicity
 _atom_site_fract_x
 _atom_site_fract_y
 _atom_site_fract_z
 _atom_site_occupancy
  Li  Li0  1  0.00000000  0.00000000  0.00000000  1
  Al  Al1  1  0.62784202  0.62784202  0.25568399  1
  Si  Si2  1  0.37215801  0.37215801  0.74431598  1
  P  P3  1  0.75000003  0.25000001  0.49999999  1
  P  P4  1  0.25000001  0.75000003  0.49999999  1
