# generated using pymatgen
data_V2Fe7
_symmetry_space_group_name_H-M   'P 1'
_cell_length_a   4.56494808
_cell_length_b   4.56494713
_cell_length_c   6.37215614
_cell_angle_alpha   90.00000000
_cell_angle_beta   90.00000000
_cell_angle_gamma   120.00000763
_symmetry_Int_Tables_number   1
_chemical_formula_structural   V2Fe7
_chemical_formula_sum   'V2 Fe7'
_cell_volume   114.99755372
_cell_formula_units_Z   1
loop_
 _symmetry_equiv_pos_site_id
 _symmetry_equiv_pos_as_xyz
  1  'x, y, z'
loop_
 _atom_site_type_symbol
 _atom_site_label
 _atom_site_symmetry_multiplicity
 _atom_site_fract_x
 _atom_site_fract_y
 _atom_site_fract_z
 _atom_site_occupancy
  V  V0  1  0.00000002  0.50000002  0.66666665  1
  V  V1  1  0.49999999  0.00000000  0.33333333  1
  Fe  Fe2  1  0.50000001  0.50000002  -0.00000000  1
  Fe  Fe3  1  0.16284203  0.83715803  -0.00000000  1
  Fe  Fe4  1  0.83715801  0.67431602  0.33333333  1
  Fe  Fe5  1  0.32568400  0.16284201  0.66666665  1
  Fe  Fe6  1  0.83715799  0.16284201  0.99999998  1
  Fe  Fe7  1  0.16284201  0.32568401  0.33333333  1
  Fe  Fe8  1  0.67431602  0.83715803  0.66666665  1
