# generated using pymatgen
data_CuSe
_symmetry_space_group_name_H-M   'P 1'
_cell_length_a   3.63380909
_cell_length_b   6.14213419
_cell_length_c   12.84522629
_cell_angle_alpha   91.94648743
_cell_angle_beta   90.00000000
_cell_angle_gamma   90.00000000
_symmetry_Int_Tables_number   1
_chemical_formula_structural   CuSe
_chemical_formula_sum   'Cu7 Se7'
_cell_volume   286.53158393
_cell_formula_units_Z   7
loop_
 _symmetry_equiv_pos_site_id
 _symmetry_equiv_pos_as_xyz
  1  'x, y, z'
loop_
 _atom_site_type_symbol
 _atom_site_label
 _atom_site_symmetry_multiplicity
 _atom_site_fract_x
 _atom_site_fract_y
 _atom_site_fract_z
 _atom_site_occupancy
  Cu  Cu0  1  -0.00000000  0.02029100  0.24723000  1
  Cu  Cu1  1  0.00000000  0.97970902  0.75277000  1
  Cu  Cu2  1  0.49999999  0.51553601  0.74434299  1
  Cu  Cu3  1  0.49999999  0.48446401  0.25565700  1
  Cu  Cu4  1  0.49999999  0.50000001  0.00000000  1
  Cu  Cu5  1  0.00000000  0.00000000  0.50000000  1
  Se  Se6  1  0.49999999  0.16662300  0.13093100  1
  Cu  Cu7  1  0.49999999  0.83337702  0.86906899  1
  Se  Se8  1  -0.00000000  0.64707901  0.63401300  1
  Se  Se9  1  -0.00000000  0.35292101  0.36598700  1
  Se  Se10  1  -0.00000000  0.63514601  0.15277300  1
  Se  Se11  1  -0.00000000  0.36485401  0.84722699  1
  Se  Se12  1  0.49999999  0.17496200  0.64198499  1
  Se  Se13  1  0.49999999  0.82503801  0.35801500  1
