# generated using pymatgen
data_Hf4TiNi7
_symmetry_space_group_name_H-M   'P 1'
_cell_length_a   3.91040611
_cell_length_b   6.61338377
_cell_length_c   7.45525885
_cell_angle_alpha   90.69268036
_cell_angle_beta   90.00000000
_cell_angle_gamma   90.00000000
_symmetry_Int_Tables_number   1
_chemical_formula_structural   Hf4TiNi7
_chemical_formula_sum   'Hf4 Ti1 Ni7'
_cell_volume   192.78648126
_cell_formula_units_Z   1
loop_
 _symmetry_equiv_pos_site_id
 _symmetry_equiv_pos_as_xyz
  1  'x, y, z'
loop_
 _atom_site_type_symbol
 _atom_site_label
 _atom_site_symmetry_multiplicity
 _atom_site_fract_x
 _atom_site_fract_y
 _atom_site_fract_z
 _atom_site_occupancy
  Ti  Ti0  1  0.00000000  0.47895702  0.18181497  1
  Hf  Hf1  1  0.00000000  0.97923503  0.32179795  1
  Hf  Hf2  1  0.49999999  0.51925902  0.81402697  1
  Hf  Hf3  1  0.49999999  0.01611600  0.68243300  1
  Ni  Ni4  1  0.00000000  0.35850201  0.55960098  1
  Hf  Hf5  1  0.00000000  0.86427603  0.94353895  1
  Ni  Ni6  1  0.49999999  0.64113702  0.44549596  1
  Ni  Ni7  1  0.49999999  0.14357300  0.05230499  1
  Ni  Ni8  1  0.00000000  0.22080201  0.86978199  1
  Ni  Ni9  1  0.00000000  0.71980202  0.62330096  1
  Ni  Ni10  1  0.49999999  0.78496703  0.11967396  1
  Ni  Ni11  1  0.49999999  0.27337501  0.38622898  1
