# generated using pymatgen
data_Fe5GeMo2
_symmetry_space_group_name_H-M   'P 1'
_cell_length_a   6.10508585
_cell_length_b   6.10508585
_cell_length_c   6.10508585
_cell_angle_alpha   90.00000000
_cell_angle_beta   90.00000000
_cell_angle_gamma   90.00000000
_symmetry_Int_Tables_number   1
_chemical_formula_structural   Fe5GeMo2
_chemical_formula_sum   'Fe5 Ge1 Mo2'
_cell_volume   227.54920689
_cell_formula_units_Z   1
loop_
 _symmetry_equiv_pos_site_id
 _symmetry_equiv_pos_as_xyz
  1  'x, y, z'
loop_
 _atom_site_type_symbol
 _atom_site_label
 _atom_site_symmetry_multiplicity
 _atom_site_fract_x
 _atom_site_fract_y
 _atom_site_fract_z
 _atom_site_occupancy
  Fe  Fe0  1  0.00000000  0.00000000  0.50000001  1
  Fe  Fe1  1  -0.00000000  0.50000001  0.00000000  1
  Fe  Fe2  1  0.50000001  0.00000000  0.00000000  1
  Fe  Fe3  1  0.00000000  0.00000000  0.00000000  1
  Mo  Mo4  1  0.21637501  0.21637501  0.21637501  1
  Mo  Mo5  1  0.21637501  0.78362502  0.78362502  1
  Ge  Ge6  1  0.78362502  0.21637501  0.78362502  1
  Fe  Fe7  1  0.78362502  0.78362502  0.21637501  1
