# generated using pymatgen
data_V2Cr4RhS11O2
_symmetry_space_group_name_H-M   'P 1'
_cell_length_a   7.34393740
_cell_length_b   7.34393740
_cell_length_c   7.34393740
_cell_angle_alpha   60.00000000
_cell_angle_beta   60.00000000
_cell_angle_gamma   60.00000000
_symmetry_Int_Tables_number   1
_chemical_formula_structural   V2Cr4RhS11O2
_chemical_formula_sum   'V2 Cr4 Rh1 S11 O2'
_cell_volume   280.07342374
_cell_formula_units_Z   1
loop_
 _symmetry_equiv_pos_site_id
 _symmetry_equiv_pos_as_xyz
  1  'x, y, z'
loop_
 _atom_site_type_symbol
 _atom_site_label
 _atom_site_symmetry_multiplicity
 _atom_site_fract_x
 _atom_site_fract_y
 _atom_site_fract_z
 _atom_site_occupancy
  V  V0  1  0.37500000  0.37500000  0.87500001  1
  V  V1  1  0.37500000  0.37500000  0.37500000  1
  Cr  Cr2  1  0.37500000  0.87500001  0.37500000  1
  Cr  Cr3  1  0.87500001  0.37500000  0.37500000  1
  Cr  Cr4  1  0.87500001  0.87500001  0.37500000  1
  Cr  Cr5  1  0.87500001  0.87500001  0.87500001  1
  S  S6  1  0.87500001  0.37500000  0.87500001  1
  S  S7  1  0.37500000  0.87500001  0.87500001  1
  S  S8  1  0.79707501  0.79707501  0.20292500  1
  O  O9  1  0.20292500  0.20292500  0.79707501  1
  S  S10  1  0.79707501  0.20292500  0.20292500  1
  S  S11  1  0.20292500  0.79707501  0.79707501  1
  S  S12  1  0.79707501  0.20292500  0.79707501  1
  S  S13  1  0.20292500  0.79707501  0.20292500  1
  S  S14  1  0.95292501  0.95292501  0.54707501  1
  O  O15  1  0.54707501  0.54707501  0.95292501  1
  S  S16  1  0.95292501  0.54707501  0.54707501  1
  S  S17  1  0.54707501  0.95292501  0.95292501  1
  Rh  Rh18  1  0.95292501  0.54707501  0.95292501  1
  S  S19  1  0.54707501  0.95292501  0.54707501  1
