# generated using pymatgen
data_Ce3AlSi8
_symmetry_space_group_name_H-M   'P 1'
_cell_length_a   5.24298191
_cell_length_b   5.24298239
_cell_length_c   8.61142063
_cell_angle_alpha   90.00000000
_cell_angle_beta   90.00000000
_cell_angle_gamma   120.00000000
_symmetry_Int_Tables_number   1
_chemical_formula_structural   Ce3AlSi8
_chemical_formula_sum   'Ce3 Al1 Si8'
_cell_volume   205.00393298
_cell_formula_units_Z   1
loop_
 _symmetry_equiv_pos_site_id
 _symmetry_equiv_pos_as_xyz
  1  'x, y, z'
loop_
 _atom_site_type_symbol
 _atom_site_label
 _atom_site_symmetry_multiplicity
 _atom_site_fract_x
 _atom_site_fract_y
 _atom_site_fract_z
 _atom_site_occupancy
  Ce  Ce0  1  0.66666669  0.33333334  0.56672002  1
  Ce  Ce1  1  0.33333337  0.66666668  0.43328002  1
  Ce  Ce2  1  0.33333337  0.66666668  0.06672000  1
  Al  Al3  1  0.66666669  0.33333334  0.93328004  1
  Si  Si4  1  0.00000000  0.00000000  0.50000002  1
  Si  Si5  1  0.00000000  0.00000000  0.00000000  1
  Si  Si6  1  0.17257802  0.34515600  0.75000003  1
  Si  Si7  1  0.17257804  0.82742201  0.75000003  1
  Si  Si8  1  0.65484405  0.82742201  0.75000003  1
  Si  Si9  1  0.82742204  0.65484401  0.25000001  1
  Si  Si10  1  0.82742202  0.17257800  0.25000001  1
  Si  Si11  1  0.34515601  0.17257800  0.25000001  1
