# generated using pymatgen
data_Cs4Bi(TeO4)3
_symmetry_space_group_name_H-M   'P 1'
_cell_length_a   5.89305592
_cell_length_b   7.48364258
_cell_length_c   10.82041931
_cell_angle_alpha   90.00000000
_cell_angle_beta   90.00000000
_cell_angle_gamma   104.62602234
_symmetry_Int_Tables_number   1
_chemical_formula_structural   Cs4Bi(TeO4)3
_chemical_formula_sum   'Cs4 Bi1 Te3 O12'
_cell_volume   461.73321840
_cell_formula_units_Z   1
loop_
 _symmetry_equiv_pos_site_id
 _symmetry_equiv_pos_as_xyz
  1  'x, y, z'
loop_
 _atom_site_type_symbol
 _atom_site_label
 _atom_site_symmetry_multiplicity
 _atom_site_fract_x
 _atom_site_fract_y
 _atom_site_fract_z
 _atom_site_occupancy
  Cs  Cs0  1  0.24999999  0.99999999  0.06824700  1
  Cs  Cs1  1  0.75000000  0.99999999  0.93175297  1
  Cs  Cs2  1  0.75000000  0.99999999  0.56347698  1
  Cs  Cs3  1  0.24999999  0.99999999  0.43652299  1
  Bi  Bi4  1  0.29111700  0.15377000  0.75202998  1
  Te  Te5  1  0.79111701  0.15377000  0.24796999  1
  Te  Te6  1  0.70888300  0.84622999  0.24796999  1
  Te  Te7  1  0.20888299  0.84622999  0.75202998  1
  O  O8  1  0.98632801  0.20875800  0.08000900  1
  O  O9  1  0.52599600  0.74139999  0.39553999  1
  O  O10  1  0.97567301  0.21304000  0.77230398  1
  O  O11  1  0.52432700  0.78695999  0.77230398  1
  O  O12  1  0.02599599  0.74139999  0.60445998  1
  O  O13  1  0.47567300  0.21304000  0.22769599  1
  O  O14  1  0.02432699  0.78695999  0.22769599  1
  O  O15  1  0.51367199  0.79124199  0.08000900  1
  O  O16  1  0.01367199  0.79124199  0.91999097  1
  O  O17  1  0.48632800  0.20875800  0.91999097  1
  O  O18  1  0.47400400  0.25860000  0.60445998  1
  O  O19  1  0.97400401  0.25860000  0.39553999  1
