# generated using pymatgen
data_LiAlSiP2
_symmetry_space_group_name_H-M   'P 1'
_cell_length_a   4.17331791
_cell_length_b   4.17331791
_cell_length_c   5.58617020
_cell_angle_alpha   111.93411255
_cell_angle_beta   111.93411255
_cell_angle_gamma   90.00000000
_symmetry_Int_Tables_number   1
_chemical_formula_structural   LiAlSiP2
_chemical_formula_sum   'Li1 Al1 Si1 P2'
_cell_volume   82.60861119
_cell_formula_units_Z   1
loop_
 _symmetry_equiv_pos_site_id
 _symmetry_equiv_pos_as_xyz
  1  'x, y, z'
loop_
 _atom_site_type_symbol
 _atom_site_label
 _atom_site_symmetry_multiplicity
 _atom_site_fract_x
 _atom_site_fract_y
 _atom_site_fract_z
 _atom_site_occupancy
  Li  Li0  1  0.00000000  0.00000000  0.00000000  1
  Al  Al1  1  0.36942899  0.36942900  0.73885798  1
  Si  Si2  1  0.63057098  0.63057100  0.26114195  1
  P  P3  1  0.24999997  0.75000000  0.49999996  1
  P  P4  1  0.74999999  0.25000000  0.49999997  1
