# generated using pymatgen
data_NdZr2TlSbTe9
_symmetry_space_group_name_H-M   'P 1'
_cell_length_a   4.36142778
_cell_length_b   7.87756157
_cell_length_c   17.47629738
_cell_angle_alpha   90.00000000
_cell_angle_beta   90.00000000
_cell_angle_gamma   106.07086182
_symmetry_Int_Tables_number   1
_chemical_formula_structural   NdZr2TlSbTe9
_chemical_formula_sum   'Nd1 Zr2 Tl1 Sb1 Te9'
_cell_volume   576.97524207
_cell_formula_units_Z   1
loop_
 _symmetry_equiv_pos_site_id
 _symmetry_equiv_pos_as_xyz
  1  'x, y, z'
loop_
 _atom_site_type_symbol
 _atom_site_label
 _atom_site_symmetry_multiplicity
 _atom_site_fract_x
 _atom_site_fract_y
 _atom_site_fract_z
 _atom_site_occupancy
  Tl  Tl0  1  0.48460401  0.96920801  0.75000003  1
  Nd  Nd1  1  0.51539602  0.03079200  0.25000001  1
  Zr  Zr2  1  0.00000000  0.00000000  0.00000000  1
  Zr  Zr3  1  0.00000000  0.00000000  0.50000002  1
  Te  Te4  1  0.09986400  0.19972800  0.85592803  1
  Te  Te5  1  0.09986400  0.19972800  0.64407202  1
  Te  Te6  1  0.39152201  0.78304401  0.93431003  1
  Sb  Sb7  1  0.16707500  0.33415000  0.25000001  1
  Te  Te8  1  0.39152201  0.78304401  0.56569002  1
  Te  Te9  1  0.60847803  0.21695600  0.43431002  1
  Te  Te10  1  0.60847803  0.21695600  0.06569000  1
  Te  Te11  1  0.83292503  0.66585001  0.75000003  1
  Te  Te12  1  0.90013603  0.80027201  0.35592801  1
  Te  Te13  1  0.90013603  0.80027201  0.14407201  1
