# generated using pymatgen
data_LiCaMg4
_symmetry_space_group_name_H-M   'P 1'
_cell_length_a   4.99253416
_cell_length_b   5.39310598
_cell_length_c   5.39310694
_cell_angle_alpha   60.00000763
_cell_angle_beta   90.00000000
_cell_angle_gamma   90.00000000
_symmetry_Int_Tables_number   1
_chemical_formula_structural   LiCaMg4
_chemical_formula_sum   'Li1 Ca1 Mg4'
_cell_volume   125.75628435
_cell_formula_units_Z   1
loop_
 _symmetry_equiv_pos_site_id
 _symmetry_equiv_pos_as_xyz
  1  'x, y, z'
loop_
 _atom_site_type_symbol
 _atom_site_label
 _atom_site_symmetry_multiplicity
 _atom_site_fract_x
 _atom_site_fract_y
 _atom_site_fract_z
 _atom_site_occupancy
  Li  Li0  1  0.00000000  0.66666666  0.66666670  1
  Ca  Ca1  1  0.49999998  0.00000000  0.67723301  1
  Mg  Mg2  1  0.49999998  0.32276700  0.00000001  1
  Mg  Mg3  1  0.49999998  0.67723299  0.32276702  1
  Mg  Mg4  1  0.00000000  0.33333333  0.33333335  1
  Mg  Mg5  1  0.00000000  0.00000000  0.00000000  1
