# generated using pymatgen
data_CeAlSi3
_symmetry_space_group_name_H-M   'P 1'
_cell_length_a   4.17932606
_cell_length_b   4.17932606
_cell_length_c   9.98362923
_cell_angle_alpha   90.00000000
_cell_angle_beta   90.00000000
_cell_angle_gamma   90.00000000
_symmetry_Int_Tables_number   1
_chemical_formula_structural   CeAlSi3
_chemical_formula_sum   'Ce2 Al2 Si6'
_cell_volume   174.38171847
_cell_formula_units_Z   2
loop_
 _symmetry_equiv_pos_site_id
 _symmetry_equiv_pos_as_xyz
  1  'x, y, z'
loop_
 _atom_site_type_symbol
 _atom_site_label
 _atom_site_symmetry_multiplicity
 _atom_site_fract_x
 _atom_site_fract_y
 _atom_site_fract_z
 _atom_site_occupancy
  Ce  Ce0  1  0.00000000  0.49999999  0.25200699  1
  Ce  Ce1  1  0.49999999  0.00000000  0.74799298  1
  Al  Al2  1  0.00000000  0.00000000  0.49999999  1
  Al  Al3  1  0.49999999  0.49999999  0.49999999  1
  Si  Si4  1  0.00000000  0.49999999  0.86221498  1
  Si  Si5  1  0.49999999  0.00000000  0.13778500  1
  Si  Si6  1  0.00000000  0.00000000  0.00000000  1
  Si  Si7  1  0.49999999  0.49999999  -0.00000000  1
  Si  Si8  1  0.00000000  0.49999999  0.62363299  1
  Si  Si9  1  0.49999999  0.00000000  0.37636699  1
