# generated using pymatgen
data_InCuSe2
_symmetry_space_group_name_H-M   'P 1'
_cell_length_a   6.87918377
_cell_length_b   6.89624119
_cell_length_c   6.90667295
_cell_angle_alpha   90.00000000
_cell_angle_beta   89.82857513
_cell_angle_gamma   90.00000000
_symmetry_Int_Tables_number   1
_chemical_formula_structural   InCuSe2
_chemical_formula_sum   'In3 Cu3 Se6'
_cell_volume   327.65462394
_cell_formula_units_Z   3
loop_
 _symmetry_equiv_pos_site_id
 _symmetry_equiv_pos_as_xyz
  1  'x, y, z'
loop_
 _atom_site_type_symbol
 _atom_site_label
 _atom_site_symmetry_multiplicity
 _atom_site_fract_x
 _atom_site_fract_y
 _atom_site_fract_z
 _atom_site_occupancy
  Cu  Cu0  1  0.50000002  0.49999999  -0.00000002  1
  In  In1  1  0.50000002  0.00000000  0.49999998  1
  In  In2  1  -0.00000000  0.49999999  0.50000000  1
  In  In3  1  0.00000000  0.00000000  0.00000000  1
  Cu  Cu4  1  0.87912103  0.11535300  0.61617197  1
  Cu  Cu5  1  0.12087900  0.61535298  0.88382799  1
  Se  Se6  1  0.61517002  0.87933398  0.11993298  1
  Se  Se7  1  0.38483001  0.37933399  0.38006698  1
  Se  Se8  1  0.12087900  0.88464698  0.38382799  1
  Se  Se9  1  0.87912103  0.38464699  0.11617197  1
  Se  Se10  1  0.38483001  0.12066600  0.88006698  1
  Se  Se11  1  0.61517002  0.62066598  0.61993297  1
