# generated using pymatgen
data_CeGe2
_symmetry_space_group_name_H-M   'P 1'
_cell_length_a   4.40768385
_cell_length_b   7.02194977
_cell_length_c   7.63703203
_cell_angle_alpha   90.00000000
_cell_angle_beta   90.00000000
_cell_angle_gamma   90.00000000
_symmetry_Int_Tables_number   1
_chemical_formula_structural   CeGe2
_chemical_formula_sum   'Ce4 Ge8'
_cell_volume   236.37022402
_cell_formula_units_Z   4
loop_
 _symmetry_equiv_pos_site_id
 _symmetry_equiv_pos_as_xyz
  1  'x, y, z'
loop_
 _atom_site_type_symbol
 _atom_site_label
 _atom_site_symmetry_multiplicity
 _atom_site_fract_x
 _atom_site_fract_y
 _atom_site_fract_z
 _atom_site_occupancy
  Ce  Ce0  1  0.25000001  0.98739903  0.29669500  1
  Ce  Ce1  1  0.25000001  0.48739902  0.20330500  1
  Ce  Ce2  1  0.75000003  0.01260100  0.70330500  1
  Ce  Ce3  1  0.75000003  0.51260102  0.79669500  1
  Ge  Ge4  1  0.25000001  0.19640001  0.91259000  1
  Ge  Ge5  1  0.25000001  0.69640002  0.58741000  1
  Ge  Ge6  1  0.75000003  0.80360003  0.08741000  1
  Ge  Ge7  1  0.75000003  0.30360001  0.41259000  1
  Ge  Ge8  1  0.25000001  0.30716701  0.58633700  1
  Ge  Ge9  1  0.25000001  0.80716703  0.91366300  1
  Ge  Ge10  1  0.75000003  0.69283302  0.41366300  1
  Ge  Ge11  1  0.75000003  0.19283301  0.08633700  1
