# generated using pymatgen
data_TiNiP
_symmetry_space_group_name_H-M   'P 1'
_cell_length_a   3.67936206
_cell_length_b   6.16293192
_cell_length_c   6.16293240
_cell_angle_alpha   120.00000000
_cell_angle_beta   90.00000000
_cell_angle_gamma   90.00000000
_symmetry_Int_Tables_number   1
_chemical_formula_structural   TiNiP
_chemical_formula_sum   'Ti3 Ni3 P3'
_cell_volume   121.02579142
_cell_formula_units_Z   3
loop_
 _symmetry_equiv_pos_site_id
 _symmetry_equiv_pos_as_xyz
  1  'x, y, z'
loop_
 _atom_site_type_symbol
 _atom_site_label
 _atom_site_symmetry_multiplicity
 _atom_site_fract_x
 _atom_site_fract_y
 _atom_site_fract_z
 _atom_site_occupancy
  Ti  Ti0  1  0.49999999  0.58526402  0.00000002  1
  Ti  Ti1  1  0.49999999  0.41473601  0.41473600  1
  Ti  Ti2  1  0.49999999  0.00000000  0.58526399  1
  Ni  Ni3  1  -0.00000000  0.25135101  0.00000001  1
  Ni  Ni4  1  0.99999998  0.74864902  0.74864901  1
  Ni  Ni5  1  -0.00000000  1.00000003  0.25135103  1
  P  P6  1  -0.00000000  0.33333334  0.66666666  1
  P  P7  1  -0.00000000  0.66666669  0.33333335  1
  P  P8  1  0.49999999  0.00000000  -0.00000000  1
