# generated using pymatgen
data_Cs5RbSbTe(I5O)2
_symmetry_space_group_name_H-M   'P 1'
_cell_length_a   4.51795292
_cell_length_b   9.69647217
_cell_length_c   16.66595459
_cell_angle_alpha   90.00000000
_cell_angle_beta   90.00000000
_cell_angle_gamma   90.00000000
_symmetry_Int_Tables_number   1
_chemical_formula_structural   Cs5RbSbTe(I5O)2
_chemical_formula_sum   'Cs5 Rb1 Sb1 Te1 I10 O2'
_cell_volume   730.10555078
_cell_formula_units_Z   1
loop_
 _symmetry_equiv_pos_site_id
 _symmetry_equiv_pos_as_xyz
  1  'x, y, z'
loop_
 _atom_site_type_symbol
 _atom_site_label
 _atom_site_symmetry_multiplicity
 _atom_site_fract_x
 _atom_site_fract_y
 _atom_site_fract_z
 _atom_site_occupancy
  Cs  Cs0  1  0.75000001  0.71202299  0.29163899  1
  Cs  Cs1  1  0.25000000  0.02592300  0.40172599  1
  Cs  Cs2  1  0.25000000  0.52592299  0.09827400  1
  Rb  Rb3  1  0.25000000  0.78797699  0.79163897  1
  Cs  Cs4  1  0.75000001  0.82751999  0.00107100  1
  Sb  Sb5  1  0.25000000  0.28797700  0.70836097  1
  Cs  Cs6  1  0.25000000  0.17248000  0.99892896  1
  Te  Te7  1  0.75000001  0.47407699  0.90172597  1
  I  I8  1  0.25000000  0.67247999  0.50107098  1
  I  I9  1  0.75000001  0.32751999  0.49892898  1
  I  I10  1  0.75000001  0.21202300  0.20836099  1
  I  I11  1  0.75000001  0.97407698  0.59827398  1
  I  I12  1  0.75000001  0.57745699  0.67245898  1
  I  I13  1  0.25000000  0.42254299  0.32754099  1
  O  O14  1  0.25000000  0.92254298  0.17245899  1
  I  I15  1  0.75000001  0.07745700  0.82754097  1
  I  I16  1  0.25000000  0.16649200  0.56172198  1
  O  O17  1  0.75000001  0.83350799  0.43827798  1
  I  I18  1  0.75000001  0.33350799  0.06172200  1
  I  I19  1  0.25000000  0.66649199  0.93827797  1
