# generated using pymatgen
data_Li2NiO3
_symmetry_space_group_name_H-M   'P 1'
_cell_length_a   3.90364194
_cell_length_b   6.84775066
_cell_length_c   6.90779018
_cell_angle_alpha   106.80161285
_cell_angle_beta   106.41267395
_cell_angle_gamma   90.00000000
_symmetry_Int_Tables_number   1
_chemical_formula_structural   Li2NiO3
_chemical_formula_sum   'Li4 Ni2 O6'
_cell_volume   168.89554019
_cell_formula_units_Z   2
loop_
 _symmetry_equiv_pos_site_id
 _symmetry_equiv_pos_as_xyz
  1  'x, y, z'
loop_
 _atom_site_type_symbol
 _atom_site_label
 _atom_site_symmetry_multiplicity
 _atom_site_fract_x
 _atom_site_fract_y
 _atom_site_fract_z
 _atom_site_occupancy
  Li  Li0  1  0.10549401  0.21509401  0.21098801  1
  Li  Li1  1  0.18870804  0.81045903  0.37741603  1
  Li  Li2  1  0.81129203  0.18954101  0.62258401  1
  Li  Li3  1  0.89450606  0.78490603  0.78901204  1
  Ni  Ni4  1  0.05562604  0.86125003  0.11125203  1
  O  O5  1  0.26007601  0.14810901  0.52015200  1
  Ni  Ni6  1  0.73992406  0.85189103  0.47984804  1
  O  O7  1  0.94437403  0.13875001  0.88874801  1
  O  O8  1  0.63380503  0.20994401  0.26761002  1
  O  O9  1  0.14090203  0.50867302  0.28180402  1
  O  O10  1  0.85909805  0.49132702  0.71819603  1
  O  O11  1  0.36619505  0.79005603  0.73239002  1
