# generated using pymatgen
data_LiMnO4
_symmetry_space_group_name_H-M   'P 1'
_cell_length_a   6.19863033
_cell_length_b   6.19863033
_cell_length_c   6.19863033
_cell_angle_alpha   107.08480072
_cell_angle_beta   107.08480072
_cell_angle_gamma   114.35734558
_symmetry_Int_Tables_number   1
_chemical_formula_structural   LiMnO4
_chemical_formula_sum   'Li2 Mn2 O8'
_cell_volume   182.33465449
_cell_formula_units_Z   2
loop_
 _symmetry_equiv_pos_site_id
 _symmetry_equiv_pos_as_xyz
  1  'x, y, z'
loop_
 _atom_site_type_symbol
 _atom_site_label
 _atom_site_symmetry_multiplicity
 _atom_site_fract_x
 _atom_site_fract_y
 _atom_site_fract_z
 _atom_site_occupancy
  Li  Li0  1  0.00000000  0.00000000  0.00000000  1
  Li  Li1  1  0.74999995  0.24999998  0.49999994  1
  Mn  Mn2  1  0.49999993  0.49999995  -0.00000007  1
  Mn  Mn3  1  0.24999990  0.74999993  0.49999991  1
  O  O4  1  0.68338287  0.87469192  0.19130988  1
  O  O5  1  0.12530796  0.31661697  0.80869095  1
  O  O6  1  0.62469187  0.93338291  0.69130887  1
  O  O7  1  0.50792695  0.31661797  0.19130994  1
  O  O8  1  0.68338292  0.49207395  0.80869091  1
  O  O9  1  0.06661695  0.37530797  0.30868996  1
  O  O10  1  0.06661690  0.75792593  0.69130891  1
  O  O11  1  0.24207288  0.93338191  0.30868989  1
