# generated using pymatgen
data_Li4VCr3O8
_symmetry_space_group_name_H-M   'P 1'
_cell_length_a   5.90756226
_cell_length_b   5.93783236
_cell_length_c   5.93800163
_cell_angle_alpha   89.86837769
_cell_angle_beta   60.17534637
_cell_angle_gamma   60.17996979
_symmetry_Int_Tables_number   1
_chemical_formula_structural   Li4VCr3O8
_chemical_formula_sum   'Li4 V1 Cr3 O8'
_cell_volume   148.23912324
_cell_formula_units_Z   1
loop_
 _symmetry_equiv_pos_site_id
 _symmetry_equiv_pos_as_xyz
  1  'x, y, z'
loop_
 _atom_site_type_symbol
 _atom_site_label
 _atom_site_symmetry_multiplicity
 _atom_site_fract_x
 _atom_site_fract_y
 _atom_site_fract_z
 _atom_site_occupancy
  Li  Li0  1  0.50000302  0.49999698  0.99999600  1
  Li  Li1  1  0.50000302  0.49999698  0.49999598  1
  Li  Li2  1  0.00000303  0.99999695  0.49999597  1
  Li  Li3  1  0.00000302  0.49999698  0.49999600  1
  Cr  Cr4  1  0.50000303  0.99999695  0.99999597  1
  Cr  Cr5  1  0.00000303  0.99999695  0.99999599  1
  V  V6  1  0.00000902  0.50001698  0.00002698  1
  Cr  Cr7  1  0.49995300  0.00002800  0.50002800  1
  O  O8  1  0.98427502  0.75555497  0.24442294  1
  O  O9  1  0.51060801  0.23279799  0.24590398  1
  O  O10  1  0.51572602  0.75557597  0.24442395  1
  O  O11  1  0.98936602  0.75409297  0.76721196  1
  O  O12  1  0.01063901  0.24590099  0.23278100  1
  O  O13  1  0.48427901  0.24441799  0.75556800  1
  O  O14  1  0.48939802  0.76719597  0.75408797  1
  O  O15  1  0.01573101  0.24443899  0.75556902  1
