# generated using pymatgen
data_Nd2Ni7Sn
_symmetry_space_group_name_H-M   'P 1'
_cell_length_a   6.73403120
_cell_length_b   7.68310308
_cell_length_c   7.68310308
_cell_angle_alpha   90.00000000
_cell_angle_beta   90.00000000
_cell_angle_gamma   90.00000000
_symmetry_Int_Tables_number   1
_chemical_formula_structural   Nd2Ni7Sn
_chemical_formula_sum   'Nd4 Ni14 Sn2'
_cell_volume   397.51035340
_cell_formula_units_Z   2
loop_
 _symmetry_equiv_pos_site_id
 _symmetry_equiv_pos_as_xyz
  1  'x, y, z'
loop_
 _atom_site_type_symbol
 _atom_site_label
 _atom_site_symmetry_multiplicity
 _atom_site_fract_x
 _atom_site_fract_y
 _atom_site_fract_z
 _atom_site_occupancy
  Nd  Nd0  1  0.24999999  0.49999999  0.00000000  1
  Nd  Nd1  1  0.74999998  0.49999999  0.00000000  1
  Nd  Nd2  1  0.24999999  0.00000000  0.49999999  1
  Nd  Nd3  1  0.74999998  0.00000000  0.49999999  1
  Ni  Ni4  1  0.00000000  0.70095099  0.29904900  1
  Ni  Ni5  1  0.00000000  0.29904900  0.70095099  1
  Ni  Ni6  1  0.49999999  0.79904899  0.79904899  1
  Ni  Ni7  1  0.49999999  0.20095100  0.20095100  1
  Ni  Ni8  1  0.00000000  0.15572500  0.15572500  1
  Ni  Ni9  1  0.00000000  0.84427499  0.84427499  1
  Ni  Ni10  1  0.49999999  0.65572499  0.34427500  1
  Ni  Ni11  1  0.49999999  0.34427500  0.65572499  1
  Ni  Ni12  1  0.20191699  0.38005300  0.38005300  1
  Ni  Ni13  1  0.79808298  0.61994699  0.61994699  1
  Ni  Ni14  1  0.20191699  0.61994699  0.61994699  1
  Sn  Sn15  1  0.70191698  0.88005299  0.11994700  1
  Ni  Ni16  1  0.29808299  0.88005299  0.11994700  1
  Ni  Ni17  1  0.79808298  0.38005300  0.38005300  1
  Ni  Ni18  1  0.29808299  0.11994700  0.88005299  1
  Sn  Sn19  1  0.70191698  0.11994700  0.88005299  1
