# generated using pymatgen
data_Ce3MnP8
_symmetry_space_group_name_H-M   'P 1'
_cell_length_a   3.85790300
_cell_length_b   6.48592281
_cell_length_c   7.43233824
_cell_angle_alpha   90.00000000
_cell_angle_beta   90.00000000
_cell_angle_gamma   90.00000000
_symmetry_Int_Tables_number   1
_chemical_formula_structural   Ce3MnP8
_chemical_formula_sum   'Ce3 Mn1 P8'
_cell_volume   185.97242153
_cell_formula_units_Z   1
loop_
 _symmetry_equiv_pos_site_id
 _symmetry_equiv_pos_as_xyz
  1  'x, y, z'
loop_
 _atom_site_type_symbol
 _atom_site_label
 _atom_site_symmetry_multiplicity
 _atom_site_fract_x
 _atom_site_fract_y
 _atom_site_fract_z
 _atom_site_occupancy
  Ce  Ce0  1  0.75000000  0.47325901  0.33486899  1
  Ce  Ce1  1  0.25000000  0.02674100  0.83486897  1
  Ce  Ce2  1  0.75000000  0.97325903  0.16513099  1
  Mn  Mn3  1  0.25000000  0.52674102  0.66513098  1
  P  P4  1  0.25000000  0.26878101  0.12590300  1
  P  P5  1  0.25000000  0.76878102  0.37409699  1
  P  P6  1  0.75000000  0.73121902  0.87409697  1
  P  P7  1  0.75000000  0.23121901  0.62590298  1
  P  P8  1  0.25000000  0.65203502  0.06523700  1
  P  P9  1  0.25000000  0.15203500  0.43476299  1
  P  P10  1  0.75000000  0.84796502  0.56523698  1
  P  P11  1  0.75000000  0.34796501  0.93476297  1
