# generated using pymatgen
data_LiMnVC2
_symmetry_space_group_name_H-M   'P 1'
_cell_length_a   3.62429404
_cell_length_b   3.62429404
_cell_length_c   5.35990763
_cell_angle_alpha   109.76072693
_cell_angle_beta   109.76072693
_cell_angle_gamma   90.00000000
_symmetry_Int_Tables_number   1
_chemical_formula_structural   LiMnVC2
_chemical_formula_sum   'Li1 Mn1 V1 C2'
_cell_volume   61.83582108
_cell_formula_units_Z   1
loop_
 _symmetry_equiv_pos_site_id
 _symmetry_equiv_pos_as_xyz
  1  'x, y, z'
loop_
 _atom_site_type_symbol
 _atom_site_label
 _atom_site_symmetry_multiplicity
 _atom_site_fract_x
 _atom_site_fract_y
 _atom_site_fract_z
 _atom_site_occupancy
  Li  Li0  1  0.00000000  0.00000000  0.00000000  1
  V  V1  1  0.74999998  0.24999999  0.49999999  1
  Mn  Mn2  1  0.24999998  0.74999998  0.49999999  1
  C  C3  1  0.66131097  0.66131098  0.32262198  1
  C  C4  1  0.33868898  0.33868899  0.67737800  1
