# generated using pymatgen
data_Ce2Fe6B3C7
_symmetry_space_group_name_H-M   'P 1'
_cell_length_a   5.33079720
_cell_length_b   5.33079720
_cell_length_c   7.41104221
_cell_angle_alpha   90.00000000
_cell_angle_beta   90.00000000
_cell_angle_gamma   90.00000000
_symmetry_Int_Tables_number   1
_chemical_formula_structural   Ce2Fe6B3C7
_chemical_formula_sum   'Ce2 Fe6 B3 C7'
_cell_volume   210.60254165
_cell_formula_units_Z   1
loop_
 _symmetry_equiv_pos_site_id
 _symmetry_equiv_pos_as_xyz
  1  'x, y, z'
loop_
 _atom_site_type_symbol
 _atom_site_label
 _atom_site_symmetry_multiplicity
 _atom_site_fract_x
 _atom_site_fract_y
 _atom_site_fract_z
 _atom_site_occupancy
  Ce  Ce0  1  0.49999998  0.49999998  -0.00000000  1
  Ce  Ce1  1  0.00000000  0.00000000  0.49999999  1
  Fe  Fe2  1  0.33138899  0.00000000  0.14997800  1
  Fe  Fe3  1  0.66861098  0.00000000  0.14997800  1
  Fe  Fe4  1  0.49999998  0.82979297  0.64939798  1
  Fe  Fe5  1  0.49999998  0.17020699  0.64939798  1
  Fe  Fe6  1  0.17020699  0.49999998  0.35060199  1
  Fe  Fe7  1  0.82979297  0.49999998  0.35060199  1
  B  B8  1  -0.00000000  0.66861098  0.85002198  1
  C  C9  1  0.00000000  0.33138899  0.85002198  1
  B  B10  1  0.75237997  0.00000000  0.85102898  1
  B  B11  1  0.24761999  0.00000000  0.85102898  1
  C  C12  1  0.49999998  0.25014199  0.35649699  1
  C  C13  1  0.49999998  0.74985797  0.35649699  1
  C  C14  1  0.74985797  0.49999998  0.64350298  1
  C  C15  1  0.25014199  0.49999998  0.64350298  1
  C  C16  1  0.00000000  0.24761999  0.14897100  1
  C  C17  1  0.00000000  0.75237997  0.14897100  1
