# generated using pymatgen
data_La8Ce3Sn2Bi
_symmetry_space_group_name_H-M   'P 1'
_cell_length_a   5.32016420
_cell_length_b   9.86504459
_cell_length_c   9.86504459
_cell_angle_alpha   67.55970764
_cell_angle_beta   74.35671997
_cell_angle_gamma   74.35671997
_symmetry_Int_Tables_number   1
_chemical_formula_structural   La8Ce3Sn2Bi
_chemical_formula_sum   'La8 Ce3 Sn2 Bi1'
_cell_volume   452.66583160
_cell_formula_units_Z   1
loop_
 _symmetry_equiv_pos_site_id
 _symmetry_equiv_pos_as_xyz
  1  'x, y, z'
loop_
 _atom_site_type_symbol
 _atom_site_label
 _atom_site_symmetry_multiplicity
 _atom_site_fract_x
 _atom_site_fract_y
 _atom_site_fract_z
 _atom_site_occupancy
  Ce  Ce0  1  0.30688693  0.69311298  0.69311302  1
  La  La1  1  0.69311296  0.30688699  0.30688699  1
  La  La2  1  0.00000000  0.00000000  0.00000000  1
  La  La3  1  0.13382898  0.15096600  0.58137500  1
  La  La4  1  0.33060896  0.30899899  0.02978401  1
  Ce  Ce5  1  0.66939092  0.69100098  0.97021601  1
  Ce  Ce6  1  0.66939189  0.97021498  0.69100103  1
  La  La7  1  0.33060799  0.02978500  0.30899899  1
  La  La8  1  0.49999992  0.70009198  0.29990802  1
  La  La9  1  0.49999996  0.29990799  0.70009199  1
  La  La10  1  0.99999993  0.49999999  0.49999999  1
  Sn  Sn11  1  0.86617090  0.84903398  0.41862502  1
  Sn  Sn12  1  0.86616994  0.41862599  0.84903398  1
  Bi  Bi13  1  0.13382994  0.58137399  0.15096603  1
