# generated using pymatgen
data_PrNd(NiO)2
_symmetry_space_group_name_H-M   'P 1'
_cell_length_a   3.03573895
_cell_length_b   3.03739858
_cell_length_c   10.25170612
_cell_angle_alpha   90.00000000
_cell_angle_beta   90.00000000
_cell_angle_gamma   119.98194122
_symmetry_Int_Tables_number   1
_chemical_formula_structural   PrNd(NiO)2
_chemical_formula_sum   'Pr1 Nd1 Ni2 O2'
_cell_volume   81.87889781
_cell_formula_units_Z   1
loop_
 _symmetry_equiv_pos_site_id
 _symmetry_equiv_pos_as_xyz
  1  'x, y, z'
loop_
 _atom_site_type_symbol
 _atom_site_label
 _atom_site_symmetry_multiplicity
 _atom_site_fract_x
 _atom_site_fract_y
 _atom_site_fract_z
 _atom_site_occupancy
  Nd  Nd0  1  0.66725803  0.33451502  0.75938299  1
  Pr  Pr1  1  0.33274205  0.66548503  0.25938300  1
  Ni  Ni2  1  0.99984309  0.99968505  0.51361099  1
  O  O3  1  0.00015700  0.00031500  0.01361100  1
  O  O4  1  0.33333338  0.66666670  0.57164599  1
  Ni  Ni5  1  0.66666670  0.33339702  0.07164600  1
