# generated using pymatgen
data_Nd2Ni17
_symmetry_space_group_name_H-M   'P 1'
_cell_length_a   6.31633997
_cell_length_b   6.31633997
_cell_length_c   6.31634045
_cell_angle_alpha   82.96872711
_cell_angle_beta   82.96872711
_cell_angle_gamma   82.96871948
_symmetry_Int_Tables_number   1
_chemical_formula_structural   Nd2Ni17
_chemical_formula_sum   'Nd2 Ni17'
_cell_volume   246.74099204
_cell_formula_units_Z   1
loop_
 _symmetry_equiv_pos_site_id
 _symmetry_equiv_pos_as_xyz
  1  'x, y, z'
loop_
 _atom_site_type_symbol
 _atom_site_label
 _atom_site_symmetry_multiplicity
 _atom_site_fract_x
 _atom_site_fract_y
 _atom_site_fract_z
 _atom_site_occupancy
  Nd  Nd0  1  0.34400799  0.34400800  0.34400801  1
  Nd  Nd1  1  0.65599199  0.65599200  0.65599203  1
  Ni  Ni2  1  0.09608200  0.09608200  0.09608200  1
  Ni  Ni3  1  0.90391798  0.90391800  0.90391804  1
  Ni  Ni4  1  0.00000000  0.00000000  0.49999998  1
  Ni  Ni5  1  0.49999998  1.00000000  0.00000006  1
  Ni  Ni6  1  -0.00000001  0.50000000  0.00000002  1
  Ni  Ni7  1  0.28625399  0.71374600  0.00000004  1
  Ni  Ni8  1  -0.00000000  0.28625400  0.71374598  1
  Ni  Ni9  1  0.71374598  1.00000000  0.28625406  1
  Ni  Ni10  1  -0.00000001  0.71374600  0.28625402  1
  Ni  Ni11  1  0.28625400  0.00000000  0.71374598  1
  Ni  Ni12  1  0.71374599  0.28625400  0.00000004  1
  Ni  Ni13  1  0.65602899  0.14962100  0.65602901  1
  Ni  Ni14  1  0.65602899  0.65602900  0.14962105  1
  Ni  Ni15  1  0.14962099  0.65602900  0.65602901  1
  Ni  Ni16  1  0.34397098  0.85037900  0.34397104  1
  Ni  Ni17  1  0.34397099  0.34397100  0.85037900  1
  Ni  Ni18  1  0.85037899  0.34397100  0.34397103  1
