# generated using pymatgen
data_Ti2Ni3TeO4
_symmetry_space_group_name_H-M   'P 1'
_cell_length_a   5.99795818
_cell_length_b   6.94232798
_cell_length_c   7.48384047
_cell_angle_alpha   117.59897614
_cell_angle_beta   90.00000000
_cell_angle_gamma   90.00000000
_symmetry_Int_Tables_number   1
_chemical_formula_structural   Ti2Ni3TeO4
_chemical_formula_sum   'Ti4 Ni6 Te2 O8'
_cell_volume   276.16627281
_cell_formula_units_Z   2
loop_
 _symmetry_equiv_pos_site_id
 _symmetry_equiv_pos_as_xyz
  1  'x, y, z'
loop_
 _atom_site_type_symbol
 _atom_site_label
 _atom_site_symmetry_multiplicity
 _atom_site_fract_x
 _atom_site_fract_y
 _atom_site_fract_z
 _atom_site_occupancy
  Ti  Ti0  1  0.49460498  0.25917800  0.00058700  1
  Ti  Ti1  1  0.00539500  0.25917800  0.50058699  1
  Ti  Ti2  1  0.99460497  0.74082200  0.49941299  1
  Ti  Ti3  1  0.50539498  0.74082200  0.99941298  1
  Ni  Ni4  1  0.64168298  0.06690600  0.63851798  1
  Ni  Ni5  1  0.85831697  0.06690600  0.13851800  1
  Ni  Ni6  1  0.14352100  0.43270700  0.86311098  1
  Ni  Ni7  1  0.35647899  0.43270700  0.36311099  1
  Ni  Ni8  1  0.64352098  0.56729300  0.63688898  1
  Te  Te9  1  0.85647897  0.56729300  0.13688900  1
  Te  Te10  1  0.14168300  0.93309400  0.86148198  1
  Ni  Ni11  1  0.35831699  0.93309400  0.36148199  1
  O  O12  1  0.27116699  0.09512200  0.68740998  1
  O  O13  1  0.22883299  0.09512200  0.18741000  1
  O  O14  1  0.77285198  0.40285900  0.80976098  1
  O  O15  1  0.72714798  0.40285900  0.30976099  1
  O  O16  1  0.27285199  0.59714100  0.69023898  1
  O  O17  1  0.22714799  0.59714100  0.19023900  1
  O  O18  1  0.77116698  0.90487800  0.81258998  1
  O  O19  1  0.72883298  0.90487800  0.31258999  1
