# generated using pymatgen
data_Al3Ni13
_symmetry_space_group_name_H-M   'P 1'
_cell_length_a   3.99942422
_cell_length_b   3.99942422
_cell_length_c   13.25832462
_cell_angle_alpha   81.32515717
_cell_angle_beta   81.32515717
_cell_angle_gamma   59.99999619
_symmetry_Int_Tables_number   1
_chemical_formula_structural   Al3Ni13
_chemical_formula_sum   'Al3 Ni13'
_cell_volume   180.85304443
_cell_formula_units_Z   1
loop_
 _symmetry_equiv_pos_site_id
 _symmetry_equiv_pos_as_xyz
  1  'x, y, z'
loop_
 _atom_site_type_symbol
 _atom_site_label
 _atom_site_symmetry_multiplicity
 _atom_site_fract_x
 _atom_site_fract_y
 _atom_site_fract_z
 _atom_site_occupancy
  Al  Al0  1  0.00000000  0.00000000  0.00000000  1
  Al  Al1  1  0.87466296  0.87466300  0.37601103  1
  Ni  Ni2  1  0.12533699  0.12533700  0.62398900  1
  Al  Al3  1  0.37498598  0.37498600  0.87504200  1
  Ni  Ni4  1  0.62501397  0.62501400  0.12495802  1
  Ni  Ni5  1  0.18750299  0.18750300  0.43749100  1
  Ni  Ni6  1  0.43773498  0.43773500  0.68679501  1
  Ni  Ni7  1  0.68913197  0.68913200  0.93260401  1
  Ni  Ni8  1  0.93582996  0.93583000  0.19251003  1
  Ni  Ni9  1  0.81249697  0.81249700  0.56250902  1
  Ni  Ni10  1  0.06417000  0.06417000  0.80748999  1
  Ni  Ni11  1  0.31086799  0.31086800  0.06739601  1
  Ni  Ni12  1  0.56226498  0.56226500  0.31320502  1
  Ni  Ni13  1  0.24977899  0.24977900  0.25066301  1
  Ni  Ni14  1  0.49999998  0.50000000  0.50000001  1
  Ni  Ni15  1  0.75022097  0.75022100  0.74933702  1
