# generated using pymatgen
data_AlNi2
_symmetry_space_group_name_H-M   'P 1'
_cell_length_a   3.61505890
_cell_length_b   4.19854164
_cell_length_c   4.19882298
_cell_angle_alpha   60.02827072
_cell_angle_beta   90.00000000
_cell_angle_gamma   90.00000000
_symmetry_Int_Tables_number   1
_chemical_formula_structural   AlNi2
_chemical_formula_sum   'Al1 Ni2'
_cell_volume   55.20719578
_cell_formula_units_Z   1
loop_
 _symmetry_equiv_pos_site_id
 _symmetry_equiv_pos_as_xyz
  1  'x, y, z'
loop_
 _atom_site_type_symbol
 _atom_site_label
 _atom_site_symmetry_multiplicity
 _atom_site_fract_x
 _atom_site_fract_y
 _atom_site_fract_z
 _atom_site_occupancy
  Ni  Ni0  1  0.00000000  0.99990401  0.99992105  1
  Ni  Ni1  1  0.50000001  0.66667200  0.66678203  1
  Al  Al2  1  0.50000001  0.33336967  0.33329702  1
