# generated using pymatgen
data_Ba4PrNdNi12
_symmetry_space_group_name_H-M   'P 1'
_cell_length_a   4.20560408
_cell_length_b   4.20560503
_cell_length_c   26.28603745
_cell_angle_alpha   90.00000000
_cell_angle_beta   90.00000000
_cell_angle_gamma   119.99999237
_symmetry_Int_Tables_number   1
_chemical_formula_structural   Ba4PrNdNi12
_chemical_formula_sum   'Ba4 Pr1 Nd1 Ni12'
_cell_volume   402.63604896
_cell_formula_units_Z   1
loop_
 _symmetry_equiv_pos_site_id
 _symmetry_equiv_pos_as_xyz
  1  'x, y, z'
loop_
 _atom_site_type_symbol
 _atom_site_label
 _atom_site_symmetry_multiplicity
 _atom_site_fract_x
 _atom_site_fract_y
 _atom_site_fract_z
 _atom_site_occupancy
  Nd  Nd0  1  0.00000000  0.00000000  0.66712599  1
  Ba  Ba1  1  0.00000000  0.00000000  0.16712600  1
  Ba  Ba2  1  0.00000000  0.00000000  0.83287399  1
  Ba  Ba3  1  0.00000000  0.00000000  0.00000000  1
  Ba  Ba4  1  0.00000000  0.00000000  0.33287399  1
  Pr  Pr5  1  0.00000000  0.00000000  0.49999999  1
  Ni  Ni6  1  0.66666665  0.33333333  0.59055099  1
  Ni  Ni7  1  0.66666665  0.33333333  0.74999999  1
  Ni  Ni8  1  0.66666665  0.33333333  0.90944898  1
  Ni  Ni9  1  0.33333333  0.66666665  0.09055100  1
  Ni  Ni10  1  0.33333333  0.66666665  0.25000000  1
  Ni  Ni11  1  0.33333333  0.66666665  0.40944899  1
  Ni  Ni12  1  0.66666665  0.33333333  0.42142599  1
  Ni  Ni13  1  0.66666665  0.33333333  0.07857400  1
  Ni  Ni14  1  0.66666665  0.33333333  0.25000000  1
  Ni  Ni15  1  0.33333333  0.66666665  0.74999999  1
  Ni  Ni16  1  0.33333333  0.66666665  0.92142598  1
  Ni  Ni17  1  0.33333333  0.66666665  0.57857399  1
