# generated using pymatgen
data_Ce11Ir7
_symmetry_space_group_name_H-M   'P 1'
_cell_length_a   7.82693195
_cell_length_b   7.83582020
_cell_length_c   8.56946945
_cell_angle_alpha   62.79381180
_cell_angle_beta   90.00000000
_cell_angle_gamma   90.00000000
_symmetry_Int_Tables_number   1
_chemical_formula_structural   Ce11Ir7
_chemical_formula_sum   'Ce11 Ir7'
_cell_volume   467.42395500
_cell_formula_units_Z   1
loop_
 _symmetry_equiv_pos_site_id
 _symmetry_equiv_pos_as_xyz
  1  'x, y, z'
loop_
 _atom_site_type_symbol
 _atom_site_label
 _atom_site_symmetry_multiplicity
 _atom_site_fract_x
 _atom_site_fract_y
 _atom_site_fract_z
 _atom_site_occupancy
  Ce  Ce0  1  0.00000000  0.00000000  0.00000000  1
  Ce  Ce1  1  0.50000000  0.49999998  0.00000001  1
  Ce  Ce2  1  0.83925000  0.45978298  0.75611699  1
  Ce  Ce3  1  0.16075000  0.78409997  0.75611700  1
  Ce  Ce4  1  0.33925000  0.28409999  0.75611699  1
  Ce  Ce5  1  0.66075000  0.95978296  0.75611701  1
  Ce  Ce6  1  0.16075000  0.54021698  0.24388301  1
  Ce  Ce7  1  0.83925000  0.21589999  0.24388300  1
  Ce  Ce8  1  0.66075000  0.71589997  0.24388301  1
  Ce  Ce9  1  0.33925000  0.04021700  0.24388299  1
  Ir  Ir10  1  1.00000001  0.20840399  0.58319199  1
  Ce  Ce11  1  0.50000000  0.70840397  0.58319200  1
  Ir  Ir12  1  -0.00000000  0.79159597  0.41680801  1
  Ir  Ir13  1  0.50000000  0.29159599  0.41680800  1
  Ir  Ir14  1  0.63488300  0.13657899  0.00000000  1
  Ir  Ir15  1  0.36511700  0.86342097  1.00000000  1
  Ir  Ir16  1  0.13488300  0.36342099  0.00000001  1
  Ir  Ir17  1  0.86511701  0.63657897  0.00000002  1
