# generated using pymatgen
data_LiFeCoO4
_symmetry_space_group_name_H-M   'P 1'
_cell_length_a   5.50411177
_cell_length_b   6.12134981
_cell_length_c   5.50411177
_cell_angle_alpha   116.71694183
_cell_angle_beta   90.00000000
_cell_angle_gamma   116.71694183
_symmetry_Int_Tables_number   1
_chemical_formula_structural   LiFeCoO4
_chemical_formula_sum   'Li2 Fe2 Co2 O8'
_cell_volume   143.13759370
_cell_formula_units_Z   2
loop_
 _symmetry_equiv_pos_site_id
 _symmetry_equiv_pos_as_xyz
  1  'x, y, z'
loop_
 _atom_site_type_symbol
 _atom_site_label
 _atom_site_symmetry_multiplicity
 _atom_site_fract_x
 _atom_site_fract_y
 _atom_site_fract_z
 _atom_site_occupancy
  Li  Li0  1  0.00000000  0.00000000  0.00000000  1
  Li  Li1  1  0.24999997  0.49999997  0.74999999  1
  Fe  Fe2  1  0.62499996  0.74999996  0.37499995  1
  Co  Co3  1  0.62500001  0.24999999  0.87500002  1
  Fe  Fe4  1  0.62500001  0.24999999  0.37499999  1
  Co  Co5  1  0.12499994  0.74999996  0.37499995  1
  O  O6  1  0.95785499  0.60592797  0.99717699  1
  O  O7  1  0.60192695  0.89407295  0.14124893  1
  O  O8  1  0.85875103  0.10592699  0.70785402  1
  O  O9  1  0.00282397  0.39407198  0.35192698  1
  O  O10  1  0.24717600  0.10592799  0.39807301  1
  O  O11  1  0.39124898  0.39407298  0.04214597  1
  O  O12  1  0.64807298  0.60592697  0.60875097  1
  O  O13  1  0.29214494  0.89407195  0.75282296  1
