# generated using pymatgen
data_NbFe7
_symmetry_space_group_name_H-M   'P 1'
_cell_length_a   4.42051411
_cell_length_b   5.38997984
_cell_length_c   5.38998032
_cell_angle_alpha   60.00000381
_cell_angle_beta   90.00000000
_cell_angle_gamma   90.00000000
_symmetry_Int_Tables_number   1
_chemical_formula_structural   NbFe7
_chemical_formula_sum   'Nb1 Fe7'
_cell_volume   111.21868328
_cell_formula_units_Z   1
loop_
 _symmetry_equiv_pos_site_id
 _symmetry_equiv_pos_as_xyz
  1  'x, y, z'
loop_
 _atom_site_type_symbol
 _atom_site_label
 _atom_site_symmetry_multiplicity
 _atom_site_fract_x
 _atom_site_fract_y
 _atom_site_fract_z
 _atom_site_occupancy
  Nb  Nb0  1  0.74999998  0.66666667  0.66666669  1
  Fe  Fe1  1  0.24999999  0.33333334  0.33333335  1
  Fe  Fe2  1  0.24999999  0.83070501  0.33859003  1
  Fe  Fe3  1  0.24999999  0.83070501  0.83070503  1
  Fe  Fe4  1  0.24999999  0.33859000  0.83070502  1
  Fe  Fe5  1  0.74999998  0.16929500  0.66141001  1
  Fe  Fe6  1  0.74999998  0.16929500  0.16929501  1
  Fe  Fe7  1  0.74999998  0.66141001  0.16929502  1
