# generated using pymatgen
data_Li5Mn2CoO5
_symmetry_space_group_name_H-M   'P 1'
_cell_length_a   4.20132923
_cell_length_b   4.20132923
_cell_length_c   8.60562897
_cell_angle_alpha   90.00000000
_cell_angle_beta   90.00000000
_cell_angle_gamma   90.00000000
_symmetry_Int_Tables_number   1
_chemical_formula_structural   Li5Mn2CoO5
_chemical_formula_sum   'Li5 Mn2 Co1 O5'
_cell_volume   151.89939670
_cell_formula_units_Z   1
loop_
 _symmetry_equiv_pos_site_id
 _symmetry_equiv_pos_as_xyz
  1  'x, y, z'
loop_
 _atom_site_type_symbol
 _atom_site_label
 _atom_site_symmetry_multiplicity
 _atom_site_fract_x
 _atom_site_fract_y
 _atom_site_fract_z
 _atom_site_occupancy
  Li  Li0  1  0.00000000  0.00000000  0.74403200  1
  Li  Li1  1  0.49999997  0.49999997  0.24095300  1
  Li  Li2  1  0.00000000  0.49999997  0.01658000  1
  Li  Li3  1  0.49999997  0.00000000  0.51450200  1
  Li  Li4  1  0.00000000  0.00000000  0.25596800  1
  Mn  Mn5  1  0.49999997  0.49999997  0.75904700  1
  Mn  Mn6  1  0.49999997  0.00000000  0.98342000  1
  Co  Co7  1  0.00000000  0.49999997  0.48549800  1
  O  O8  1  0.49999997  0.49999997  0.00000000  1
  O  O9  1  0.00000000  0.00000000  0.50000000  1
  O  O10  1  0.49999997  0.00000000  0.75005600  1
  O  O11  1  0.00000000  0.49999997  0.24994400  1
  O  O12  1  0.00000000  0.00000000  0.00000000  1
