# generated using pymatgen
data_LiV2Fe2GeP3
_symmetry_space_group_name_H-M   'P 1'
_cell_length_a   3.78297591
_cell_length_b   5.87732601
_cell_length_c   6.77423239
_cell_angle_alpha   115.70896912
_cell_angle_beta   106.21353912
_cell_angle_gamma   90.00000000
_symmetry_Int_Tables_number   1
_chemical_formula_structural   LiV2Fe2GeP3
_chemical_formula_sum   'Li1 V2 Fe2 Ge1 P3'
_cell_volume   129.02637641
_cell_formula_units_Z   1
loop_
 _symmetry_equiv_pos_site_id
 _symmetry_equiv_pos_as_xyz
  1  'x, y, z'
loop_
 _atom_site_type_symbol
 _atom_site_label
 _atom_site_symmetry_multiplicity
 _atom_site_fract_x
 _atom_site_fract_y
 _atom_site_fract_z
 _atom_site_occupancy
  Li  Li0  1  0.50000001  0.00000000  -0.00000001  1
  V  V1  1  0.29728200  0.29728200  0.59456400  1
  V  V2  1  0.70271799  0.70271800  0.40543598  1
  Fe  Fe3  1  -0.00000002  0.50000000  1.00000001  1
  Fe  Fe4  1  0.85260399  0.59337000  0.70520899  1
  Ge  Ge5  1  0.14739599  0.40663000  0.29479100  1
  P  P6  1  0.14739498  0.88816099  0.29478999  1
  P  P7  1  0.85260501  0.11183900  0.70520999  1
  P  P8  1  0.49999999  0.50000000  -0.00000002  1
