# generated using pymatgen
data_CePd
_symmetry_space_group_name_H-M   'P 1'
_cell_length_a   3.85003304
_cell_length_b   5.72780609
_cell_length_c   7.96277380
_cell_angle_alpha   90.00000000
_cell_angle_beta   90.00000000
_cell_angle_gamma   90.00000000
_symmetry_Int_Tables_number   1
_chemical_formula_structural   CePd
_chemical_formula_sum   'Ce4 Pd4'
_cell_volume   175.59702061
_cell_formula_units_Z   4
loop_
 _symmetry_equiv_pos_site_id
 _symmetry_equiv_pos_as_xyz
  1  'x, y, z'
loop_
 _atom_site_type_symbol
 _atom_site_label
 _atom_site_symmetry_multiplicity
 _atom_site_fract_x
 _atom_site_fract_y
 _atom_site_fract_z
 _atom_site_occupancy
  Ce  Ce0  1  0.25000000  0.38544999  0.67944702  1
  Ce  Ce1  1  0.74999999  0.61454999  0.32055301  1
  Ce  Ce2  1  0.74999999  0.88544999  0.82055302  1
  Ce  Ce3  1  0.25000000  0.11455000  0.17944700  1
  Pd  Pd4  1  0.25000000  0.87150899  0.53755701  1
  Pd  Pd5  1  0.74999999  0.12849100  0.46244301  1
  Pd  Pd6  1  0.74999999  0.37150899  0.96244302  1
  Pd  Pd7  1  0.25000000  0.62849099  0.03755700  1
