# generated using pymatgen
data_LaCe2BiPb5
_symmetry_space_group_name_H-M   'P 1'
_cell_length_a   4.79124403
_cell_length_b   7.87231779
_cell_length_c   7.87231874
_cell_angle_alpha   120.00000000
_cell_angle_beta   90.00000000
_cell_angle_gamma   90.00000000
_symmetry_Int_Tables_number   1
_chemical_formula_structural   LaCe2BiPb5
_chemical_formula_sum   'La1 Ce2 Bi1 Pb5'
_cell_volume   257.14862729
_cell_formula_units_Z   1
loop_
 _symmetry_equiv_pos_site_id
 _symmetry_equiv_pos_as_xyz
  1  'x, y, z'
loop_
 _atom_site_type_symbol
 _atom_site_label
 _atom_site_symmetry_multiplicity
 _atom_site_fract_x
 _atom_site_fract_y
 _atom_site_fract_z
 _atom_site_occupancy
  Ce  Ce0  1  0.50000000  0.00000000  0.57592799  1
  Ce  Ce1  1  0.50000000  0.42407202  0.42407201  1
  La  La2  1  0.50000000  0.57592803  0.00000003  1
  Bi  Bi3  1  0.99999999  0.74898404  0.74898401  1
  Pb  Pb4  1  0.99999999  0.25101601  0.99999999  1
  Pb  Pb5  1  -0.00000000  0.00000000  0.25101599  1
  Pb  Pb6  1  0.50000000  0.00000000  -0.00000000  1
  Pb  Pb7  1  0.99999999  0.33333335  0.66666666  1
  Pb  Pb8  1  0.99999999  0.66666670  0.33333336  1
