# generated using pymatgen
data_Ce2MnAlSiP7
_symmetry_space_group_name_H-M   'P 1'
_cell_length_a   4.90876007
_cell_length_b   4.90876007
_cell_length_c   7.77330208
_cell_angle_alpha   90.00000000
_cell_angle_beta   90.00000000
_cell_angle_gamma   120.00000000
_symmetry_Int_Tables_number   1
_chemical_formula_structural   Ce2MnAlSiP7
_chemical_formula_sum   'Ce2 Mn1 Al1 Si1 P7'
_cell_volume   162.21080793
_cell_formula_units_Z   1
loop_
 _symmetry_equiv_pos_site_id
 _symmetry_equiv_pos_as_xyz
  1  'x, y, z'
loop_
 _atom_site_type_symbol
 _atom_site_label
 _atom_site_symmetry_multiplicity
 _atom_site_fract_x
 _atom_site_fract_y
 _atom_site_fract_z
 _atom_site_occupancy
  Ce  Ce0  1  0.66666666  0.33333334  0.55974699  1
  Ce  Ce1  1  0.33333334  0.66666668  0.44025300  1
  Al  Al2  1  0.33333334  0.66666668  0.05974700  1
  Mn  Mn3  1  0.66666666  0.33333334  0.94025299  1
  Si  Si4  1  0.00000000  0.00000000  0.49999999  1
  P  P5  1  0.00000000  0.00000000  0.00000000  1
  P  P6  1  0.17187800  0.34375601  0.74999999  1
  P  P7  1  0.17187801  0.82812202  0.74999999  1
  P  P8  1  0.65624400  0.82812202  0.74999999  1
  P  P9  1  0.82812200  0.65624401  0.25000000  1
  P  P10  1  0.82812199  0.17187800  0.25000000  1
  P  P11  1  0.34375600  0.17187800  0.25000000  1
