# generated using pymatgen
data_Nd5Sn4
_symmetry_space_group_name_H-M   'P 1'
_cell_length_a   8.01455688
_cell_length_b   8.05322361
_cell_length_c   8.67334270
_cell_angle_alpha   90.00000000
_cell_angle_beta   117.51767731
_cell_angle_gamma   90.00000000
_symmetry_Int_Tables_number   1
_chemical_formula_structural   Nd5Sn4
_chemical_formula_sum   'Nd10 Sn8'
_cell_volume   496.47219025
_cell_formula_units_Z   2
loop_
 _symmetry_equiv_pos_site_id
 _symmetry_equiv_pos_as_xyz
  1  'x, y, z'
loop_
 _atom_site_type_symbol
 _atom_site_label
 _atom_site_symmetry_multiplicity
 _atom_site_fract_x
 _atom_site_fract_y
 _atom_site_fract_z
 _atom_site_occupancy
  Nd  Nd0  1  0.18850400  0.16510001  0.71725202  1
  Nd  Nd1  1  0.52874799  0.83490004  0.71725199  1
  Nd  Nd2  1  0.02874800  0.66510003  0.71725203  1
  Nd  Nd3  1  0.68850399  0.33490002  0.71725198  1
  Nd  Nd4  1  0.81149599  0.83490004  0.28274796  1
  Nd  Nd5  1  0.47125199  0.16510001  0.28274798  1
  Nd  Nd6  1  0.97125198  0.33490002  0.28274795  1
  Nd  Nd7  1  0.31149599  0.66510003  0.28274799  1
  Nd  Nd8  1  0.49999999  0.50000002  -0.00000003  1
  Nd  Nd9  1  0.00000000  0.00000000  0.00000000  1
  Sn  Sn10  1  0.29989699  0.50000002  0.59979500  1
  Sn  Sn11  1  0.79989699  0.00000000  0.59979497  1
  Sn  Sn12  1  0.70010299  0.50000002  0.40020497  1
  Sn  Sn13  1  0.20010300  0.00000000  0.40020500  1
  Sn  Sn14  1  0.62444699  0.12452101  -0.00000004  1
  Sn  Sn15  1  0.37555299  0.87547904  -0.00000002  1
  Sn  Sn16  1  0.87555299  0.62452103  -0.00000006  1
  Sn  Sn17  1  0.12444700  0.37547902  -0.00000001  1
