# generated using pymatgen
data_La3CeO4
_symmetry_space_group_name_H-M   'P 1'
_cell_length_a   5.43242598
_cell_length_b   5.43242598
_cell_length_c   6.73126221
_cell_angle_alpha   113.79854584
_cell_angle_beta   113.79854584
_cell_angle_gamma   90.00000000
_symmetry_Int_Tables_number   1
_chemical_formula_structural   La3CeO4
_chemical_formula_sum   'La3 Ce1 O4'
_cell_volume   163.12614074
_cell_formula_units_Z   1
loop_
 _symmetry_equiv_pos_site_id
 _symmetry_equiv_pos_as_xyz
  1  'x, y, z'
loop_
 _atom_site_type_symbol
 _atom_site_label
 _atom_site_symmetry_multiplicity
 _atom_site_fract_x
 _atom_site_fract_y
 _atom_site_fract_z
 _atom_site_occupancy
  Ce  Ce0  1  0.24999997  0.74999999  0.49999995  1
  La  La1  1  0.49999998  0.49999999  -0.00000003  1
  La  La2  1  0.00000000  0.00000000  0.00000000  1
  La  La3  1  0.74999999  0.25000000  0.49999996  1
  O  O4  1  0.99860097  0.49860099  0.99720193  1
  O  O5  1  0.75139897  0.75139899  0.50279794  1
  O  O6  1  0.50139900  0.00139900  0.00279799  1
  O  O7  1  0.24860099  0.24860100  0.49720197  1
