# generated using pymatgen
data_Li8NiO7
_symmetry_space_group_name_H-M   'P 1'
_cell_length_a   3.37889099
_cell_length_b   5.69114590
_cell_length_c   10.77516365
_cell_angle_alpha   90.00000000
_cell_angle_beta   90.00000000
_cell_angle_gamma   90.00000000
_symmetry_Int_Tables_number   1
_chemical_formula_structural   Li8NiO7
_chemical_formula_sum   'Li8 Ni1 O7'
_cell_volume   207.20382821
_cell_formula_units_Z   1
loop_
 _symmetry_equiv_pos_site_id
 _symmetry_equiv_pos_as_xyz
  1  'x, y, z'
loop_
 _atom_site_type_symbol
 _atom_site_label
 _atom_site_symmetry_multiplicity
 _atom_site_fract_x
 _atom_site_fract_y
 _atom_site_fract_z
 _atom_site_occupancy
  Li  Li0  1  0.25000000  0.08526500  0.86264803  1
  Li  Li1  1  0.25000000  0.58526501  0.63735202  1
  Li  Li2  1  0.75000000  0.91473502  0.13735200  1
  Li  Li3  1  0.75000000  0.41473501  0.36264801  1
  Li  Li4  1  0.25000000  0.40217801  0.10942700  1
  Li  Li5  1  0.25000000  0.90217802  0.39057301  1
  Li  Li6  1  0.75000000  0.59782201  0.89057303  1
  Li  Li7  1  0.75000000  0.09782200  0.60942702  1
  Ni  Ni8  1  0.25000000  0.15918600  0.24704001  1
  O  O9  1  0.25000000  0.65918601  0.25296001  1
  O  O10  1  0.75000000  0.84081402  0.75296002  1
  O  O11  1  0.75000000  0.34081401  0.74704002  1
  O  O12  1  0.25000000  0.72553301  0.98531403  1
  O  O13  1  0.25000000  0.22553300  0.51468602  1
  O  O14  1  0.75000000  0.27446700  0.01468600  1
  O  O15  1  0.75000000  0.77446701  0.48531402  1
