# generated using pymatgen
data_Li6MnO11
_symmetry_space_group_name_H-M   'P 1'
_cell_length_a   3.00706506
_cell_length_b   4.54725218
_cell_length_c   13.64675999
_cell_angle_alpha   92.15341949
_cell_angle_beta   90.00000000
_cell_angle_gamma   90.00000000
_symmetry_Int_Tables_number   1
_chemical_formula_structural   Li6MnO11
_chemical_formula_sum   'Li6 Mn1 O11'
_cell_volume   186.47242036
_cell_formula_units_Z   1
loop_
 _symmetry_equiv_pos_site_id
 _symmetry_equiv_pos_as_xyz
  1  'x, y, z'
loop_
 _atom_site_type_symbol
 _atom_site_label
 _atom_site_symmetry_multiplicity
 _atom_site_fract_x
 _atom_site_fract_y
 _atom_site_fract_z
 _atom_site_occupancy
  Li  Li0  1  0.00000000  0.00000000  0.00000000  1
  Li  Li1  1  0.00000000  0.97947596  0.33968103  1
  Li  Li2  1  0.00000000  0.02052400  0.66031902  1
  Li  Li3  1  0.49999999  0.51953498  0.15986701  1
  Li  Li4  1  0.49999999  0.49999998  0.50000002  1
  Li  Li5  1  0.49999999  0.48046498  0.84013303  1
  Mn  Mn6  1  0.49999999  0.19993699  0.60032602  1
  O  O7  1  0.49999999  0.19038099  0.93614703  1
  O  O8  1  0.00000000  0.30531499  0.10280401  1
  O  O9  1  0.00000000  0.30428199  0.76878303  1
  O  O10  1  0.00000000  0.30592999  0.43400102  1
  O  O11  1  0.00000000  0.69571797  0.23121702  1
  O  O12  1  0.00000000  0.69406997  0.56599903  1
  O  O13  1  0.00000000  0.69468497  0.89719604  1
  O  O14  1  0.49999999  0.80961897  0.06385301  1
  O  O15  1  0.49999999  0.80006297  0.39967402  1
  O  O16  1  0.49999999  0.19841799  0.26727701  1
  O  O17  1  0.49999999  0.80158197  0.73272303  1
