# generated using pymatgen
data_NaLiTeO6
_symmetry_space_group_name_H-M   'P 1'
_cell_length_a   4.48253298
_cell_length_b   4.48253298
_cell_length_c   7.81292725
_cell_angle_alpha   73.32955170
_cell_angle_beta   73.32955170
_cell_angle_gamma   59.99998856
_symmetry_Int_Tables_number   1
_chemical_formula_structural   NaLiTeO6
_chemical_formula_sum   'Na1 Li1 Te1 O6'
_cell_volume   128.27850519
_cell_formula_units_Z   1
loop_
 _symmetry_equiv_pos_site_id
 _symmetry_equiv_pos_as_xyz
  1  'x, y, z'
loop_
 _atom_site_type_symbol
 _atom_site_label
 _atom_site_symmetry_multiplicity
 _atom_site_fract_x
 _atom_site_fract_y
 _atom_site_fract_z
 _atom_site_occupancy
  Na  Na0  1  0.00000000  0.00000000  0.00000000  1
  Li  Li1  1  0.19193698  0.19193699  0.42418900  1
  O  O2  1  0.80806293  0.80806296  0.57581103  1
  Te  Te3  1  0.49999995  0.49999997  0.50000002  1
  O  O4  1  0.19133997  0.49999997  0.50000001  1
  O  O5  1  0.80865994  0.19133999  0.50000002  1
  O  O6  1  0.49999995  0.80865996  0.50000003  1
  O  O7  1  0.26238098  0.26238099  0.21285701  1
  O  O8  1  0.73761893  0.73761896  0.78714302  1
