# generated using pymatgen
data_Ce2FeIr2(RuRh)4
_symmetry_space_group_name_H-M   'P 1'
_cell_length_a   5.34495401
_cell_length_b   5.34495401
_cell_length_c   8.68671703
_cell_angle_alpha   90.00000000
_cell_angle_beta   90.00000000
_cell_angle_gamma   120.00000000
_symmetry_Int_Tables_number   1
_chemical_formula_structural   Ce2FeIr2(RuRh)4
_chemical_formula_sum   'Ce2 Fe1 Ru4 Ir2 Rh4'
_cell_volume   214.91872355
_cell_formula_units_Z   1
loop_
 _symmetry_equiv_pos_site_id
 _symmetry_equiv_pos_as_xyz
  1  'x, y, z'
loop_
 _atom_site_type_symbol
 _atom_site_label
 _atom_site_symmetry_multiplicity
 _atom_site_fract_x
 _atom_site_fract_y
 _atom_site_fract_z
 _atom_site_occupancy
  Ce  Ce0  1  0.00000000  0.00000000  0.00000000  1
  Ce  Ce1  1  0.50000000  1.00000001  0.23280500  1
  Ru  Ru2  1  0.50000000  1.00000001  0.76719500  1
  Fe  Fe3  1  0.00000000  0.50000000  0.23280500  1
  Ru  Ru4  1  0.00000000  0.50000000  0.76719500  1
  Ir  Ir5  1  0.50000000  0.50000000  0.23280500  1
  Ir  Ir6  1  0.50000000  0.50000000  0.76719500  1
  Rh  Rh7  1  0.33333334  0.66666667  0.50000000  1
  Rh  Rh8  1  0.66666667  0.33333334  0.50000000  1
  Ru  Ru9  1  0.00000000  0.00000000  0.33470400  1
  Ru  Ru10  1  0.00000000  0.00000000  0.66529600  1
  Rh  Rh11  1  0.33333334  0.66666667  -0.00000000  1
  Rh  Rh12  1  0.66666667  0.33333334  -0.00000000  1
