# generated using pymatgen
data_Li6CaMgSbO7
_symmetry_space_group_name_H-M   'P 1'
_cell_length_a   6.17321396
_cell_length_b   6.46220589
_cell_length_c   7.44549608
_cell_angle_alpha   90.00000000
_cell_angle_beta   90.00000000
_cell_angle_gamma   90.00000000
_symmetry_Int_Tables_number   1
_chemical_formula_structural   Li6CaMgSbO7
_chemical_formula_sum   'Li6 Ca1 Mg1 Sb1 O7'
_cell_volume   297.02004501
_cell_formula_units_Z   1
loop_
 _symmetry_equiv_pos_site_id
 _symmetry_equiv_pos_as_xyz
  1  'x, y, z'
loop_
 _atom_site_type_symbol
 _atom_site_label
 _atom_site_symmetry_multiplicity
 _atom_site_fract_x
 _atom_site_fract_y
 _atom_site_fract_z
 _atom_site_occupancy
  Mg  Mg0  1  0.99693201  0.84005501  0.49999999  1
  Li  Li1  1  0.49275000  0.67141201  0.25035400  1
  Li  Li2  1  0.49275000  0.67141201  0.74964599  1
  Li  Li3  1  0.99275001  0.32858801  0.75035399  1
  Li  Li4  1  0.49693200  0.15994500  0.00000000  1
  Li  Li5  1  0.99275001  0.32858801  0.24964600  1
  Ca  Ca6  1  0.49875600  0.16990100  0.49999999  1
  Li  Li7  1  0.99875601  0.83009901  0.00000000  1
  Sb  Sb8  1  0.62241300  0.33812601  0.24941100  1
  O  O9  1  0.12241300  0.66187401  0.25058900  1
  O  O10  1  0.12241300  0.66187401  0.74941099  1
  O  O11  1  0.62241300  0.33812601  0.75058899  1
  O  O12  1  0.62490900  0.83995301  0.49999999  1
  O  O13  1  0.12490900  0.16004700  0.00000000  1
  O  O14  1  0.62919700  0.82745201  0.00000000  1
  O  O15  1  0.12919700  0.17254800  0.49999999  1
