# generated using pymatgen
data_Ba3Bi2Sb2AsWI9O
_symmetry_space_group_name_H-M   'P 1'
_cell_length_a   3.43618011
_cell_length_b   6.91668129
_cell_length_c   18.50110245
_cell_angle_alpha   86.68906403
_cell_angle_beta   84.67159271
_cell_angle_gamma   75.61726379
_symmetry_Int_Tables_number   1
_chemical_formula_structural   Ba3Bi2Sb2AsWI9O
_chemical_formula_sum   'Ba3 Bi2 Sb2 As1 W1 I9 O1'
_cell_volume   423.81856557
_cell_formula_units_Z   1
loop_
 _symmetry_equiv_pos_site_id
 _symmetry_equiv_pos_as_xyz
  1  'x, y, z'
loop_
 _atom_site_type_symbol
 _atom_site_label
 _atom_site_symmetry_multiplicity
 _atom_site_fract_x
 _atom_site_fract_y
 _atom_site_fract_z
 _atom_site_occupancy
  Ba  Ba0  1  0.74341098  0.91789500  0.59528296  1
  Ba  Ba1  1  0.25658899  0.08210500  0.40471698  1
  Ba  Ba2  1  0.62043099  0.90806400  0.85107395  1
  W  W3  1  0.37956899  0.09193600  0.14892599  1
  Sb  Sb4  1  0.77236198  0.17220200  0.28307398  1
  Bi  Bi5  1  0.22763800  0.82779800  0.71692596  1
  Sb  Sb6  1  0.00000000  0.00000000  0.00000000  1
  Bi  Bi7  1  0.86966598  0.80649800  0.45416996  1
  I  I8  1  0.03478700  0.81207100  0.11835498  1
  I  I9  1  0.80947898  0.61424600  0.76679596  1
  I  I10  1  0.40016099  0.91860700  0.28107097  1
  I  I11  1  0.19024200  0.69202200  0.92749396  1
  I  I12  1  0.59983898  0.08139300  0.71892897  1
  O  O13  1  0.13033400  0.19350200  0.54582998  1
  I  I14  1  0.80975798  0.30797800  0.07250598  1
  As  As15  1  0.37679799  0.63384700  0.61255697  1
  I  I16  1  0.96521297  0.18792900  0.88164496  1
  I  I17  1  0.19052100  0.38575400  0.23320398  1
  I  I18  1  0.62320198  0.36615300  0.38744297  1
