# generated using pymatgen
data_Cu
_symmetry_space_group_name_H-M   'P 1'
_cell_length_a   3.96957612
_cell_length_b   3.96957612
_cell_length_c   7.49080849
_cell_angle_alpha   105.36476135
_cell_angle_beta   105.36476135
_cell_angle_gamma   90.00000000
_symmetry_Int_Tables_number   1
_chemical_formula_structural   Cu
_chemical_formula_sum   Cu5
_cell_volume   109.43655423
_cell_formula_units_Z   5
loop_
 _symmetry_equiv_pos_site_id
 _symmetry_equiv_pos_as_xyz
  1  'x, y, z'
loop_
 _atom_site_type_symbol
 _atom_site_label
 _atom_site_symmetry_multiplicity
 _atom_site_fract_x
 _atom_site_fract_y
 _atom_site_fract_z
 _atom_site_occupancy
  Cu  Cu0  1  0.00000000  0.00000000  0.00000000  1
  Cu  Cu1  1  0.34257099  0.34257099  0.68514198  1
  Cu  Cu2  1  0.65742897  0.65742898  0.31485798  1
  Cu  Cu3  1  0.74999997  0.24999999  0.49999998  1
  Cu  Cu4  1  0.24999999  0.74999997  0.49999998  1
