# generated using pymatgen
data_MgGa
_symmetry_space_group_name_H-M   'P 1'
_cell_length_a   4.01639414
_cell_length_b   4.41023397
_cell_length_c   5.90090513
_cell_angle_alpha   111.94345093
_cell_angle_beta   90.00000000
_cell_angle_gamma   90.00000000
_symmetry_Int_Tables_number   1
_chemical_formula_structural   MgGa
_chemical_formula_sum   'Mg2 Ga2'
_cell_volume   96.95168955
_cell_formula_units_Z   2
loop_
 _symmetry_equiv_pos_site_id
 _symmetry_equiv_pos_as_xyz
  1  'x, y, z'
loop_
 _atom_site_type_symbol
 _atom_site_label
 _atom_site_symmetry_multiplicity
 _atom_site_fract_x
 _atom_site_fract_y
 _atom_site_fract_z
 _atom_site_occupancy
  Mg  Mg0  1  0.24999999  0.13852900  0.27705800  1
  Mg  Mg1  1  0.74999997  0.86147100  0.72294200  1
  Ga  Ga2  1  0.24999999  0.41762400  0.83524800  1
  Ga  Ga3  1  0.74999997  0.58237600  0.16475200  1
