# generated using pymatgen
data_Ce2AlSi8
_symmetry_space_group_name_H-M   'P 1'
_cell_length_a   4.16372013
_cell_length_b   7.74185610
_cell_length_c   7.74185514
_cell_angle_alpha   120.00000000
_cell_angle_beta   90.00000000
_cell_angle_gamma   90.00000000
_symmetry_Int_Tables_number   1
_chemical_formula_structural   Ce2AlSi8
_chemical_formula_sum   'Ce2 Al1 Si8'
_cell_volume   216.12365206
_cell_formula_units_Z   1
loop_
 _symmetry_equiv_pos_site_id
 _symmetry_equiv_pos_as_xyz
  1  'x, y, z'
loop_
 _atom_site_type_symbol
 _atom_site_label
 _atom_site_symmetry_multiplicity
 _atom_site_fract_x
 _atom_site_fract_y
 _atom_site_fract_z
 _atom_site_occupancy
  Ce  Ce0  1  -0.00000000  0.33333332  0.66666664  1
  Ce  Ce1  1  0.99999997  0.66666663  0.33333329  1
  Al  Al2  1  0.49999998  0.28872199  0.28872198  1
  Si  Si3  1  0.49999998  0.00000000  0.71127800  1
  Si  Si4  1  -0.00000000  0.81143096  0.81143094  1
  Si  Si5  1  -0.00000000  0.18856899  -0.00000001  1
  Si  Si6  1  0.49999998  0.71127797  -0.00000005  1
  Si  Si7  1  0.99999997  0.00000000  0.18856900  1
  Si  Si8  1  0.49999998  0.62041897  0.62041896  1
  Si  Si9  1  0.49999998  0.37958098  -0.00000003  1
  Si  Si10  1  0.49999998  0.00000000  0.37958100  1
