# generated using pymatgen
data_NdNi2
_symmetry_space_group_name_H-M   'P 1'
_cell_length_a   4.03893423
_cell_length_b   4.03893471
_cell_length_c   15.43345642
_cell_angle_alpha   90.00000000
_cell_angle_beta   90.00000000
_cell_angle_gamma   119.99999237
_symmetry_Int_Tables_number   1
_chemical_formula_structural   NdNi2
_chemical_formula_sum   'Nd4 Ni8'
_cell_volume   218.03563492
_cell_formula_units_Z   4
loop_
 _symmetry_equiv_pos_site_id
 _symmetry_equiv_pos_as_xyz
  1  'x, y, z'
loop_
 _atom_site_type_symbol
 _atom_site_label
 _atom_site_symmetry_multiplicity
 _atom_site_fract_x
 _atom_site_fract_y
 _atom_site_fract_z
 _atom_site_occupancy
  Nd  Nd0  1  0.00000000  0.00000000  0.74999998  1
  Nd  Nd1  1  0.00000000  0.00000000  0.24999999  1
  Nd  Nd2  1  0.00000000  0.00000000  0.00000000  1
  Nd  Nd3  1  0.00000000  0.00000000  0.49999999  1
  Ni  Ni4  1  0.66666660  0.33333330  0.86469798  1
  Ni  Ni5  1  0.33333326  0.66666660  0.13530200  1
  Ni  Ni6  1  0.33333326  0.66666660  0.36469799  1
  Ni  Ni7  1  0.66666660  0.33333330  0.63530198  1
  Ni  Ni8  1  0.66666660  0.33333330  0.37986599  1
  Ni  Ni9  1  0.33333326  0.66666660  0.62013398  1
  Ni  Ni10  1  0.33333326  0.66666660  0.87986598  1
  Ni  Ni11  1  0.66666660  0.33333330  0.12013400  1
