# generated using pymatgen
data_Li3MnO5
_symmetry_space_group_name_H-M   'P 1'
_cell_length_a   5.06106091
_cell_length_b   5.62344980
_cell_length_c   9.37754250
_cell_angle_alpha   95.70104980
_cell_angle_beta   90.00000000
_cell_angle_gamma   90.00000000
_symmetry_Int_Tables_number   1
_chemical_formula_structural   Li3MnO5
_chemical_formula_sum   'Li6 Mn2 O10'
_cell_volume   265.57058370
_cell_formula_units_Z   2
loop_
 _symmetry_equiv_pos_site_id
 _symmetry_equiv_pos_as_xyz
  1  'x, y, z'
loop_
 _atom_site_type_symbol
 _atom_site_label
 _atom_site_symmetry_multiplicity
 _atom_site_fract_x
 _atom_site_fract_y
 _atom_site_fract_z
 _atom_site_occupancy
  Li  Li0  1  0.55444901  0.61123202  0.16633301  1
  Li  Li1  1  0.94471502  0.11233100  0.16609700  1
  Li  Li2  1  0.05444900  0.38876801  0.83366702  1
  Li  Li3  1  0.44471501  0.88766903  0.83390302  1
  Li  Li4  1  0.97899402  0.75231403  0.50391202  1
  Li  Li5  1  0.47899401  0.24768601  0.49608801  1
  Mn  Mn6  1  0.22214000  0.47122502  0.44531701  1
  Mn  Mn7  1  0.26452900  0.97263004  0.44433302  1
  O  O8  1  0.76452901  0.02737000  0.55566701  1
  O  O9  1  0.72214001  0.52877502  0.55468301  1
  O  O10  1  0.13943800  0.76433703  0.69062502  1
  O  O11  1  0.86052302  0.73467503  0.30843501  1
  O  O12  1  0.36052301  0.26532501  0.69156501  1
  O  O13  1  0.63943801  0.23566301  0.30937501  1
  O  O14  1  0.81446602  0.38934901  0.05873800  1
  O  O15  1  0.68183501  0.89102003  0.06096401  1
  O  O16  1  0.31446601  0.61065102  0.94126202  1
  O  O17  1  0.18183500  0.10898000  0.93903602  1
