# generated using pymatgen
data_NaTi4VS8
_symmetry_space_group_name_H-M   'P 1'
_cell_length_a   3.36554193
_cell_length_b   8.96788216
_cell_length_c   9.00081539
_cell_angle_alpha   103.21563721
_cell_angle_beta   100.77528381
_cell_angle_gamma   90.00000000
_symmetry_Int_Tables_number   1
_chemical_formula_structural   NaTi4VS8
_chemical_formula_sum   'Na1 Ti4 V1 S8'
_cell_volume   259.54348308
_cell_formula_units_Z   1
loop_
 _symmetry_equiv_pos_site_id
 _symmetry_equiv_pos_as_xyz
  1  'x, y, z'
loop_
 _atom_site_type_symbol
 _atom_site_label
 _atom_site_symmetry_multiplicity
 _atom_site_fract_x
 _atom_site_fract_y
 _atom_site_fract_z
 _atom_site_occupancy
  Na  Na0  1  0.49999997  0.49999999  -0.00000004  1
  Ti  Ti1  1  0.00000000  0.00000000  0.00000000  1
  Ti  Ti2  1  0.64873894  0.99397297  0.29747793  1
  Ti  Ti3  1  0.70550899  0.33104899  0.41101797  1
  V  V4  1  0.29449096  0.66895098  0.58898197  1
  Ti  Ti5  1  0.35126100  0.00602700  0.70252200  1
  S  S6  1  0.57201799  0.16767600  0.14403598  1
  S  S7  1  0.08897795  0.83001298  0.17795595  1
  S  S8  1  0.17030697  0.49176899  0.34061397  1
  S  S9  1  0.23947699  0.15071700  0.47895399  1
  S  S10  1  0.76052295  0.84928298  0.52104594  1
  S  S11  1  0.82969298  0.50823099  0.65938597  1
  S  S12  1  0.91102200  0.16998700  0.82204399  1
  S  S13  1  0.42798195  0.83232398  0.85596396  1
