# generated using pymatgen
data_K3InBiTeO3F
_symmetry_space_group_name_H-M   'P 1'
_cell_length_a   7.36384821
_cell_length_b   7.62165976
_cell_length_c   7.36384821
_cell_angle_alpha   118.88720703
_cell_angle_beta   90.00000000
_cell_angle_gamma   118.88720703
_symmetry_Int_Tables_number   1
_chemical_formula_structural   K3InBiTeO3F
_chemical_formula_sum   'K3 In1 Bi1 Te1 O3 F1'
_cell_volume   301.80491885
_cell_formula_units_Z   1
loop_
 _symmetry_equiv_pos_site_id
 _symmetry_equiv_pos_as_xyz
  1  'x, y, z'
loop_
 _atom_site_type_symbol
 _atom_site_label
 _atom_site_symmetry_multiplicity
 _atom_site_fract_x
 _atom_site_fract_y
 _atom_site_fract_z
 _atom_site_occupancy
  K  K0  1  0.74999998  0.50000002  0.25000000  1
  K  K1  1  0.25000000  0.50000002  0.74999998  1
  K  K2  1  0.49999999  0.00000000  0.49999999  1
  In  In3  1  0.00000000  0.00000000  0.00000000  1
  Bi  Bi4  1  0.23323599  0.00000000  0.76676398  1
  F  F5  1  0.23323599  0.00000000  0.23323599  1
  O  O6  1  0.76676398  0.00000000  0.76676398  1
  Te  Te7  1  0.76676399  1.00000003  0.23323601  1
  O  O8  1  0.71772998  0.43546001  0.71772999  1
  O  O9  1  0.28227000  0.56454002  0.28227000  1
