# generated using pymatgen
data_NaTiO4
_symmetry_space_group_name_H-M   'P 1'
_cell_length_a   7.02748251
_cell_length_b   7.02748251
_cell_length_c   7.02748251
_cell_angle_alpha   63.43965530
_cell_angle_beta   63.43965530
_cell_angle_gamma   63.43965912
_symmetry_Int_Tables_number   1
_chemical_formula_structural   NaTiO4
_chemical_formula_sum   'Na3 Ti3 O12'
_cell_volume   264.08061300
_cell_formula_units_Z   3
loop_
 _symmetry_equiv_pos_site_id
 _symmetry_equiv_pos_as_xyz
  1  'x, y, z'
loop_
 _atom_site_type_symbol
 _atom_site_label
 _atom_site_symmetry_multiplicity
 _atom_site_fract_x
 _atom_site_fract_y
 _atom_site_fract_z
 _atom_site_occupancy
  Na  Na0  1  0.50000003  0.50000002  0.49999999  1
  Na  Na1  1  0.50000002  0.00000000  0.50000000  1
  Na  Na2  1  0.00000001  0.50000002  0.50000000  1
  Ti  Ti3  1  0.50000003  0.50000002  -0.00000002  1
  Ti  Ti4  1  0.15300301  0.15300300  0.15300300  1
  Ti  Ti5  1  0.84699705  0.84699703  0.84699698  1
  O  O6  1  0.34897604  0.95132503  0.34897597  1
  O  O7  1  0.95132505  0.34897601  0.34897598  1
  O  O8  1  0.34897602  0.34897601  0.95132500  1
  O  O9  1  0.65102403  0.04867500  0.65102400  1
  O  O10  1  0.04867502  0.65102402  0.65102400  1
  O  O11  1  0.65102404  0.65102402  0.04867497  1
  O  O12  1  0.38193303  0.75806702  0.75806699  1
  O  O13  1  0.75806704  0.38193301  0.75806699  1
  O  O14  1  0.75806705  0.75806702  0.38193297  1
  O  O15  1  0.24193302  0.61806702  0.24193298  1
  O  O16  1  0.24193302  0.24193301  0.61806700  1
  O  O17  1  0.61806703  0.24193301  0.24193299  1
