# generated using pymatgen
data_CePd2
_symmetry_space_group_name_H-M   'P 1'
_cell_length_a   3.97334599
_cell_length_b   6.66838503
_cell_length_c   8.12039757
_cell_angle_alpha   90.00000000
_cell_angle_beta   90.00000000
_cell_angle_gamma   90.00000000
_symmetry_Int_Tables_number   1
_chemical_formula_structural   CePd2
_chemical_formula_sum   'Ce4 Pd8'
_cell_volume   215.15643757
_cell_formula_units_Z   4
loop_
 _symmetry_equiv_pos_site_id
 _symmetry_equiv_pos_as_xyz
  1  'x, y, z'
loop_
 _atom_site_type_symbol
 _atom_site_label
 _atom_site_symmetry_multiplicity
 _atom_site_fract_x
 _atom_site_fract_y
 _atom_site_fract_z
 _atom_site_occupancy
  Ce  Ce0  1  0.75000000  0.46383200  0.82837904  1
  Ce  Ce1  1  0.25000000  0.53616800  0.17162101  1
  Ce  Ce2  1  0.75000000  0.96383200  0.67162104  1
  Ce  Ce3  1  0.25000000  0.03616800  0.32837902  1
  Pd  Pd4  1  0.75000000  0.35918400  0.42966202  1
  Pd  Pd5  1  0.25000000  0.64081600  0.57033803  1
  Pd  Pd6  1  0.75000000  0.85918400  0.07033800  1
  Pd  Pd7  1  0.25000000  0.14081600  0.92966205  1
  Pd  Pd8  1  0.75000000  0.23909800  0.12137501  1
  Pd  Pd9  1  0.25000000  0.76090200  0.87862505  1
  Pd  Pd10  1  0.75000000  0.73909800  0.37862502  1
  Pd  Pd11  1  0.25000000  0.26090200  0.62137503  1
