# generated using pymatgen
data_ThTa(FeN3)4
_symmetry_space_group_name_H-M   'P 1'
_cell_length_a   7.42152977
_cell_length_b   7.42152977
_cell_length_c   7.42152977
_cell_angle_alpha   60.00000000
_cell_angle_beta   60.00000000
_cell_angle_gamma   60.00000000
_symmetry_Int_Tables_number   1
_chemical_formula_structural   ThTa(FeN3)4
_chemical_formula_sum   'Th1 Ta1 Fe4 N12'
_cell_volume   289.04489523
_cell_formula_units_Z   1
loop_
 _symmetry_equiv_pos_site_id
 _symmetry_equiv_pos_as_xyz
  1  'x, y, z'
loop_
 _atom_site_type_symbol
 _atom_site_label
 _atom_site_symmetry_multiplicity
 _atom_site_fract_x
 _atom_site_fract_y
 _atom_site_fract_z
 _atom_site_occupancy
  Ta  Ta0  1  0.25000000  0.25000000  0.25000000  1
  Th  Th1  1  0.50000000  0.50000000  0.50000000  1
  Fe  Fe2  1  0.37500000  0.87500000  0.87500000  1
  Fe  Fe3  1  0.87500000  0.87500000  0.37500000  1
  Fe  Fe4  1  0.87500000  0.87500000  0.87500000  1
  Fe  Fe5  1  0.87500000  0.37500000  0.87500000  1
  N  N6  1  0.93632499  0.56367500  0.93632499  1
  N  N7  1  0.81367500  0.81367500  0.18632500  1
  N  N8  1  0.18632500  0.81367500  0.18632500  1
  N  N9  1  0.56367500  0.93632499  0.93632499  1
  N  N10  1  0.56367500  0.56367500  0.93632499  1
  N  N11  1  0.93632499  0.56367500  0.56367500  1
  N  N12  1  0.18632500  0.18632500  0.81367500  1
  N  N13  1  0.18632500  0.81367500  0.81367500  1
  N  N14  1  0.81367500  0.18632500  0.18632500  1
  N  N15  1  0.56367500  0.93632499  0.56367500  1
  N  N16  1  0.93632499  0.93632499  0.56367500  1
  N  N17  1  0.81367500  0.18632500  0.81367500  1
