# generated using pymatgen
data_Nb4Fe5(B2N3)2
_symmetry_space_group_name_H-M   'P 1'
_cell_length_a   3.77918005
_cell_length_b   3.77918005
_cell_length_c   19.00610924
_cell_angle_alpha   95.70578003
_cell_angle_beta   95.70578003
_cell_angle_gamma   90.00000000
_symmetry_Int_Tables_number   1
_chemical_formula_structural   Nb4Fe5(B2N3)2
_chemical_formula_sum   'Nb4 Fe5 B4 N6'
_cell_volume   268.75259425
_cell_formula_units_Z   1
loop_
 _symmetry_equiv_pos_site_id
 _symmetry_equiv_pos_as_xyz
  1  'x, y, z'
loop_
 _atom_site_type_symbol
 _atom_site_label
 _atom_site_symmetry_multiplicity
 _atom_site_fract_x
 _atom_site_fract_y
 _atom_site_fract_z
 _atom_site_occupancy
  Nb  Nb0  1  0.36547899  0.36547900  0.73095803  1
  Nb  Nb1  1  0.63452099  0.63452099  0.26904201  1
  Nb  Nb2  1  0.45656399  0.45656399  0.91312804  1
  Nb  Nb3  1  0.54343599  0.54343599  0.08687200  1
  Fe  Fe4  1  0.08489900  0.08489800  0.16979701  1
  Fe  Fe5  1  0.91510099  0.91510199  0.83020303  1
  Fe  Fe6  1  0.00000000  0.00000000  0.00000000  1
  Fe  Fe7  1  0.21112400  0.21112500  0.42224902  1
  Fe  Fe8  1  0.78887599  0.78887499  0.57775102  1
  B  B9  1  0.28899200  0.28899300  0.57798502  1
  B  B10  1  0.71100799  0.71100699  0.42201502  1
  N  N11  1  0.15602500  0.15602400  0.31204901  1
  B  B12  1  0.84397499  0.84397599  0.68795103  1
  N  N13  1  0.49999999  0.00000000  -0.00000000  1
  N  N14  1  -0.00000000  0.49999999  -0.00000000  1
  N  N15  1  0.58610699  0.08610700  0.17221401  1
  B  B16  1  0.41389299  0.91389299  0.82778603  1
  N  N17  1  0.08610700  0.58610699  0.17221401  1
  N  N18  1  0.91389299  0.41389299  0.82778603  1
