# generated using pymatgen
data_K3TlF4
_symmetry_space_group_name_H-M   'P 1'
_cell_length_a   6.75753975
_cell_length_b   6.75753975
_cell_length_c   6.75753975
_cell_angle_alpha   107.26278687
_cell_angle_beta   107.26278687
_cell_angle_gamma   113.98457336
_symmetry_Int_Tables_number   1
_chemical_formula_structural   K3TlF4
_chemical_formula_sum   'K3 Tl1 F4'
_cell_volume   236.42937849
_cell_formula_units_Z   1
loop_
 _symmetry_equiv_pos_site_id
 _symmetry_equiv_pos_as_xyz
  1  'x, y, z'
loop_
 _atom_site_type_symbol
 _atom_site_label
 _atom_site_symmetry_multiplicity
 _atom_site_fract_x
 _atom_site_fract_y
 _atom_site_fract_z
 _atom_site_occupancy
  K  K0  1  0.25000006  0.75000004  0.50000005  1
  K  K1  1  0.75000007  0.75000004  1.00000006  1
  K  K2  1  0.25000002  0.25000001  1.00000003  1
  Tl  Tl3  1  0.75000003  0.25000001  0.50000003  1
  F  F4  1  0.78907503  0.28907502  0.13206703  1
  F  F5  1  0.15700805  0.65700804  0.86793304  1
  F  F6  1  0.71092508  0.84299205  0.50000006  1
  F  F7  1  0.34299202  0.21092501  0.50000002  1
