# generated using pymatgen
data_Na2LiCu2
_symmetry_space_group_name_H-M   'P 1'
_cell_length_a   4.23977423
_cell_length_b   4.23977423
_cell_length_c   7.80863333
_cell_angle_alpha   105.75234985
_cell_angle_beta   105.75234985
_cell_angle_gamma   90.00000000
_symmetry_Int_Tables_number   1
_chemical_formula_structural   Na2LiCu2
_chemical_formula_sum   'Na2 Li1 Cu2'
_cell_volume   129.60819679
_cell_formula_units_Z   1
loop_
 _symmetry_equiv_pos_site_id
 _symmetry_equiv_pos_as_xyz
  1  'x, y, z'
loop_
 _atom_site_type_symbol
 _atom_site_label
 _atom_site_symmetry_multiplicity
 _atom_site_fract_x
 _atom_site_fract_y
 _atom_site_fract_z
 _atom_site_occupancy
  Li  Li0  1  0.66655298  0.66655297  0.33310602  1
  Na  Na1  1  0.33344699  0.33344698  0.66689400  1
  Cu  Cu2  1  0.00000000  0.00000000  0.00000000  1
  Na  Na3  1  0.86100897  0.86100896  0.72201802  1
  Cu  Cu4  1  0.13899100  0.13899099  0.27798200  1
