# generated using pymatgen
data_Ce4Ir5Pt2O3
_symmetry_space_group_name_H-M   'P 1'
_cell_length_a   5.17824888
_cell_length_b   6.61372948
_cell_length_c   6.61372948
_cell_angle_alpha   70.19328308
_cell_angle_beta   81.45649719
_cell_angle_gamma   81.45649719
_symmetry_Int_Tables_number   1
_chemical_formula_structural   Ce4Ir5Pt2O3
_chemical_formula_sum   'Ce4 Ir5 Pt2 O3'
_cell_volume   209.56186663
_cell_formula_units_Z   1
loop_
 _symmetry_equiv_pos_site_id
 _symmetry_equiv_pos_as_xyz
  1  'x, y, z'
loop_
 _atom_site_type_symbol
 _atom_site_label
 _atom_site_symmetry_multiplicity
 _atom_site_fract_x
 _atom_site_fract_y
 _atom_site_fract_z
 _atom_site_occupancy
  Ce  Ce0  1  0.50000000  0.00000000  0.00000000  1
  Ce  Ce1  1  0.80239701  0.00298400  0.64367502  1
  Ce  Ce2  1  0.19760301  0.99701601  0.35632505  1
  Ce  Ce3  1  0.19760300  0.35632500  0.99701604  1
  Ir  Ir4  1  0.80239701  0.64367501  0.00298403  1
  Ir  Ir5  1  0.67884701  0.78102301  0.37391204  1
  Ir  Ir6  1  0.32115300  0.21897700  0.62608803  1
  Ir  Ir7  1  0.32115301  0.62608801  0.21897703  1
  Ir  Ir8  1  0.67884701  0.37391200  0.78102304  1
  O  O9  1  0.00000000  0.00000000  0.00000000  1
  Pt  Pt10  1  0.93336401  0.38700600  0.38700603  1
  Pt  Pt11  1  0.06663600  0.61299401  0.61299404  1
  O  O12  1  0.63692301  0.22085000  0.22085002  1
  O  O13  1  0.36307701  0.77915001  0.77915005  1
