# generated using pymatgen
data_TiCrMo
_symmetry_space_group_name_H-M   'P 1'
_cell_length_a   2.84192204
_cell_length_b   2.84192204
_cell_length_c   7.10854292
_cell_angle_alpha   97.57984161
_cell_angle_beta   97.57984161
_cell_angle_gamma   109.88386536
_symmetry_Int_Tables_number   1
_chemical_formula_structural   TiCrMo
_chemical_formula_sum   'Ti1 Cr1 Mo1'
_cell_volume   52.54674159
_cell_formula_units_Z   1
loop_
 _symmetry_equiv_pos_site_id
 _symmetry_equiv_pos_as_xyz
  1  'x, y, z'
loop_
 _atom_site_type_symbol
 _atom_site_label
 _atom_site_symmetry_multiplicity
 _atom_site_fract_x
 _atom_site_fract_y
 _atom_site_fract_z
 _atom_site_occupancy
  Ti  Ti0  1  0.67076900  0.67076900  0.34153801  1
  Cr  Cr1  1  0.99667101  0.99667099  0.99334202  1
  Mo  Mo2  1  0.33256200  0.33256200  0.66512402  1
