# generated using pymatgen
data_NaCaCu2NiO13
_symmetry_space_group_name_H-M   'P 1'
_cell_length_a   3.54736400
_cell_length_b   3.54736400
_cell_length_c   15.87160301
_cell_angle_alpha   96.41631317
_cell_angle_beta   96.41631317
_cell_angle_gamma   90.00000000
_symmetry_Int_Tables_number   1
_chemical_formula_structural   NaCaCu2NiO13
_chemical_formula_sum   'Na1 Ca1 Cu2 Ni1 O13'
_cell_volume   197.21490682
_cell_formula_units_Z   1
loop_
 _symmetry_equiv_pos_site_id
 _symmetry_equiv_pos_as_xyz
  1  'x, y, z'
loop_
 _atom_site_type_symbol
 _atom_site_label
 _atom_site_symmetry_multiplicity
 _atom_site_fract_x
 _atom_site_fract_y
 _atom_site_fract_z
 _atom_site_occupancy
  Ca  Ca0  1  0.49999999  0.50000000  -0.00000001  1
  Na  Na1  1  0.16666600  0.16666600  0.33333199  1
  Cu  Cu2  1  0.83333399  0.83333400  0.66666797  1
  Ni  Ni3  1  0.58333800  0.08333800  0.16667599  1
  Cu  Cu4  1  0.24999999  0.75000000  0.49999998  1
  O  O5  1  0.91666199  0.41666200  0.83332397  1
  O  O6  1  0.08333799  0.58333800  0.16667599  1
  O  O7  1  0.74999999  0.25000000  0.49999998  1
  O  O8  1  0.41666199  0.91666200  0.83332397  1
  O  O9  1  0.61894399  0.61894400  0.23788798  1
  O  O10  1  0.28563000  0.28563000  0.57125998  1
  O  O11  1  0.95229599  0.95229600  0.90459197  1
  O  O12  1  0.04770400  0.04770400  0.09540800  1
  O  O13  1  0.71436999  0.71437000  0.42873998  1
  O  O14  1  0.38105599  0.38105600  0.76211198  1
  O  O15  1  0.00000000  0.00000000  0.00000000  1
  O  O16  1  0.66666666  0.66666666  0.33333331  1
  O  O17  1  0.33333333  0.33333333  0.66666665  1
