# generated using pymatgen
data_Sc2ZnNi5
_symmetry_space_group_name_H-M   'P 1'
_cell_length_a   3.49685597
_cell_length_b   5.37113285
_cell_length_c   5.81585217
_cell_angle_alpha   90.00000000
_cell_angle_beta   90.00000000
_cell_angle_gamma   90.00000000
_symmetry_Int_Tables_number   1
_chemical_formula_structural   Sc2ZnNi5
_chemical_formula_sum   'Sc2 Zn1 Ni5'
_cell_volume   109.23378899
_cell_formula_units_Z   1
loop_
 _symmetry_equiv_pos_site_id
 _symmetry_equiv_pos_as_xyz
  1  'x, y, z'
loop_
 _atom_site_type_symbol
 _atom_site_label
 _atom_site_symmetry_multiplicity
 _atom_site_fract_x
 _atom_site_fract_y
 _atom_site_fract_z
 _atom_site_occupancy
  Ni  Ni0  1  0.25000000  0.50649201  0.69000098  1
  Sc  Sc1  1  0.75000001  0.49350801  0.30999899  1
  Sc  Sc2  1  0.25000000  0.00649200  0.80999898  1
  Zn  Zn3  1  0.75000001  0.99350803  0.19000099  1
  Ni  Ni4  1  0.25000000  0.68939402  0.08882200  1
  Ni  Ni5  1  0.75000001  0.31060601  0.91117797  1
  Ni  Ni6  1  0.25000000  0.18939401  0.41117799  1
  Ni  Ni7  1  0.75000001  0.81060602  0.58882198  1
