# generated using pymatgen
data_Li8MnO9
_symmetry_space_group_name_H-M   'P 1'
_cell_length_a   5.64159632
_cell_length_b   5.64159632
_cell_length_c   7.26380157
_cell_angle_alpha   74.24865723
_cell_angle_beta   74.24865723
_cell_angle_gamma   73.91720581
_symmetry_Int_Tables_number   1
_chemical_formula_structural   Li8MnO9
_chemical_formula_sum   'Li8 Mn1 O9'
_cell_volume   208.92945218
_cell_formula_units_Z   1
loop_
 _symmetry_equiv_pos_site_id
 _symmetry_equiv_pos_as_xyz
  1  'x, y, z'
loop_
 _atom_site_type_symbol
 _atom_site_label
 _atom_site_symmetry_multiplicity
 _atom_site_fract_x
 _atom_site_fract_y
 _atom_site_fract_z
 _atom_site_occupancy
  Li  Li0  1  0.67306901  0.67306897  0.84518798  1
  Li  Li1  1  0.65207801  0.65207798  0.31262599  1
  Li  Li2  1  0.33945000  0.33944999  0.66375498  1
  Li  Li3  1  0.33828900  0.33828899  0.17763400  1
  Li  Li4  1  0.99836901  0.99836896  0.49681999  1
  Li  Li5  1  0.99130601  0.99130596  0.99586897  1
  Li  Li6  1  0.44114400  0.44114398  0.36955499  1
  O  O7  1  0.76284001  0.76283997  0.02742700  1
  Li  Li8  1  0.97043599  0.36078799  0.33106899  1
  O  O9  1  0.63983298  0.03001400  0.67208698  1
  O  O10  1  0.57808301  0.57808298  0.64069798  1
  Mn  Mn11  1  0.88468801  0.88468797  0.29941199  1
  O  O12  1  0.23190600  0.23190599  0.96774597  1
  O  O13  1  0.10439000  0.10439000  0.70015598  1
  O  O14  1  0.36078803  0.97043596  0.33106899  1
  O  O15  1  0.03001402  0.63983298  0.67208698  1
  O  O16  1  0.69703299  0.30628199  0.99839897  1
  O  O17  1  0.30628202  0.69703297  0.99839897  1
