# generated using pymatgen
data_Hf5TiNi10
_symmetry_space_group_name_H-M   'P 1'
_cell_length_a   5.10935783
_cell_length_b   7.57901144
_cell_length_c   7.57901144
_cell_angle_alpha   83.47607422
_cell_angle_beta   70.30136108
_cell_angle_gamma   70.30136108
_symmetry_Int_Tables_number   1
_chemical_formula_structural   Hf5TiNi10
_chemical_formula_sum   'Hf5 Ti1 Ni10'
_cell_volume   260.14309723
_cell_formula_units_Z   1
loop_
 _symmetry_equiv_pos_site_id
 _symmetry_equiv_pos_as_xyz
  1  'x, y, z'
loop_
 _atom_site_type_symbol
 _atom_site_label
 _atom_site_symmetry_multiplicity
 _atom_site_fract_x
 _atom_site_fract_y
 _atom_site_fract_z
 _atom_site_occupancy
  Ti  Ti0  1  0.42403496  0.85667600  0.29525400  1
  Hf  Hf1  1  0.28071099  0.29525400  0.14332400  1
  Hf  Hf2  1  0.57596502  0.14332400  0.70474598  1
  Hf  Hf3  1  0.24999997  0.50000000  0.50000000  1
  Hf  Hf4  1  0.07596495  0.70474600  0.14332401  1
  Ni  Ni5  1  0.21928895  0.85667600  0.70474601  1
  Hf  Hf6  1  0.71928898  0.70474600  0.85667599  1
  Ni  Ni7  1  0.92403502  0.29525400  0.85667597  1
  Ni  Ni8  1  0.78071103  0.14332400  0.29525398  1
  Ni  Ni9  1  0.75000000  0.50000000  0.49999998  1
  Ni  Ni10  1  0.83527898  0.82944200  0.49999999  1
  Ni  Ni11  1  0.25000001  0.00000000  0.99999998  1
  Ni  Ni12  1  0.75000004  0.00000000  0.99999997  1
  Ni  Ni13  1  0.33527898  0.50000000  0.82944199  1
  Ni  Ni14  1  0.66472099  0.50000000  0.17055799  1
  Ni  Ni15  1  0.16472099  0.17055800  0.49999999  1
