# generated using pymatgen
data_LaCe2SiGe3
_symmetry_space_group_name_H-M   'P 1'
_cell_length_a   4.43058920
_cell_length_b   4.43058920
_cell_length_c   9.59720039
_cell_angle_alpha   90.00000000
_cell_angle_beta   90.00000000
_cell_angle_gamma   90.00000000
_symmetry_Int_Tables_number   1
_chemical_formula_structural   LaCe2SiGe3
_chemical_formula_sum   'La1 Ce2 Si1 Ge3'
_cell_volume   188.39420164
_cell_formula_units_Z   1
loop_
 _symmetry_equiv_pos_site_id
 _symmetry_equiv_pos_as_xyz
  1  'x, y, z'
loop_
 _atom_site_type_symbol
 _atom_site_label
 _atom_site_symmetry_multiplicity
 _atom_site_fract_x
 _atom_site_fract_y
 _atom_site_fract_z
 _atom_site_occupancy
  Ce  Ce0  1  0.00000000  0.49999998  0.23843699  1
  La  La1  1  0.49999998  0.00000000  0.76156297  1
  Si  Si2  1  0.49999998  0.49999998  -0.00000000  1
  Ce  Ce3  1  0.00000000  0.49999998  0.87603196  1
  Ge  Ge4  1  0.49999998  0.00000000  0.12396799  1
  Ge  Ge5  1  0.49999998  0.49999998  0.49999998  1
  Ge  Ge6  1  0.00000000  0.00000000  0.49999998  1
