# generated using pymatgen
data_Ba3SrTlS9
_symmetry_space_group_name_H-M   'P 1'
_cell_length_a   5.02085781
_cell_length_b   6.24523783
_cell_length_c   15.05198956
_cell_angle_alpha   90.00000000
_cell_angle_beta   90.00000000
_cell_angle_gamma   113.70169830
_symmetry_Int_Tables_number   1
_chemical_formula_structural   Ba3SrTlS9
_chemical_formula_sum   'Ba3 Sr1 Tl1 S9'
_cell_volume   432.16603740
_cell_formula_units_Z   1
loop_
 _symmetry_equiv_pos_site_id
 _symmetry_equiv_pos_as_xyz
  1  'x, y, z'
loop_
 _atom_site_type_symbol
 _atom_site_label
 _atom_site_symmetry_multiplicity
 _atom_site_fract_x
 _atom_site_fract_y
 _atom_site_fract_z
 _atom_site_occupancy
  Ba  Ba0  1  0.80489401  0.60978797  0.88861603  1
  Ba  Ba1  1  0.19510600  0.39021198  0.11138400  1
  Ba  Ba2  1  0.80489401  0.60978797  0.61138402  1
  Sr  Sr3  1  0.19510600  0.39021198  0.38861601  1
  S  S4  1  0.51804302  0.03608600  0.75000002  1
  Tl  Tl5  1  0.48195699  0.96391396  0.25000001  1
  S  S6  1  0.50000002  0.00000000  1.00000003  1
  S  S7  1  0.50000002  0.00000000  0.50000001  1
  S  S8  1  0.88639501  0.77278997  0.37494201  1
  S  S9  1  0.11360500  0.22720999  0.62505802  1
  S  S10  1  0.11360500  0.22720999  0.87494203  1
  S  S11  1  0.88639501  0.77278997  0.12505800  1
  S  S12  1  0.21219700  0.42439398  0.75000002  1
  S  S13  1  0.78780301  0.57560597  0.25000001  1
