# generated using pymatgen
data_Ba7SbTe5IO4
_symmetry_space_group_name_H-M   'P 1'
_cell_length_a   7.88910389
_cell_length_b   7.88910341
_cell_length_c   10.69636917
_cell_angle_alpha   90.00000000
_cell_angle_beta   90.00000000
_cell_angle_gamma   120.00000000
_symmetry_Int_Tables_number   1
_chemical_formula_structural   Ba7SbTe5IO4
_chemical_formula_sum   'Ba7 Sb1 Te5 I1 O4'
_cell_volume   576.53056889
_cell_formula_units_Z   1
loop_
 _symmetry_equiv_pos_site_id
 _symmetry_equiv_pos_as_xyz
  1  'x, y, z'
loop_
 _atom_site_type_symbol
 _atom_site_label
 _atom_site_symmetry_multiplicity
 _atom_site_fract_x
 _atom_site_fract_y
 _atom_site_fract_z
 _atom_site_occupancy
  Ba  Ba0  1  0.50188499  0.49811600  0.75861299  1
  Ba  Ba1  1  0.49811499  0.50188400  0.25861300  1
  Ba  Ba2  1  0.99623100  0.49811600  0.75861299  1
  Ba  Ba3  1  0.00376898  0.50188400  0.25861300  1
  Ba  Ba4  1  0.50188501  0.00377000  0.75861299  1
  Ba  Ba5  1  0.49811497  0.99623001  0.25861300  1
  Ba  Ba6  1  0.00000000  0.00000000  0.76273899  1
  Sb  Sb7  1  0.00000000  0.00000000  0.26273900  1
  O  O8  1  0.69730098  0.84865000  0.64088199  1
  Te  Te9  1  0.15134897  0.84865000  0.64088199  1
  O  O10  1  0.15134899  0.30269800  0.64088199  1
  Te  Te11  1  0.84865101  0.15135000  0.14088200  1
  O  O12  1  0.66666666  0.33333334  0.88513199  1
  Te  Te13  1  0.84865099  0.69730200  0.14088200  1
  Te  Te14  1  0.33333331  0.66666667  0.38513199  1
  Te  Te15  1  0.30269900  0.15135000  0.14088200  1
  I  I16  1  0.66666666  0.33333334  0.46902199  1
  O  O17  1  0.33333331  0.66666667  0.96902198  1
