# generated using pymatgen
data_Fe(BC)2
_symmetry_space_group_name_H-M   'P 1'
_cell_length_a   3.47922802
_cell_length_b   3.47922826
_cell_length_c   6.04689217
_cell_angle_alpha   90.00000000
_cell_angle_beta   90.00000000
_cell_angle_gamma   120.00000000
_symmetry_Int_Tables_number   1
_chemical_formula_structural   Fe(BC)2
_chemical_formula_sum   'Fe1 B2 C2'
_cell_volume   63.39115574
_cell_formula_units_Z   1
loop_
 _symmetry_equiv_pos_site_id
 _symmetry_equiv_pos_as_xyz
  1  'x, y, z'
loop_
 _atom_site_type_symbol
 _atom_site_label
 _atom_site_symmetry_multiplicity
 _atom_site_fract_x
 _atom_site_fract_y
 _atom_site_fract_z
 _atom_site_occupancy
  Fe  Fe0  1  0.00000000  0.00000000  0.49999999  1
  B  B1  1  0.33333335  0.66666665  0.86073898  1
  B  B2  1  0.66666667  0.33333333  0.13926100  1
  C  C3  1  0.33333335  0.66666665  0.24121999  1
  C  C4  1  0.66666667  0.33333333  0.75877998  1
