# generated using pymatgen
data_CeGaPd
_symmetry_space_group_name_H-M   'P 1'
_cell_length_a   4.48680305
_cell_length_b   6.89859009
_cell_length_c   7.79697323
_cell_angle_alpha   90.00000000
_cell_angle_beta   90.00000000
_cell_angle_gamma   90.00000000
_symmetry_Int_Tables_number   1
_chemical_formula_structural   CeGaPd
_chemical_formula_sum   'Ce4 Ga4 Pd4'
_cell_volume   241.33671113
_cell_formula_units_Z   4
loop_
 _symmetry_equiv_pos_site_id
 _symmetry_equiv_pos_as_xyz
  1  'x, y, z'
loop_
 _atom_site_type_symbol
 _atom_site_label
 _atom_site_symmetry_multiplicity
 _atom_site_fract_x
 _atom_site_fract_y
 _atom_site_fract_z
 _atom_site_occupancy
  Ce  Ce0  1  0.25000000  0.03308900  0.32029799  1
  Ce  Ce1  1  0.25000000  0.53308899  0.17970199  1
  Ce  Ce2  1  0.74999999  0.96691099  0.67970198  1
  Ce  Ce3  1  0.74999999  0.46691099  0.82029798  1
  Ga  Ga4  1  0.25000000  0.14560100  0.93949397  1
  Ga  Ga5  1  0.25000000  0.64560099  0.56050598  1
  Ga  Ga6  1  0.74999999  0.85439899  0.06050600  1
  Ga  Ga7  1  0.74999999  0.35439900  0.43949399  1
  Pd  Pd8  1  0.25000000  0.27378600  0.61990998  1
  Pd  Pd9  1  0.25000000  0.77378599  0.88008997  1
  Pd  Pd10  1  0.74999999  0.72621399  0.38008999  1
  Pd  Pd11  1  0.74999999  0.22621400  0.11991000  1
