# generated using pymatgen
data_Ce4SiP5
_symmetry_space_group_name_H-M   'P 1'
_cell_length_a   5.56987906
_cell_length_b   5.75723219
_cell_length_c   7.07362700
_cell_angle_alpha   114.01341248
_cell_angle_beta   90.00000000
_cell_angle_gamma   90.00000000
_symmetry_Int_Tables_number   1
_chemical_formula_structural   Ce4SiP5
_chemical_formula_sum   'Ce4 Si1 P5'
_cell_volume   207.19847232
_cell_formula_units_Z   1
loop_
 _symmetry_equiv_pos_site_id
 _symmetry_equiv_pos_as_xyz
  1  'x, y, z'
loop_
 _atom_site_type_symbol
 _atom_site_label
 _atom_site_symmetry_multiplicity
 _atom_site_fract_x
 _atom_site_fract_y
 _atom_site_fract_z
 _atom_site_occupancy
  Ce  Ce0  1  0.74999999  0.07537800  0.15075600  1
  Ce  Ce1  1  0.25000000  0.92462196  0.84924398  1
  Ce  Ce2  1  0.74999999  0.38771998  0.77543998  1
  Ce  Ce3  1  0.25000000  0.61227998  0.22455999  1
  P  P4  1  0.74999999  0.74489397  0.48978798  1
  Si  Si5  1  0.25000000  0.25510599  0.51021199  1
  P  P6  1  0.99999999  0.77502497  -0.00000001  1
  P  P7  1  0.99999999  0.22497499  0.99999998  1
  P  P8  1  0.50000000  0.22497499  0.99999998  1
  P  P9  1  0.50000000  0.77502497  -0.00000001  1
