# generated using pymatgen
data_NdSmIn4
_symmetry_space_group_name_H-M   'P 1'
_cell_length_a   5.10258389
_cell_length_b   5.10258436
_cell_length_c   8.06445122
_cell_angle_alpha   90.00000000
_cell_angle_beta   90.00000000
_cell_angle_gamma   120.00000000
_symmetry_Int_Tables_number   1
_chemical_formula_structural   NdSmIn4
_chemical_formula_sum   'Nd1 Sm1 In4'
_cell_volume   181.83848222
_cell_formula_units_Z   1
loop_
 _symmetry_equiv_pos_site_id
 _symmetry_equiv_pos_as_xyz
  1  'x, y, z'
loop_
 _atom_site_type_symbol
 _atom_site_label
 _atom_site_symmetry_multiplicity
 _atom_site_fract_x
 _atom_site_fract_y
 _atom_site_fract_z
 _atom_site_occupancy
  Nd  Nd0  1  0.00000000  0.00000000  0.25023999  1
  Sm  Sm1  1  0.00000000  0.00000000  0.75023998  1
  In  In2  1  0.33333339  0.66666672  0.44299099  1
  In  In3  1  0.66666671  0.33333336  0.94299097  1
  In  In4  1  0.33333339  0.66666672  0.03676900  1
  In  In5  1  0.66666671  0.33333336  0.53676899  1
