# generated using pymatgen
data_CePd2
_symmetry_space_group_name_H-M   'P 1'
_cell_length_a   4.26165819
_cell_length_b   4.26165771
_cell_length_c   6.86278391
_cell_angle_alpha   90.00000000
_cell_angle_beta   90.00000000
_cell_angle_gamma   120.00000000
_symmetry_Int_Tables_number   1
_chemical_formula_structural   CePd2
_chemical_formula_sum   'Ce2 Pd4'
_cell_volume   107.94142207
_cell_formula_units_Z   2
loop_
 _symmetry_equiv_pos_site_id
 _symmetry_equiv_pos_as_xyz
  1  'x, y, z'
loop_
 _atom_site_type_symbol
 _atom_site_label
 _atom_site_symmetry_multiplicity
 _atom_site_fract_x
 _atom_site_fract_y
 _atom_site_fract_z
 _atom_site_occupancy
  Ce  Ce0  1  0.33333331  0.66666669  1.00000001  1
  Ce  Ce1  1  0.33333331  0.66666669  0.50000001  1
  Pd  Pd2  1  0.00000000  0.00000000  0.29635900  1
  Pd  Pd3  1  0.00000000  0.00000000  0.70364101  1
  Pd  Pd4  1  0.66666663  0.33333335  0.78402101  1
  Pd  Pd5  1  0.66666663  0.33333335  0.21597900  1
