# generated using pymatgen
data_LaCe2Pd3
_symmetry_space_group_name_H-M   'P 1'
_cell_length_a   5.66590548
_cell_length_b   5.66590548
_cell_length_c   5.68950510
_cell_angle_alpha   60.13711166
_cell_angle_beta   60.13711166
_cell_angle_gamma   60.00000763
_symmetry_Int_Tables_number   1
_chemical_formula_structural   LaCe2Pd3
_chemical_formula_sum   'La1 Ce2 Pd3'
_cell_volume   129.41812883
_cell_formula_units_Z   1
loop_
 _symmetry_equiv_pos_site_id
 _symmetry_equiv_pos_as_xyz
  1  'x, y, z'
loop_
 _atom_site_type_symbol
 _atom_site_label
 _atom_site_symmetry_multiplicity
 _atom_site_fract_x
 _atom_site_fract_y
 _atom_site_fract_z
 _atom_site_occupancy
  Ce  Ce0  1  0.12468000  0.12468000  0.62595999  1
  La  La1  1  0.87531997  0.87531998  0.37403996  1
  Ce  Ce2  1  -0.00000000  0.49999999  -0.00000001  1
  Pd  Pd3  1  0.49999999  0.00000000  0.99999999  1
  Pd  Pd4  1  0.49999998  0.49999999  -0.00000002  1
  Pd  Pd5  1  0.49999998  0.49999999  0.49999998  1
