# generated using pymatgen
data_NdGe2
_symmetry_space_group_name_H-M   'P 1'
_cell_length_a   4.55606794
_cell_length_b   4.55606747
_cell_length_c   8.19178200
_cell_angle_alpha   90.00000000
_cell_angle_beta   90.00000000
_cell_angle_gamma   120.00000763
_symmetry_Int_Tables_number   1
_chemical_formula_structural   NdGe2
_chemical_formula_sum   'Nd2 Ge4'
_cell_volume   147.26153498
_cell_formula_units_Z   2
loop_
 _symmetry_equiv_pos_site_id
 _symmetry_equiv_pos_as_xyz
  1  'x, y, z'
loop_
 _atom_site_type_symbol
 _atom_site_label
 _atom_site_symmetry_multiplicity
 _atom_site_fract_x
 _atom_site_fract_y
 _atom_site_fract_z
 _atom_site_occupancy
  Nd  Nd0  1  0.00000000  0.00000000  0.99059700  1
  Nd  Nd1  1  0.00000000  0.00000000  0.49059700  1
  Ge  Ge2  1  0.66666670  0.33333334  0.22185600  1
  Ge  Ge3  1  0.33333339  0.66666669  0.72185600  1
  Ge  Ge4  1  0.33333339  0.66666669  0.25064700  1
  Ge  Ge5  1  0.66666670  0.33333334  0.75064700  1
