# generated using pymatgen
data_La2FeO6
_symmetry_space_group_name_H-M   'P 1'
_cell_length_a   3.96023607
_cell_length_b   3.96023607
_cell_length_c   7.66937208
_cell_angle_alpha   90.00000000
_cell_angle_beta   90.00000000
_cell_angle_gamma   90.00000000
_symmetry_Int_Tables_number   1
_chemical_formula_structural   La2FeO6
_chemical_formula_sum   'La2 Fe1 O6'
_cell_volume   120.28236505
_cell_formula_units_Z   1
loop_
 _symmetry_equiv_pos_site_id
 _symmetry_equiv_pos_as_xyz
  1  'x, y, z'
loop_
 _atom_site_type_symbol
 _atom_site_label
 _atom_site_symmetry_multiplicity
 _atom_site_fract_x
 _atom_site_fract_y
 _atom_site_fract_z
 _atom_site_occupancy
  La  La0  1  0.00000000  0.00000000  0.00000000  1
  La  La1  1  0.00000000  0.00000000  0.49999999  1
  Fe  Fe2  1  0.49999999  0.49999999  0.23823700  1
  O  O3  1  0.49999999  0.49999999  0.76176299  1
  O  O4  1  0.49999999  0.00000000  0.20522400  1
  O  O5  1  0.49999999  0.00000000  0.79477599  1
  O  O6  1  0.49999999  0.49999999  0.49999999  1
  O  O7  1  0.00000000  0.49999999  0.20522400  1
  O  O8  1  0.00000000  0.49999999  0.79477599  1
