# generated using pymatgen
data_Ce2InCu3
_symmetry_space_group_name_H-M   'P 1'
_cell_length_a   4.32475424
_cell_length_b   4.32475424
_cell_length_c   8.46581745
_cell_angle_alpha   90.00000000
_cell_angle_beta   90.00000000
_cell_angle_gamma   120.00000000
_symmetry_Int_Tables_number   1
_chemical_formula_structural   Ce2InCu3
_chemical_formula_sum   'Ce2 In1 Cu3'
_cell_volume   137.12681759
_cell_formula_units_Z   1
loop_
 _symmetry_equiv_pos_site_id
 _symmetry_equiv_pos_as_xyz
  1  'x, y, z'
loop_
 _atom_site_type_symbol
 _atom_site_label
 _atom_site_symmetry_multiplicity
 _atom_site_fract_x
 _atom_site_fract_y
 _atom_site_fract_z
 _atom_site_occupancy
  Ce  Ce0  1  0.00000000  0.00000000  0.49999997  1
  Ce  Ce1  1  0.00000000  0.00000000  0.00000000  1
  Cu  Cu2  1  0.66666664  0.33333333  0.74999996  1
  In  In3  1  0.33333333  0.66666666  0.24999999  1
  Cu  Cu4  1  0.66666664  0.33333333  0.24999999  1
  Cu  Cu5  1  0.33333333  0.66666666  0.74999996  1
