# generated using pymatgen
data_La2AlTcC6
_symmetry_space_group_name_H-M   'P 1'
_cell_length_a   5.78189611
_cell_length_b   5.83647108
_cell_length_c   5.78189611
_cell_angle_alpha   119.69116211
_cell_angle_beta   90.00000000
_cell_angle_gamma   119.69116211
_symmetry_Int_Tables_number   1
_chemical_formula_structural   La2AlTcC6
_chemical_formula_sum   'La2 Al1 Tc1 C6'
_cell_volume   139.24534953
_cell_formula_units_Z   1
loop_
 _symmetry_equiv_pos_site_id
 _symmetry_equiv_pos_as_xyz
  1  'x, y, z'
loop_
 _atom_site_type_symbol
 _atom_site_label
 _atom_site_symmetry_multiplicity
 _atom_site_fract_x
 _atom_site_fract_y
 _atom_site_fract_z
 _atom_site_occupancy
  La  La0  1  0.75000000  0.50000000  0.25000001  1
  La  La1  1  0.25000001  0.50000000  0.75000000  1
  Al  Al2  1  0.49999999  0.00000000  0.49999999  1
  Tc  Tc3  1  0.00000000  0.00000000  0.00000000  1
  C  C4  1  0.30223299  0.00000000  0.19776700  1
  C  C5  1  0.80223298  0.00000000  0.30223299  1
  C  C6  1  0.19776700  0.00000000  0.69776699  1
  C  C7  1  0.69776699  0.00000000  0.80223298  1
  C  C8  1  0.25000001  0.50000000  0.25000001  1
  C  C9  1  0.75000000  0.50000000  0.75000000  1
