# generated using pymatgen
data_Li4Fe3CoO12
_symmetry_space_group_name_H-M   'P 1'
_cell_length_a   5.45215273
_cell_length_b   5.59535933
_cell_length_c   7.73141003
_cell_angle_alpha   108.70786285
_cell_angle_beta   108.76218414
_cell_angle_gamma   93.90914154
_symmetry_Int_Tables_number   1
_chemical_formula_structural   Li4Fe3CoO12
_chemical_formula_sum   'Li4 Fe3 Co1 O12'
_cell_volume   207.63163293
_cell_formula_units_Z   1
loop_
 _symmetry_equiv_pos_site_id
 _symmetry_equiv_pos_as_xyz
  1  'x, y, z'
loop_
 _atom_site_type_symbol
 _atom_site_label
 _atom_site_symmetry_multiplicity
 _atom_site_fract_x
 _atom_site_fract_y
 _atom_site_fract_z
 _atom_site_occupancy
  Li  Li0  1  0.20866802  0.57555800  0.21101300  1
  Li  Li1  1  0.79115299  0.42464300  0.78884198  1
  Li  Li2  1  0.48266599  0.12493600  0.83236698  1
  Li  Li3  1  0.51802502  0.87490800  0.16764500  1
  Fe  Fe4  1  0.99959301  0.99997300  0.50052599  1
  Fe  Fe5  1  0.00008600  0.00033500  0.99968298  1
  Fe  Fe6  1  0.66537699  0.37700500  0.22817699  1
  Co  Co7  1  0.33462802  0.62288200  0.77177499  1
  O  O8  1  0.67036002  0.91608000  0.63510399  1
  O  O9  1  0.32930299  0.08398800  0.36510999  1
  O  O10  1  0.86197598  0.35650500  0.11734999  1
  O  O11  1  0.13824002  0.64361000  0.88282198  1
  O  O12  1  0.38218800  0.24707800  0.06997800  1
  O  O13  1  0.61790301  0.75280000  0.92974998  1
  O  O14  1  0.27027102  0.77280700  0.63088099  1
  O  O15  1  0.72972398  0.22694200  0.36892399  1
  O  O16  1  0.65524200  0.66345000  0.32871899  1
  O  O17  1  0.34483900  0.33648000  0.67121999  1
  O  O18  1  0.81547197  0.06115800  0.72350498  1
  O  O19  1  0.18429104  0.93885900  0.27660400  1
