# generated using pymatgen
data_ThU3SbTeMo6
_symmetry_space_group_name_H-M   'P 1'
_cell_length_a   3.65135407
_cell_length_b   3.65135455
_cell_length_c   35.59005737
_cell_angle_alpha   90.00000000
_cell_angle_beta   90.00000000
_cell_angle_gamma   119.99999237
_symmetry_Int_Tables_number   1
_chemical_formula_structural   ThU3SbTeMo6
_chemical_formula_sum   'Th1 U3 Sb1 Te1 Mo6'
_cell_volume   410.92948854
_cell_formula_units_Z   1
loop_
 _symmetry_equiv_pos_site_id
 _symmetry_equiv_pos_as_xyz
  1  'x, y, z'
loop_
 _atom_site_type_symbol
 _atom_site_label
 _atom_site_symmetry_multiplicity
 _atom_site_fract_x
 _atom_site_fract_y
 _atom_site_fract_z
 _atom_site_occupancy
  Th  Th0  1  0.66666664  0.33333333  0.33343200  1
  U  U1  1  0.66666664  0.33333333  0.66656799  1
  U  U2  1  0.00000000  0.00000000  0.08314700  1
  U  U3  1  0.00000000  0.00000000  0.41914200  1
  Mo  Mo4  1  0.00000000  0.00000000  0.75262699  1
  Mo  Mo5  1  0.00000000  0.00000000  0.91685299  1
  Mo  Mo6  1  0.00000000  0.00000000  0.24737300  1
  Mo  Mo7  1  0.00000000  0.00000000  0.58085799  1
  Sb  Sb8  1  0.33333330  0.66666666  0.16632800  1
  Mo  Mo9  1  0.33333330  0.66666666  0.49999999  1
  Te  Te10  1  0.33333330  0.66666666  0.83367199  1
  Mo  Mo11  1  0.66666664  0.33333333  -0.00000000  1
