# generated using pymatgen
data_Ca6NdMgO8
_symmetry_space_group_name_H-M   'P 1'
_cell_length_a   6.43070221
_cell_length_b   6.72931814
_cell_length_c   7.75337315
_cell_angle_alpha   90.00000000
_cell_angle_beta   90.00000000
_cell_angle_gamma   90.00000000
_symmetry_Int_Tables_number   1
_chemical_formula_structural   Ca6NdMgO8
_chemical_formula_sum   'Ca6 Nd1 Mg1 O8'
_cell_volume   335.52133842
_cell_formula_units_Z   1
loop_
 _symmetry_equiv_pos_site_id
 _symmetry_equiv_pos_as_xyz
  1  'x, y, z'
loop_
 _atom_site_type_symbol
 _atom_site_label
 _atom_site_symmetry_multiplicity
 _atom_site_fract_x
 _atom_site_fract_y
 _atom_site_fract_z
 _atom_site_occupancy
  Mg  Mg0  1  0.00926100  0.82350398  0.25391700  1
  Ca  Ca1  1  0.50926098  0.17649600  0.24608300  1
  Ca  Ca2  1  0.50926098  0.17649600  0.75391699  1
  Ca  Ca3  1  0.00926100  0.82350398  0.74608299  1
  Ca  Ca4  1  0.99708997  0.34652699  0.00000000  1
  Ca  Ca5  1  0.49708998  0.65347299  0.49999999  1
  Ca  Ca6  1  0.49985798  0.67198699  0.00000000  1
  Nd  Nd7  1  0.99985797  0.32801299  0.49999999  1
  O  O8  1  0.35825899  0.32059799  0.49999999  1
  O  O9  1  0.85825897  0.67940199  0.00000000  1
  O  O10  1  0.87473997  0.64670099  0.49999999  1
  O  O11  1  0.37473999  0.35329899  0.00000000  1
  O  O12  1  0.38240499  0.83660298  0.24332200  1
  O  O13  1  0.88240497  0.16339700  0.25667800  1
  O  O14  1  0.88240497  0.16339700  0.74332199  1
  O  O15  1  0.38240499  0.83660298  0.75667799  1
