# generated using pymatgen
data_Nd2HfNiO6
_symmetry_space_group_name_H-M   'P 1'
_cell_length_a   5.58310986
_cell_length_b   5.75621891
_cell_length_c   8.00135612
_cell_angle_alpha   90.00000000
_cell_angle_beta   90.00000000
_cell_angle_gamma   90.00000000
_symmetry_Int_Tables_number   1
_chemical_formula_structural   Nd2HfNiO6
_chemical_formula_sum   'Nd4 Hf2 Ni2 O12'
_cell_volume   257.14440283
_cell_formula_units_Z   2
loop_
 _symmetry_equiv_pos_site_id
 _symmetry_equiv_pos_as_xyz
  1  'x, y, z'
loop_
 _atom_site_type_symbol
 _atom_site_label
 _atom_site_symmetry_multiplicity
 _atom_site_fract_x
 _atom_site_fract_y
 _atom_site_fract_z
 _atom_site_occupancy
  Nd  Nd0  1  0.98567303  0.05349200  0.25000000  1
  Nd  Nd1  1  0.48567301  0.44650801  0.74999999  1
  Nd  Nd2  1  0.51432701  0.55349201  0.25000000  1
  Nd  Nd3  1  0.01432700  0.94650801  0.74999999  1
  Hf  Hf4  1  0.00000000  0.50000001  0.49999999  1
  Hf  Hf5  1  0.50000001  0.00000000  0.49999999  1
  Ni  Ni6  1  0.50000001  0.00000000  0.00000000  1
  Ni  Ni7  1  0.00000000  0.50000001  -0.00000000  1
  O  O8  1  0.69688802  0.29950200  0.44383399  1
  O  O9  1  0.19688801  0.20049800  0.55616599  1
  O  O10  1  0.80311202  0.79950201  0.05616600  1
  O  O11  1  0.30311201  0.70049801  0.94383399  1
  O  O12  1  0.30311201  0.70049801  0.55616599  1
  O  O13  1  0.80311202  0.79950201  0.44383399  1
  O  O14  1  0.19688801  0.20049800  0.94383399  1
  O  O15  1  0.69688802  0.29950200  0.05616600  1
  O  O16  1  0.10690800  0.45794901  0.25000000  1
  O  O17  1  0.60690802  0.04205100  0.74999999  1
  O  O18  1  0.39309201  0.95794901  0.25000000  1
  O  O19  1  0.89309202  0.54205101  0.74999999  1
