# generated using pymatgen
data_Ba2Bi4Pb
_symmetry_space_group_name_H-M   'P 1'
_cell_length_a   8.30215645
_cell_length_b   8.30215645
_cell_length_c   8.30215645
_cell_angle_alpha   71.13855743
_cell_angle_beta   70.22303009
_cell_angle_gamma   109.77696991
_symmetry_Int_Tables_number   1
_chemical_formula_structural   Ba2Bi4Pb
_chemical_formula_sum   'Ba4 Bi8 Pb2'
_cell_volume   440.46760588
_cell_formula_units_Z   2
loop_
 _symmetry_equiv_pos_site_id
 _symmetry_equiv_pos_as_xyz
  1  'x, y, z'
loop_
 _atom_site_type_symbol
 _atom_site_label
 _atom_site_symmetry_multiplicity
 _atom_site_fract_x
 _atom_site_fract_y
 _atom_site_fract_z
 _atom_site_occupancy
  Ba  Ba0  1  0.50000006  0.25000003  0.24999998  1
  Ba  Ba1  1  0.00000000  0.00000000  0.00000000  1
  Ba  Ba2  1  0.12328107  0.62500006  0.75171901  1
  Ba  Ba3  1  0.62328109  0.49828105  0.62499998  1
  Bi  Bi4  1  0.87671908  0.12500001  0.49828098  1
  Bi  Bi5  1  0.37671910  0.75171908  0.12499996  1
  Bi  Bi6  1  0.75213213  0.73014207  0.87231898  1
  Bi  Bi7  1  0.74786808  0.22801002  0.87445100  1
  Bi  Bi8  1  0.10246109  0.87445109  0.37768098  1
  Bi  Bi9  1  0.39753903  0.02199000  0.73014202  1
  Bi  Bi10  1  0.25213205  0.37768104  0.51985800  1
  Bi  Bi11  1  0.89753912  0.51985805  0.22800995  1
  Pb  Pb12  1  0.60246113  0.87231909  0.37554895  1
  Pb  Pb13  1  0.24786805  0.37554904  0.02198997  1
