# generated using pymatgen
data_CePd2
_symmetry_space_group_name_H-M   'P 1'
_cell_length_a   4.60488415
_cell_length_b   5.72594976
_cell_length_c   5.84631824
_cell_angle_alpha   77.42153931
_cell_angle_beta   66.80712128
_cell_angle_gamma   66.29006195
_symmetry_Int_Tables_number   1
_chemical_formula_structural   CePd2
_chemical_formula_sum   'Ce2 Pd4'
_cell_volume   129.41025286
_cell_formula_units_Z   2
loop_
 _symmetry_equiv_pos_site_id
 _symmetry_equiv_pos_as_xyz
  1  'x, y, z'
loop_
 _atom_site_type_symbol
 _atom_site_label
 _atom_site_symmetry_multiplicity
 _atom_site_fract_x
 _atom_site_fract_y
 _atom_site_fract_z
 _atom_site_occupancy
  Ce  Ce0  1  0.46422790  0.78000404  0.29154007  1
  Ce  Ce1  1  0.53577195  0.21999601  0.70846002  1
  Pd  Pd2  1  0.15936191  0.79589804  0.88537806  1
  Pd  Pd3  1  0.84063794  0.20410201  0.11462203  1
  Pd  Pd4  1  0.82680590  0.62372503  0.72266306  1
  Pd  Pd5  1  0.17319395  0.37627502  0.27733703  1
