# generated using pymatgen
data_NbFe
_symmetry_space_group_name_H-M   'P 1'
_cell_length_a   4.48802280
_cell_length_b   5.52677202
_cell_length_c   5.52677107
_cell_angle_alpha   120.00000763
_cell_angle_beta   90.00000000
_cell_angle_gamma   90.00000000
_symmetry_Int_Tables_number   1
_chemical_formula_structural   NbFe
_chemical_formula_sum   'Nb4 Fe4'
_cell_volume   118.72130976
_cell_formula_units_Z   4
loop_
 _symmetry_equiv_pos_site_id
 _symmetry_equiv_pos_as_xyz
  1  'x, y, z'
loop_
 _atom_site_type_symbol
 _atom_site_label
 _atom_site_symmetry_multiplicity
 _atom_site_fract_x
 _atom_site_fract_y
 _atom_site_fract_z
 _atom_site_occupancy
  Nb  Nb0  1  0.25000001  0.66666668  0.33333338  1
  Nb  Nb1  1  0.75000003  0.33333334  0.66666670  1
  Nb  Nb2  1  0.75000003  0.83053702  0.16946405  1
  Nb  Nb3  1  0.75000003  0.33892701  0.16946402  1
  Fe  Fe4  1  0.75000003  0.83053702  0.66107406  1
  Fe  Fe5  1  0.25000001  0.16946300  0.83053602  1
  Fe  Fe6  1  0.25000001  0.66107301  0.83053605  1
  Fe  Fe7  1  0.25000001  0.16946300  0.33892602  1
