# generated using pymatgen
data_NdErNO
_symmetry_space_group_name_H-M   'P 1'
_cell_length_a   3.63635802
_cell_length_b   3.63635802
_cell_length_c   6.32491541
_cell_angle_alpha   73.29387665
_cell_angle_beta   73.29387665
_cell_angle_gamma   60.00000000
_symmetry_Int_Tables_number   1
_chemical_formula_structural   NdErNO
_chemical_formula_sum   'Nd1 Er1 N1 O1'
_cell_volume   68.32344177
_cell_formula_units_Z   1
loop_
 _symmetry_equiv_pos_site_id
 _symmetry_equiv_pos_as_xyz
  1  'x, y, z'
loop_
 _atom_site_type_symbol
 _atom_site_label
 _atom_site_symmetry_multiplicity
 _atom_site_fract_x
 _atom_site_fract_y
 _atom_site_fract_z
 _atom_site_occupancy
  Er  Er0  1  0.00000000  0.00000000  0.00000000  1
  Nd  Nd1  1  0.49999996  0.49999999  0.50000001  1
  N  N2  1  0.24786598  0.24786600  0.25640201  1
  O  O3  1  0.75213393  0.75213399  0.74359802  1
