# generated using pymatgen
data_KMn2P3
_symmetry_space_group_name_H-M   'P 1'
_cell_length_a   5.16512394
_cell_length_b   6.93044472
_cell_length_c   6.93044472
_cell_angle_alpha   101.67728424
_cell_angle_beta   90.00000000
_cell_angle_gamma   90.00000000
_symmetry_Int_Tables_number   1
_chemical_formula_structural   KMn2P3
_chemical_formula_sum   'K2 Mn4 P6'
_cell_volume   242.95178689
_cell_formula_units_Z   2
loop_
 _symmetry_equiv_pos_site_id
 _symmetry_equiv_pos_as_xyz
  1  'x, y, z'
loop_
 _atom_site_type_symbol
 _atom_site_label
 _atom_site_symmetry_multiplicity
 _atom_site_fract_x
 _atom_site_fract_y
 _atom_site_fract_z
 _atom_site_occupancy
  K  K0  1  0.75000001  0.31711400  0.68288601  1
  K  K1  1  0.25000000  0.68288601  0.31711400  1
  Mn  Mn2  1  1.00000001  0.14517500  0.14517500  1
  Mn  Mn3  1  1.00000001  0.85482501  0.85482500  1
  Mn  Mn4  1  0.50000001  0.85482501  0.85482500  1
  Mn  Mn5  1  0.50000001  0.14517500  0.14517500  1
  P  P6  1  0.25000000  0.60001001  0.81939000  1
  P  P7  1  0.75000001  0.39999000  0.18061000  1
  P  P8  1  0.75000001  0.81939001  0.60001000  1
  P  P9  1  0.25000000  0.18061000  0.39999000  1
  P  P10  1  0.25000000  0.11017500  0.88982501  1
  P  P11  1  0.75000001  0.88982501  0.11017499  1
