# generated using pymatgen
data_FeCuPd2
_symmetry_space_group_name_H-M   'P 1'
_cell_length_a   3.62880802
_cell_length_b   3.62880802
_cell_length_c   4.53645658
_cell_angle_alpha   113.57571411
_cell_angle_beta   113.57571411
_cell_angle_gamma   90.00000000
_symmetry_Int_Tables_number   1
_chemical_formula_structural   FeCuPd2
_chemical_formula_sum   'Fe1 Cu1 Pd2'
_cell_volume   49.26282813
_cell_formula_units_Z   1
loop_
 _symmetry_equiv_pos_site_id
 _symmetry_equiv_pos_as_xyz
  1  'x, y, z'
loop_
 _atom_site_type_symbol
 _atom_site_label
 _atom_site_symmetry_multiplicity
 _atom_site_fract_x
 _atom_site_fract_y
 _atom_site_fract_z
 _atom_site_occupancy
  Fe  Fe0  1  0.00000000  0.00000000  0.00000000  1
  Cu  Cu1  1  0.49999995  0.49999998  -0.00000007  1
  Pd  Pd2  1  0.24999994  0.74999996  0.49999990  1
  Pd  Pd3  1  0.74999996  0.24999999  0.49999992  1
