# generated using pymatgen
data_LiNdZrTiO4
_symmetry_space_group_name_H-M   'P 1'
_cell_length_a   3.38346791
_cell_length_b   3.38346767
_cell_length_c   12.94769478
_cell_angle_alpha   90.00000000
_cell_angle_beta   90.00000000
_cell_angle_gamma   120.00000000
_symmetry_Int_Tables_number   1
_chemical_formula_structural   LiNdZrTiO4
_chemical_formula_sum   'Li1 Nd1 Zr1 Ti1 O4'
_cell_volume   128.36516356
_cell_formula_units_Z   1
loop_
 _symmetry_equiv_pos_site_id
 _symmetry_equiv_pos_as_xyz
  1  'x, y, z'
loop_
 _atom_site_type_symbol
 _atom_site_label
 _atom_site_symmetry_multiplicity
 _atom_site_fract_x
 _atom_site_fract_y
 _atom_site_fract_z
 _atom_site_occupancy
  Li  Li0  1  0.00000000  0.00000000  0.00000000  1
  Nd  Nd1  1  0.00000000  0.00000000  0.50000001  1
  Ti  Ti2  1  0.00000000  0.00000000  0.75000001  1
  Zr  Zr3  1  0.00000000  0.00000000  0.25000000  1
  O  O4  1  0.66666667  0.33333334  0.87208001  1
  O  O5  1  0.66666667  0.33333334  0.62792001  1
  O  O6  1  0.33333331  0.66666668  0.37208001  1
  O  O7  1  0.33333331  0.66666668  0.12792000  1
