# generated using pymatgen
data_HfSn4
_symmetry_space_group_name_H-M   'P 1'
_cell_length_a   4.96424913
_cell_length_b   5.08360481
_cell_length_c   14.76259708
_cell_angle_alpha   90.00000000
_cell_angle_beta   90.00000000
_cell_angle_gamma   90.00000000
_symmetry_Int_Tables_number   1
_chemical_formula_structural   HfSn4
_chemical_formula_sum   'Hf4 Sn16'
_cell_volume   372.55304519
_cell_formula_units_Z   4
loop_
 _symmetry_equiv_pos_site_id
 _symmetry_equiv_pos_as_xyz
  1  'x, y, z'
loop_
 _atom_site_type_symbol
 _atom_site_label
 _atom_site_symmetry_multiplicity
 _atom_site_fract_x
 _atom_site_fract_y
 _atom_site_fract_z
 _atom_site_occupancy
  Hf  Hf0  1  0.24999999  0.66276302  0.90156399  1
  Hf  Hf1  1  0.24999999  0.16276301  0.59843600  1
  Hf  Hf2  1  0.74999998  0.83723703  0.40156400  1
  Hf  Hf3  1  0.74999998  0.33723701  0.09843600  1
  Sn  Sn4  1  0.24999999  0.16486101  0.00054400  1
  Sn  Sn5  1  0.24999999  0.17266401  0.19735000  1
  Sn  Sn6  1  0.24999999  0.15949401  0.40018300  1
  Sn  Sn7  1  0.74999998  0.32733601  0.69735000  1
  Sn  Sn8  1  0.74999998  0.33513901  0.50054400  1
  Sn  Sn9  1  0.24999999  0.66486102  0.49945600  1
  Sn  Sn10  1  0.74999998  0.84050603  0.59981700  1
  Sn  Sn11  1  0.24999999  0.65949402  0.09981700  1
  Sn  Sn12  1  0.74999998  0.83576703  0.20161200  1
  Sn  Sn13  1  0.24999999  0.16423301  0.79838800  1
  Sn  Sn14  1  0.74999998  0.82733603  0.80265000  1
  Sn  Sn15  1  0.74999998  0.34050601  0.90018299  1
  Sn  Sn16  1  0.24999999  0.67266402  0.30265000  1
  Sn  Sn17  1  0.24999999  0.66423302  0.70161200  1
  Sn  Sn18  1  0.74999998  0.83513903  0.99945599  1
  Sn  Sn19  1  0.74999998  0.33576701  0.29838800  1
