# generated using pymatgen
data_Hf5Ni7
_symmetry_space_group_name_H-M   'P 1'
_cell_length_a   5.09007931
_cell_length_b   5.09007931
_cell_length_c   8.09300804
_cell_angle_alpha   90.00000000
_cell_angle_beta   90.00000000
_cell_angle_gamma   119.15329742
_symmetry_Int_Tables_number   1
_chemical_formula_structural   Hf5Ni7
_chemical_formula_sum   'Hf5 Ni7'
_cell_volume   183.11849139
_cell_formula_units_Z   1
loop_
 _symmetry_equiv_pos_site_id
 _symmetry_equiv_pos_as_xyz
  1  'x, y, z'
loop_
 _atom_site_type_symbol
 _atom_site_label
 _atom_site_symmetry_multiplicity
 _atom_site_fract_x
 _atom_site_fract_y
 _atom_site_fract_z
 _atom_site_occupancy
  Hf  Hf0  1  0.66603599  0.33396400  0.79347900  1
  Hf  Hf1  1  0.32990197  0.67009799  0.67444000  1
  Hf  Hf2  1  0.32990197  0.67009799  0.32556000  1
  Hf  Hf3  1  0.66603599  0.33396400  0.20652100  1
  Hf  Hf4  1  0.00585394  0.99414599  0.73466500  1
  Ni  Ni5  1  0.00585394  0.99414599  0.26533500  1
  Ni  Ni6  1  0.65635297  0.83171399  0.99999999  1
  Ni  Ni7  1  0.16828598  0.34364700  -0.00000000  1
  Ni  Ni8  1  0.16841196  0.83158799  0.99999999  1
  Ni  Ni9  1  0.34722400  0.17335800  0.50000000  1
  Ni  Ni10  1  0.82664198  0.65277599  0.50000000  1
  Ni  Ni11  1  0.82948201  0.17051800  0.50000000  1
