# generated using pymatgen
data_LiGa3
_symmetry_space_group_name_H-M   'P 1'
_cell_length_a   4.09948206
_cell_length_b   4.09948206
_cell_length_c   10.78168964
_cell_angle_alpha   100.95938873
_cell_angle_beta   100.95938873
_cell_angle_gamma   90.00000000
_symmetry_Int_Tables_number   1
_chemical_formula_structural   LiGa3
_chemical_formula_sum   'Li2 Ga6'
_cell_volume   174.52267208
_cell_formula_units_Z   2
loop_
 _symmetry_equiv_pos_site_id
 _symmetry_equiv_pos_as_xyz
  1  'x, y, z'
loop_
 _atom_site_type_symbol
 _atom_site_label
 _atom_site_symmetry_multiplicity
 _atom_site_fract_x
 _atom_site_fract_y
 _atom_site_fract_z
 _atom_site_occupancy
  Li  Li0  1  0.50000000  0.49999999  0.00000001  1
  Li  Li1  1  0.58525299  0.08525300  0.17050600  1
  Ga  Ga2  1  0.08525300  0.58525299  0.17050600  1
  Ga  Ga3  1  0.91474699  0.41474700  0.82949400  1
  Ga  Ga4  1  0.41474700  0.91474699  0.82949400  1
  Ga  Ga5  1  0.00000000  0.00000000  0.00000000  1
  Ga  Ga6  1  0.17498200  0.17498200  0.34996400  1
  Ga  Ga7  1  0.82501800  0.82501799  0.65003600  1
