# generated using pymatgen
data_Ce3Pd5
_symmetry_space_group_name_H-M   'P 1'
_cell_length_a   4.34070492
_cell_length_b   4.34070492
_cell_length_c   9.79209328
_cell_angle_alpha   90.00000000
_cell_angle_beta   90.00000000
_cell_angle_gamma   90.00000000
_symmetry_Int_Tables_number   1
_chemical_formula_structural   Ce3Pd5
_chemical_formula_sum   'Ce3 Pd5'
_cell_volume   184.49987175
_cell_formula_units_Z   1
loop_
 _symmetry_equiv_pos_site_id
 _symmetry_equiv_pos_as_xyz
  1  'x, y, z'
loop_
 _atom_site_type_symbol
 _atom_site_label
 _atom_site_symmetry_multiplicity
 _atom_site_fract_x
 _atom_site_fract_y
 _atom_site_fract_z
 _atom_site_occupancy
  Ce  Ce0  1  -0.00000000  0.50000001  0.75047298  1
  Ce  Ce1  1  0.50000001  0.00000000  0.24952699  1
  Ce  Ce2  1  0.00000000  0.00000000  0.49999999  1
  Pd  Pd3  1  0.50000001  0.50000001  0.49999999  1
  Pd  Pd4  1  0.00000000  0.00000000  0.00000000  1
  Pd  Pd5  1  0.50000001  0.50000001  0.00000000  1
  Pd  Pd6  1  -0.00000000  0.50000001  0.31095099  1
  Pd  Pd7  1  0.50000001  0.00000000  0.68904898  1
