# generated using pymatgen
data_DyYLuMg3Al2
_symmetry_space_group_name_H-M   'P 1'
_cell_length_a   4.62285089
_cell_length_b   6.51700592
_cell_length_c   6.51700640
_cell_angle_alpha   120.00000000
_cell_angle_beta   90.00000000
_cell_angle_gamma   90.00000000
_symmetry_Int_Tables_number   1
_chemical_formula_structural   DyYLuMg3Al2
_chemical_formula_sum   'Dy1 Y1 Lu1 Mg3 Al2'
_cell_volume   170.03439501
_cell_formula_units_Z   1
loop_
 _symmetry_equiv_pos_site_id
 _symmetry_equiv_pos_as_xyz
  1  'x, y, z'
loop_
 _atom_site_type_symbol
 _atom_site_label
 _atom_site_symmetry_multiplicity
 _atom_site_fract_x
 _atom_site_fract_y
 _atom_site_fract_z
 _atom_site_occupancy
  Dy  Dy0  1  0.25000001  0.66666668  0.33333334  1
  Lu  Lu1  1  0.75000002  0.33333334  0.66666665  1
  Y  Y2  1  0.75000002  0.85765102  0.14234901  1
  Mg  Mg3  1  0.75000002  0.28469801  0.14234900  1
  Mg  Mg4  1  0.75000002  0.85765102  0.71530200  1
  Mg  Mg5  1  0.25000001  0.14234900  0.85765098  1
  Al  Al6  1  0.25000001  0.71530202  0.85765099  1
  Al  Al7  1  0.25000001  0.14234900  0.28469799  1
