# generated using pymatgen
data_CeAlGe3
_symmetry_space_group_name_H-M   'P 1'
_cell_length_a   5.74354506
_cell_length_b   7.19568777
_cell_length_c   8.34712315
_cell_angle_alpha   90.00000000
_cell_angle_beta   109.74652863
_cell_angle_gamma   90.00000000
_symmetry_Int_Tables_number   1
_chemical_formula_structural   CeAlGe3
_chemical_formula_sum   'Ce2 Al2 Ge6'
_cell_volume   324.69040957
_cell_formula_units_Z   2
loop_
 _symmetry_equiv_pos_site_id
 _symmetry_equiv_pos_as_xyz
  1  'x, y, z'
loop_
 _atom_site_type_symbol
 _atom_site_label
 _atom_site_symmetry_multiplicity
 _atom_site_fract_x
 _atom_site_fract_y
 _atom_site_fract_z
 _atom_site_occupancy
  Ce  Ce0  1  0.65909998  0.25000001  0.31133298  1
  Ce  Ce1  1  0.34089999  0.75000002  0.68866700  1
  Al  Al2  1  0.97286797  0.25000001  0.87482198  1
  Al  Al3  1  0.02713200  0.75000002  0.12517800  1
  Ge  Ge4  1  0.83984897  0.00542000  0.67427398  1
  Ge  Ge5  1  0.16015100  0.50542002  0.32572600  1
  Ge  Ge6  1  0.61412198  0.75000002  0.12042098  1
  Ge  Ge7  1  0.38587799  0.25000001  0.87957900  1
  Ge  Ge8  1  0.16015100  0.99458003  0.32572600  1
  Ge  Ge9  1  0.83984897  0.49458002  0.67427398  1
