# generated using pymatgen
data_U4Ge11
_symmetry_space_group_name_H-M   'P 1'
_cell_length_a   6.40508223
_cell_length_b   6.40508223
_cell_length_c   6.40508223
_cell_angle_alpha   90.00000000
_cell_angle_beta   90.00000000
_cell_angle_gamma   90.00000000
_symmetry_Int_Tables_number   1
_chemical_formula_structural   U4Ge11
_chemical_formula_sum   'U4 Ge11'
_cell_volume   262.76899995
_cell_formula_units_Z   1
loop_
 _symmetry_equiv_pos_site_id
 _symmetry_equiv_pos_as_xyz
  1  'x, y, z'
loop_
 _atom_site_type_symbol
 _atom_site_label
 _atom_site_symmetry_multiplicity
 _atom_site_fract_x
 _atom_site_fract_y
 _atom_site_fract_z
 _atom_site_occupancy
  U  U0  1  0.49999998  0.49999998  0.00000000  1
  U  U1  1  0.49999998  0.00000000  0.49999998  1
  U  U2  1  -0.00000000  0.49999998  0.49999998  1
  U  U3  1  0.49999998  0.49999998  0.49999998  1
  Ge  Ge4  1  0.21140099  0.21140099  0.78859897  1
  Ge  Ge5  1  0.21140099  0.78859897  0.21140099  1
  Ge  Ge6  1  0.78859897  0.21140099  0.21140099  1
  Ge  Ge7  1  0.78859897  0.78859897  0.78859897  1
  Ge  Ge8  1  0.78859897  0.78859897  0.21140099  1
  Ge  Ge9  1  0.78859897  0.21140099  0.78859897  1
  Ge  Ge10  1  0.21140099  0.78859897  0.78859897  1
  Ge  Ge11  1  0.21140099  0.21140099  0.21140099  1
  Ge  Ge12  1  0.00000000  0.00000000  0.49999998  1
  Ge  Ge13  1  -0.00000000  0.49999998  -0.00000000  1
  Ge  Ge14  1  0.49999998  0.00000000  0.00000000  1
