# generated using pymatgen
data_Ce2Al4Si7
_symmetry_space_group_name_H-M   'P 1'
_cell_length_a   4.40706015
_cell_length_b   4.40706015
_cell_length_c   13.56086159
_cell_angle_alpha   99.35156250
_cell_angle_beta   99.35156250
_cell_angle_gamma   90.00000000
_symmetry_Int_Tables_number   1
_chemical_formula_structural   Ce2Al4Si7
_chemical_formula_sum   'Ce2 Al4 Si7'
_cell_volume   256.33294686
_cell_formula_units_Z   1
loop_
 _symmetry_equiv_pos_site_id
 _symmetry_equiv_pos_as_xyz
  1  'x, y, z'
loop_
 _atom_site_type_symbol
 _atom_site_label
 _atom_site_symmetry_multiplicity
 _atom_site_fract_x
 _atom_site_fract_y
 _atom_site_fract_z
 _atom_site_occupancy
  Ce  Ce0  1  0.15183199  0.15183199  0.30366400  1
  Ce  Ce1  1  0.85137896  0.85137897  0.70275800  1
  Al  Al2  1  0.05381999  0.55381998  0.10764000  1
  Al  Al3  1  0.55381998  0.05382000  0.10764000  1
  Al  Al4  1  0.94410796  0.44410798  0.88821600  1
  Al  Al5  1  0.44410798  0.94410796  0.88821600  1
  Si  Si6  1  0.25120398  0.75120397  0.50240800  1
  Si  Si7  1  0.75120397  0.25120399  0.50240800  1
  Si  Si8  1  0.39353298  0.39353299  0.78706601  1
  Si  Si9  1  0.70066997  0.70066997  0.40134000  1
  Si  Si10  1  0.30172899  0.30172899  0.60345801  1
  Si  Si11  1  0.99708096  0.99708096  0.99416200  1
  Si  Si12  1  0.60551097  0.60551098  0.21102199  1
