# generated using pymatgen
data_NaNiO2
_symmetry_space_group_name_H-M   'P 1'
_cell_length_a   3.85388899
_cell_length_b   3.85388899
_cell_length_c   16.08424759
_cell_angle_alpha   90.00000000
_cell_angle_beta   90.00000000
_cell_angle_gamma   90.00000000
_symmetry_Int_Tables_number   1
_chemical_formula_structural   NaNiO2
_chemical_formula_sum   'Na4 Ni4 O8'
_cell_volume   238.89064935
_cell_formula_units_Z   4
loop_
 _symmetry_equiv_pos_site_id
 _symmetry_equiv_pos_as_xyz
  1  'x, y, z'
loop_
 _atom_site_type_symbol
 _atom_site_label
 _atom_site_symmetry_multiplicity
 _atom_site_fract_x
 _atom_site_fract_y
 _atom_site_fract_z
 _atom_site_occupancy
  Na  Na0  1  0.00000000  0.00000000  0.77742702  1
  Na  Na1  1  0.00000000  0.00000000  0.22257301  1
  Na  Na2  1  0.00000000  0.00000000  0.00000000  1
  Na  Na3  1  0.00000000  0.00000000  0.50000001  1
  Ni  Ni4  1  0.50000000  0.50000000  0.89294702  1
  Ni  Ni5  1  0.50000000  0.50000000  0.10705300  1
  Ni  Ni6  1  0.50000000  0.50000000  0.38808001  1
  Ni  Ni7  1  0.50000000  0.50000000  0.61192002  1
  O  O8  1  0.00000000  0.50000000  0.90542302  1
  O  O9  1  0.50000000  0.00000000  0.09457700  1
  O  O10  1  0.00000000  0.50000000  0.09457700  1
  O  O11  1  0.50000000  0.00000000  0.90542302  1
  O  O12  1  0.00000000  0.00000000  0.38434501  1
  O  O13  1  0.50000000  0.50000000  0.74769402  1
  O  O14  1  0.50000000  0.50000000  0.25230601  1
  O  O15  1  0.00000000  0.00000000  0.61565502  1
