# generated using pymatgen
data_Li3CaMg2
_symmetry_space_group_name_H-M   'P 1'
_cell_length_a   4.35689878
_cell_length_b   4.35689878
_cell_length_c   8.18941212
_cell_angle_alpha   90.00000000
_cell_angle_beta   90.00000000
_cell_angle_gamma   90.00000000
_symmetry_Int_Tables_number   1
_chemical_formula_structural   Li3CaMg2
_chemical_formula_sum   'Li3 Ca1 Mg2'
_cell_volume   155.45606436
_cell_formula_units_Z   1
loop_
 _symmetry_equiv_pos_site_id
 _symmetry_equiv_pos_as_xyz
  1  'x, y, z'
loop_
 _atom_site_type_symbol
 _atom_site_label
 _atom_site_symmetry_multiplicity
 _atom_site_fract_x
 _atom_site_fract_y
 _atom_site_fract_z
 _atom_site_occupancy
  Li  Li0  1  0.00000000  0.50000002  0.34654700  1
  Ca  Ca1  1  0.50000002  0.00000000  0.65345299  1
  Li  Li2  1  0.00000000  0.00000000  0.00000000  1
  Li  Li3  1  0.50000002  0.50000002  0.00000000  1
  Mg  Mg4  1  0.00000000  0.50000002  0.73498099  1
  Mg  Mg5  1  0.50000002  0.00000000  0.26501900  1
