# generated using pymatgen
data_Li7Mn(CoO5)2
_symmetry_space_group_name_H-M   'P 1'
_cell_length_a   2.93222904
_cell_length_b   5.97507143
_cell_length_c   10.39209270
_cell_angle_alpha   97.51578522
_cell_angle_beta   96.90896606
_cell_angle_gamma   92.72072601
_symmetry_Int_Tables_number   1
_chemical_formula_structural   Li7Mn(CoO5)2
_chemical_formula_sum   'Li7 Mn1 Co2 O10'
_cell_volume   178.82753170
_cell_formula_units_Z   1
loop_
 _symmetry_equiv_pos_site_id
 _symmetry_equiv_pos_as_xyz
  1  'x, y, z'
loop_
 _atom_site_type_symbol
 _atom_site_label
 _atom_site_symmetry_multiplicity
 _atom_site_fract_x
 _atom_site_fract_y
 _atom_site_fract_z
 _atom_site_occupancy
  Li  Li0  1  0.99028603  0.48708998  0.98185594  1
  Li  Li1  1  0.60411902  0.29819899  0.20149598  1
  Li  Li2  1  0.40048907  0.70095798  0.80049595  1
  Li  Li3  1  0.80865508  0.90958397  0.61272695  1
  Mn  Mn4  1  0.19739501  0.10306100  0.40067698  1
  Li  Li5  1  0.39953101  0.20016499  0.79868896  1
  Li  Li6  1  0.98910698  0.00486200  0.99095196  1
  Li  Li7  1  0.80868103  0.39663899  0.60700896  1
  Co  Co8  1  0.59672608  0.79974697  0.20279897  1
  Co  Co9  1  0.21196806  0.59620098  0.40094897  1
  O  O10  1  0.51127801  0.22147699  0.99980996  1
  O  O11  1  0.05474400  0.03734400  0.19236199  1
  O  O12  1  0.88805303  0.45040799  0.78485395  1
  O  O13  1  0.31788806  0.62082898  0.59160796  1
  O  O14  1  0.66785408  0.83497997  0.39942296  1
  O  O15  1  0.47631808  0.77843998  0.00477298  1
  O  O16  1  0.13706706  0.55954798  0.20847798  1
  O  O17  1  0.90994709  0.95282597  0.81334794  1
  O  O18  1  0.28651801  0.18081499  0.59900297  1
  O  O19  1  0.74337403  0.36682599  0.40869097  1
