# generated using pymatgen
data_Nd9Sn7
_symmetry_space_group_name_H-M   'P 1'
_cell_length_a   6.44016886
_cell_length_b   9.19217587
_cell_length_c   9.19217587
_cell_angle_alpha   120.00000000
_cell_angle_beta   90.00000000
_cell_angle_gamma   90.00000000
_symmetry_Int_Tables_number   1
_chemical_formula_structural   Nd9Sn7
_chemical_formula_sum   'Nd9 Sn7'
_cell_volume   471.26429345
_cell_formula_units_Z   1
loop_
 _symmetry_equiv_pos_site_id
 _symmetry_equiv_pos_as_xyz
  1  'x, y, z'
loop_
 _atom_site_type_symbol
 _atom_site_label
 _atom_site_symmetry_multiplicity
 _atom_site_fract_x
 _atom_site_fract_y
 _atom_site_fract_z
 _atom_site_occupancy
  Nd  Nd0  1  0.75000002  0.75147201  0.75147202  1
  Nd  Nd1  1  0.25000001  0.24852800  0.24852801  1
  Nd  Nd2  1  0.75000002  1.00000002  0.24852801  1
  Nd  Nd3  1  0.75000002  0.24852800  1.00000002  1
  Nd  Nd4  1  0.25000001  0.75147201  1.00000002  1
  Nd  Nd5  1  0.25000001  1.00000002  0.75147202  1
  Nd  Nd6  1  1.00000002  0.66666668  0.33333334  1
  Nd  Nd7  1  0.50000001  0.33333334  0.66666668  1
  Sn  Sn8  1  1.00000002  0.33333334  0.66666668  1
  Nd  Nd9  1  0.50000001  0.66666668  0.33333334  1
  Sn  Sn10  1  0.75000002  0.38718001  0.38718001  1
  Sn  Sn11  1  0.25000001  0.61282001  0.61282002  1
  Sn  Sn12  1  0.75000002  1.00000002  0.61282002  1
  Sn  Sn13  1  0.75000002  0.61282001  1.00000002  1
  Sn  Sn14  1  0.25000001  0.38718001  1.00000002  1
  Sn  Sn15  1  0.25000001  1.00000002  0.38718001  1
