# generated using pymatgen
data_Sm4YTlS8
_symmetry_space_group_name_H-M   'P 1'
_cell_length_a   3.70803595
_cell_length_b   7.12449837
_cell_length_c   15.27028942
_cell_angle_alpha   90.00000000
_cell_angle_beta   90.00000000
_cell_angle_gamma   105.08379364
_symmetry_Int_Tables_number   1
_chemical_formula_structural   Sm4YTlS8
_chemical_formula_sum   'Sm4 Y1 Tl1 S8'
_cell_volume   389.50997937
_cell_formula_units_Z   1
loop_
 _symmetry_equiv_pos_site_id
 _symmetry_equiv_pos_as_xyz
  1  'x, y, z'
loop_
 _atom_site_type_symbol
 _atom_site_label
 _atom_site_symmetry_multiplicity
 _atom_site_fract_x
 _atom_site_fract_y
 _atom_site_fract_z
 _atom_site_occupancy
  Sm  Sm0  1  0.50941101  0.01882200  0.74999998  1
  Sm  Sm1  1  0.49058908  0.98117802  0.24999999  1
  Sm  Sm2  1  0.00000000  0.00000000  0.49999999  1
  Sm  Sm3  1  0.00000000  0.00000000  0.00000000  1
  Tl  Tl4  1  0.60012302  0.20024600  0.57614898  1
  Y  Y5  1  0.39987707  0.79975401  0.42385099  1
  S  S6  1  0.39987707  0.79975401  0.07614900  1
  S  S7  1  0.60012302  0.20024600  0.92385097  1
  S  S8  1  0.16723103  0.33446201  0.74999998  1
  S  S9  1  0.83276906  0.66553801  0.24999999  1
  S  S10  1  0.09923002  0.19846000  0.35485299  1
  S  S11  1  0.90077008  0.80154001  0.64514698  1
  S  S12  1  0.90077008  0.80154001  0.85485298  1
  S  S13  1  0.09923002  0.19846000  0.14514700  1
