# generated using pymatgen
data_CeGaPd2
_symmetry_space_group_name_H-M   'P 1'
_cell_length_a   5.21553802
_cell_length_b   6.48771906
_cell_length_c   6.48771906
_cell_angle_alpha   90.00000000
_cell_angle_beta   90.00000000
_cell_angle_gamma   90.00000000
_symmetry_Int_Tables_number   1
_chemical_formula_structural   CeGaPd2
_chemical_formula_sum   'Ce3 Ga3 Pd6'
_cell_volume   219.52459587
_cell_formula_units_Z   3
loop_
 _symmetry_equiv_pos_site_id
 _symmetry_equiv_pos_as_xyz
  1  'x, y, z'
loop_
 _atom_site_type_symbol
 _atom_site_label
 _atom_site_symmetry_multiplicity
 _atom_site_fract_x
 _atom_site_fract_y
 _atom_site_fract_z
 _atom_site_occupancy
  Ce  Ce0  1  0.50000000  0.15890600  0.65367499  1
  Ce  Ce1  1  0.50000000  0.84109399  0.34632500  1
  Ce  Ce2  1  0.50000000  0.65367499  0.84109399  1
  Ga  Ga3  1  0.50000000  0.34632500  0.15890600  1
  Ga  Ga4  1  0.00000000  0.15890600  0.34632500  1
  Ga  Ga5  1  0.00000000  0.84109399  0.65367499  1
  Pd  Pd6  1  0.00000000  0.65367499  0.15890600  1
  Pd  Pd7  1  0.00000000  0.34632500  0.84109399  1
  Pd  Pd8  1  0.25000000  0.00000000  -0.00000000  1
  Pd  Pd9  1  0.75000000  0.00000000  -0.00000000  1
  Pd  Pd10  1  0.25000000  0.50000000  0.50000000  1
  Pd  Pd11  1  0.75000000  0.50000000  0.50000000  1
