# generated using pymatgen
data_HfNi2
_symmetry_space_group_name_H-M   'P 1'
_cell_length_a   4.96886301
_cell_length_b   4.97526360
_cell_length_c   7.89675999
_cell_angle_alpha   90.00000000
_cell_angle_beta   90.00000000
_cell_angle_gamma   119.95744324
_symmetry_Int_Tables_number   1
_chemical_formula_structural   HfNi2
_chemical_formula_sum   'Hf4 Ni8'
_cell_volume   169.13705625
_cell_formula_units_Z   4
loop_
 _symmetry_equiv_pos_site_id
 _symmetry_equiv_pos_as_xyz
  1  'x, y, z'
loop_
 _atom_site_type_symbol
 _atom_site_label
 _atom_site_symmetry_multiplicity
 _atom_site_fract_x
 _atom_site_fract_y
 _atom_site_fract_z
 _atom_site_occupancy
  Hf  Hf0  1  0.66595898  0.33191799  0.56415800  1
  Hf  Hf1  1  0.33404096  0.66808197  0.06415800  1
  Hf  Hf2  1  0.66681598  0.33363199  0.93745500  1
  Hf  Hf3  1  0.33318396  0.66636797  0.43745500  1
  Ni  Ni4  1  0.16973598  0.33947299  0.75033700  1
  Ni  Ni5  1  0.66034095  0.83002897  0.75062100  1
  Ni  Ni6  1  0.16968795  0.83002897  0.75062100  1
  Ni  Ni7  1  0.83026396  0.66052697  0.25033700  1
  Ni  Ni8  1  0.33965899  0.16997099  0.25062100  1
  Ni  Ni9  1  0.83031199  0.16997199  0.25062100  1
  Ni  Ni10  1  0.99988594  0.99977096  0.50070700  1
  Ni  Ni11  1  0.00011400  0.00022900  0.00070700  1
