# generated using pymatgen
data_BaGeBiSbCl2
_symmetry_space_group_name_H-M   'P 1'
_cell_length_a   4.58602810
_cell_length_b   4.58602810
_cell_length_c   7.46373320
_cell_angle_alpha   90.00000000
_cell_angle_beta   90.00000000
_cell_angle_gamma   90.00000000
_symmetry_Int_Tables_number   1
_chemical_formula_structural   BaGeBiSbCl2
_chemical_formula_sum   'Ba1 Ge1 Bi1 Sb1 Cl2'
_cell_volume   156.97465208
_cell_formula_units_Z   1
loop_
 _symmetry_equiv_pos_site_id
 _symmetry_equiv_pos_as_xyz
  1  'x, y, z'
loop_
 _atom_site_type_symbol
 _atom_site_label
 _atom_site_symmetry_multiplicity
 _atom_site_fract_x
 _atom_site_fract_y
 _atom_site_fract_z
 _atom_site_occupancy
  Ba  Ba0  1  0.49999999  0.00000000  0.80672598  1
  Sb  Sb1  1  0.00000000  0.49999999  0.19327399  1
  Bi  Bi2  1  0.49999999  0.49999999  0.00000000  1
  Ge  Ge3  1  0.00000000  0.00000000  0.00000000  1
  Cl  Cl4  1  0.00000000  0.49999999  0.65915798  1
  Cl  Cl5  1  0.49999999  0.00000000  0.34084199  1
