# generated using pymatgen
data_AcLaBi2
_symmetry_space_group_name_H-M   'P 1'
_cell_length_a   4.90388298
_cell_length_b   5.39465618
_cell_length_c   7.00766039
_cell_angle_alpha   67.36176300
_cell_angle_beta   90.00000000
_cell_angle_gamma   90.00000000
_symmetry_Int_Tables_number   1
_chemical_formula_structural   AcLaBi2
_chemical_formula_sum   'Ac1 La1 Bi2'
_cell_volume   171.10265918
_cell_formula_units_Z   1
loop_
 _symmetry_equiv_pos_site_id
 _symmetry_equiv_pos_as_xyz
  1  'x, y, z'
loop_
 _atom_site_type_symbol
 _atom_site_label
 _atom_site_symmetry_multiplicity
 _atom_site_fract_x
 _atom_site_fract_y
 _atom_site_fract_z
 _atom_site_occupancy
  Ac  Ac0  1  0.25000000  0.86713397  0.26573200  1
  La  La1  1  0.75000000  0.13286600  0.73426800  1
  Bi  Bi2  1  0.25000000  0.57809098  0.84381799  1
  Bi  Bi3  1  0.75000000  0.42190899  0.15618200  1
