# generated using pymatgen
data_Li12Ca2EuGa
_symmetry_space_group_name_H-M   'P 1'
_cell_length_a   5.32166719
_cell_length_b   5.33528805
_cell_length_c   10.64233780
_cell_angle_alpha   90.00000000
_cell_angle_beta   90.00000000
_cell_angle_gamma   90.00000000
_symmetry_Int_Tables_number   1
_chemical_formula_structural   Li12Ca2EuGa
_chemical_formula_sum   'Li12 Ca2 Eu1 Ga1'
_cell_volume   302.16393154
_cell_formula_units_Z   1
loop_
 _symmetry_equiv_pos_site_id
 _symmetry_equiv_pos_as_xyz
  1  'x, y, z'
loop_
 _atom_site_type_symbol
 _atom_site_label
 _atom_site_symmetry_multiplicity
 _atom_site_fract_x
 _atom_site_fract_y
 _atom_site_fract_z
 _atom_site_occupancy
  Li  Li0  1  0.00000000  0.50000000  0.37745401  1
  Li  Li1  1  0.00000000  0.50000000  0.87854302  1
  Li  Li2  1  0.49999998  0.24479700  0.00000000  1
  Ca  Ca3  1  0.49999998  0.24623300  0.50000001  1
  Li  Li4  1  0.75478797  0.00000000  0.25068900  1
  Li  Li5  1  0.75478797  0.00000000  0.74931101  1
  Ca  Ca6  1  0.00000000  0.50000000  0.12145700  1
  Li  Li7  1  0.00000000  0.50000000  0.62254601  1
  Li  Li8  1  0.49999998  0.75520299  0.00000000  1
  Li  Li9  1  0.49999998  0.75376699  0.50000001  1
  Li  Li10  1  0.24521199  0.00000000  0.25068900  1
  Li  Li11  1  0.24521199  0.00000000  0.74931101  1
  Eu  Eu12  1  0.49999998  0.50000000  0.25005600  1
  Li  Li13  1  0.49999998  0.50000000  0.74994401  1
  Li  Li14  1  0.00000000  0.00000000  0.00000000  1
  Ga  Ga15  1  0.00000000  0.00000000  0.50000001  1
