# generated using pymatgen
data_Li2TiNi11
_symmetry_space_group_name_H-M   'P 1'
_cell_length_a   4.89178562
_cell_length_b   4.89178562
_cell_length_c   10.29146481
_cell_angle_alpha   76.25140381
_cell_angle_beta   76.25140381
_cell_angle_gamma   60.00000381
_symmetry_Int_Tables_number   1
_chemical_formula_structural   Li2TiNi11
_chemical_formula_sum   'Li2 Ti1 Ni11'
_cell_volume   205.08812401
_cell_formula_units_Z   1
loop_
 _symmetry_equiv_pos_site_id
 _symmetry_equiv_pos_as_xyz
  1  'x, y, z'
loop_
 _atom_site_type_symbol
 _atom_site_label
 _atom_site_symmetry_multiplicity
 _atom_site_fract_x
 _atom_site_fract_y
 _atom_site_fract_z
 _atom_site_occupancy
  Li  Li0  1  0.00000000  0.00000000  0.00000000  1
  Li  Li1  1  0.50000003  0.50000001  0.49999999  1
  Ti  Ti2  1  0.11062401  0.11062400  0.66812799  1
  Ni  Ni3  1  0.88937605  0.88937602  0.33187199  1
  Ni  Ni4  1  0.33382902  0.33382901  0.99851298  1
  Ni  Ni5  1  0.56691103  0.56691101  0.79687298  1
  Ni  Ni6  1  0.56691102  0.06930500  0.79687299  1
  Ni  Ni7  1  0.06930502  0.56691101  0.79687299  1
  Ni  Ni8  1  0.80096205  0.80096202  0.59711398  1
  Ni  Ni9  1  0.19903801  0.19903801  0.40288599  1
  Ni  Ni10  1  0.93069504  0.43308901  0.20312699  1
  Ni  Ni11  1  0.43308904  0.93069502  0.20312699  1
  Ni  Ni12  1  0.43308903  0.43308901  0.20312699  1
  Ni  Ni13  1  0.66617104  0.66617102  0.00148699  1
