# generated using pymatgen
data_Fe3BMo2
_symmetry_space_group_name_H-M   'P 1'
_cell_length_a   3.61907697
_cell_length_b   3.61907697
_cell_length_c   5.84205198
_cell_angle_alpha   90.00000000
_cell_angle_beta   90.00000000
_cell_angle_gamma   90.00000000
_symmetry_Int_Tables_number   1
_chemical_formula_structural   Fe3BMo2
_chemical_formula_sum   'Fe3 B1 Mo2'
_cell_volume   76.51754997
_cell_formula_units_Z   1
loop_
 _symmetry_equiv_pos_site_id
 _symmetry_equiv_pos_as_xyz
  1  'x, y, z'
loop_
 _atom_site_type_symbol
 _atom_site_label
 _atom_site_symmetry_multiplicity
 _atom_site_fract_x
 _atom_site_fract_y
 _atom_site_fract_z
 _atom_site_occupancy
  Fe  Fe0  1  0.00000000  0.00000000  0.00000000  1
  Fe  Fe1  1  0.50000000  0.50000000  0.00000000  1
  Fe  Fe2  1  0.00000000  0.50000000  0.77921000  1
  B  B3  1  0.50000000  0.00000000  0.22079000  1
  Mo  Mo4  1  0.00000000  0.50000000  0.37750500  1
  Mo  Mo5  1  0.50000000  0.00000000  0.62249500  1
