# generated using pymatgen
data_La2Ce3Bi5(IO4)2
_symmetry_space_group_name_H-M   'P 1'
_cell_length_a   7.67679739
_cell_length_b   7.67679739
_cell_length_c   7.67679739
_cell_angle_alpha   109.47122192
_cell_angle_beta   109.47122192
_cell_angle_gamma   109.47122192
_symmetry_Int_Tables_number   1
_chemical_formula_structural   La2Ce3Bi5(IO4)2
_chemical_formula_sum   'La2 Ce3 Bi5 I2 O8'
_cell_volume   348.27181114
_cell_formula_units_Z   1
loop_
 _symmetry_equiv_pos_site_id
 _symmetry_equiv_pos_as_xyz
  1  'x, y, z'
loop_
 _atom_site_type_symbol
 _atom_site_label
 _atom_site_symmetry_multiplicity
 _atom_site_fract_x
 _atom_site_fract_y
 _atom_site_fract_z
 _atom_site_occupancy
  Ce  Ce0  1  0.65963504  0.65963502  0.00000005  1
  La  La1  1  0.65963500  0.00000000  0.65963501  1
  Ce  Ce2  1  0.34036500  0.00000000  0.34036500  1
  Ce  Ce3  1  0.00000002  0.34036501  0.34036502  1
  La  La4  1  0.00000004  0.65963502  0.65963503  1
  Bi  Bi5  1  0.34036502  0.34036501  0.00000003  1
  Bi  Bi6  1  0.75000002  0.25000001  0.50000003  1
  Bi  Bi7  1  0.75000003  0.50000002  0.25000004  1
  Bi  Bi8  1  0.25000003  0.50000002  0.75000003  1
  Bi  Bi9  1  0.50000005  0.75000002  0.25000005  1
  O  O10  1  0.50000002  0.25000001  0.75000002  1
  O  O11  1  0.25000005  0.75000002  0.50000004  1
  O  O12  1  0.66816204  0.66816202  0.66816205  1
  O  O13  1  1.00000006  1.00000003  0.66816207  1
  O  O14  1  0.00000004  0.66816202  0.00000004  1
  O  O15  1  0.66816200  0.00000000  0.00000002  1
  I  I16  1  1.00000002  0.33183801  0.00000004  1
  I  I17  1  0.33183806  1.00000003  0.00000006  1
  O  O18  1  1.00000006  1.00000003  0.33183808  1
  O  O19  1  0.33183802  0.33183801  0.33183802  1
