# generated using pymatgen
data_LaCe8FeCo2(IrRu)4
_symmetry_space_group_name_H-M   'P 1'
_cell_length_a   3.96878695
_cell_length_b   8.14227581
_cell_length_c   13.73027229
_cell_angle_alpha   90.00000000
_cell_angle_beta   90.00000000
_cell_angle_gamma   90.00000000
_symmetry_Int_Tables_number   1
_chemical_formula_structural   LaCe8FeCo2(IrRu)4
_chemical_formula_sum   'La1 Ce8 Fe1 Co2 Ru4 Ir4'
_cell_volume   443.69317274
_cell_formula_units_Z   1
loop_
 _symmetry_equiv_pos_site_id
 _symmetry_equiv_pos_as_xyz
  1  'x, y, z'
loop_
 _atom_site_type_symbol
 _atom_site_label
 _atom_site_symmetry_multiplicity
 _atom_site_fract_x
 _atom_site_fract_y
 _atom_site_fract_z
 _atom_site_occupancy
  Ce  Ce0  1  0.25000000  0.09661400  0.17106200  1
  La  La1  1  0.75000001  0.40338601  0.67106199  1
  Ce  Ce2  1  0.25000000  0.59661401  0.32893799  1
  Ce  Ce3  1  0.75000001  0.90338602  0.82893798  1
  Ce  Ce4  1  0.75000001  0.66128502  0.05128100  1
  Ce  Ce5  1  0.25000000  0.33871501  0.94871898  1
  Ce  Ce6  1  0.75000001  0.16128500  0.44871899  1
  Ce  Ce7  1  0.25000000  0.83871502  0.55128099  1
  Ce  Ce8  1  0.25000000  0.48647301  0.10902100  1
  Fe  Fe9  1  0.25000000  0.84350902  0.99616498  1
  Co  Co10  1  0.75000001  0.51352701  0.89097898  1
  Co  Co11  1  0.25000000  0.34350901  0.50383499  1
  Ru  Ru12  1  0.75000001  0.15649100  0.00383500  1
  Ru  Ru13  1  0.75000001  0.81063102  0.21208900  1
  Ir  Ir14  1  0.25000000  0.68936902  0.71208898  1
  Ru  Ru15  1  0.75000001  0.31063101  0.28791099  1
  Ir  Ir16  1  0.25000000  0.18936900  0.78791098  1
  Ir  Ir17  1  0.75000001  0.65649102  0.49616499  1
  Ru  Ru18  1  0.25000000  0.98647302  0.39097899  1
  Ir  Ir19  1  0.75000001  0.01352700  0.60902099  1
