# generated using pymatgen
data_Li4Nb(FeO4)3
_symmetry_space_group_name_H-M   'P 1'
_cell_length_a   5.45382786
_cell_length_b   5.50013781
_cell_length_c   7.72144985
_cell_angle_alpha   90.00000000
_cell_angle_beta   90.00000000
_cell_angle_gamma   90.00000000
_symmetry_Int_Tables_number   1
_chemical_formula_structural   Li4Nb(FeO4)3
_chemical_formula_sum   'Li4 Nb1 Fe3 O12'
_cell_volume   231.61882390
_cell_formula_units_Z   1
loop_
 _symmetry_equiv_pos_site_id
 _symmetry_equiv_pos_as_xyz
  1  'x, y, z'
loop_
 _atom_site_type_symbol
 _atom_site_label
 _atom_site_symmetry_multiplicity
 _atom_site_fract_x
 _atom_site_fract_y
 _atom_site_fract_z
 _atom_site_occupancy
  Li  Li0  1  0.49010701  0.20890001  0.00000000  1
  Li  Li1  1  0.99010703  0.79110003  0.50000001  1
  Li  Li2  1  0.00895700  0.71357803  -0.00000000  1
  Li  Li3  1  0.50895701  0.28642201  0.50000001  1
  Fe  Fe4  1  0.00031700  0.24874301  0.75040201  1
  Nb  Nb5  1  0.00031700  0.24874301  0.24959800  1
  Fe  Fe6  1  0.50031701  0.75125703  0.25040200  1
  Fe  Fe7  1  0.50031701  0.75125703  0.74959801  1
  O  O8  1  0.07227300  0.23314801  0.50000001  1
  O  O9  1  0.21896901  0.96860903  0.78905502  1
  O  O10  1  0.21896901  0.96860903  0.21094500  1
  O  O11  1  0.28408601  0.46620802  0.20829100  1
  O  O12  1  0.28408601  0.46620802  0.79170902  1
  O  O13  1  0.42189901  0.73558603  0.50000001  1
  O  O14  1  0.57227301  0.76685203  0.00000000  1
  O  O15  1  0.71896902  0.03139100  0.71094501  1
  O  O16  1  0.71896902  0.03139100  0.28905501  1
  O  O17  1  0.78408602  0.53379202  0.70829101  1
  O  O18  1  0.78408602  0.53379202  0.29170901  1
  O  O19  1  0.92189902  0.26441401  0.00000000  1
