# generated using pymatgen
data_Li6FeO7
_symmetry_space_group_name_H-M   'P 1'
_cell_length_a   5.74331617
_cell_length_b   6.22796679
_cell_length_c   6.77100801
_cell_angle_alpha   115.82981110
_cell_angle_beta   96.63218689
_cell_angle_gamma   109.58396149
_symmetry_Int_Tables_number   1
_chemical_formula_structural   Li6FeO7
_chemical_formula_sum   'Li6 Fe1 O7'
_cell_volume   195.37397090
_cell_formula_units_Z   1
loop_
 _symmetry_equiv_pos_site_id
 _symmetry_equiv_pos_as_xyz
  1  'x, y, z'
loop_
 _atom_site_type_symbol
 _atom_site_label
 _atom_site_symmetry_multiplicity
 _atom_site_fract_x
 _atom_site_fract_y
 _atom_site_fract_z
 _atom_site_occupancy
  Li  Li0  1  0.50000002  0.50000002  0.50000004  1
  Li  Li1  1  0.00000000  0.00000000  0.50000001  1
  Li  Li2  1  0.50000002  0.50000002  0.00000004  1
  Li  Li3  1  0.50000002  0.00000000  0.50000003  1
  Li  Li4  1  0.85720003  0.24808801  0.14410404  1
  Li  Li5  1  0.14280001  0.75191204  0.85589604  1
  Fe  Fe6  1  0.51849803  0.86203104  0.72331706  1
  O  O7  1  0.48150202  0.13796901  0.27668303  1
  O  O8  1  0.83456104  0.83184004  0.15858006  1
  O  O9  1  0.16543901  0.16816001  0.84142002  1
  O  O10  1  0.87021604  0.65522403  0.49513506  1
  O  O11  1  0.12978401  0.34477602  0.50486502  1
  O  O12  1  0.36777002  0.60370903  0.27508504  1
  O  O13  1  0.63223003  0.39629102  0.72491505  1
