# generated using pymatgen
data_NaTiO3
_symmetry_space_group_name_H-M   'P 1'
_cell_length_a   3.59000993
_cell_length_b   3.59001017
_cell_length_c   6.42489386
_cell_angle_alpha   90.00000000
_cell_angle_beta   90.00000000
_cell_angle_gamma   120.00000000
_symmetry_Int_Tables_number   1
_chemical_formula_structural   NaTiO3
_chemical_formula_sum   'Na1 Ti1 O3'
_cell_volume   71.71135305
_cell_formula_units_Z   1
loop_
 _symmetry_equiv_pos_site_id
 _symmetry_equiv_pos_as_xyz
  1  'x, y, z'
loop_
 _atom_site_type_symbol
 _atom_site_label
 _atom_site_symmetry_multiplicity
 _atom_site_fract_x
 _atom_site_fract_y
 _atom_site_fract_z
 _atom_site_occupancy
  Na  Na0  1  0.33333335  0.66666667  0.29646001  1
  Ti  Ti1  1  0.66666669  0.33333333  0.70354002  1
  O  O2  1  0.00000000  0.00000000  0.00000000  1
  O  O3  1  0.33333335  0.66666667  0.63469301  1
  O  O4  1  0.66666669  0.33333333  0.36530701  1
