# generated using pymatgen
data_Dy2ErPd6
_symmetry_space_group_name_H-M   'P 1'
_cell_length_a   4.18467617
_cell_length_b   6.96118212
_cell_length_c   6.96118164
_cell_angle_alpha   120.00000000
_cell_angle_beta   90.00000000
_cell_angle_gamma   90.00000000
_symmetry_Int_Tables_number   1
_chemical_formula_structural   Dy2ErPd6
_chemical_formula_sum   'Dy2 Er1 Pd6'
_cell_volume   175.61372282
_cell_formula_units_Z   1
loop_
 _symmetry_equiv_pos_site_id
 _symmetry_equiv_pos_as_xyz
  1  'x, y, z'
loop_
 _atom_site_type_symbol
 _atom_site_label
 _atom_site_symmetry_multiplicity
 _atom_site_fract_x
 _atom_site_fract_y
 _atom_site_fract_z
 _atom_site_occupancy
  Dy  Dy0  1  -0.00000000  0.99999996  0.59595396  1
  Dy  Dy1  1  -0.00000000  0.59595398  0.99999997  1
  Er  Er2  1  -0.00000000  0.40404599  0.40404598  1
  Pd  Pd3  1  0.49999998  0.77259297  0.77259297  1
  Pd  Pd4  1  0.49999998  0.22740699  0.99999999  1
  Pd  Pd5  1  0.49999998  0.99999996  0.22740696  1
  Pd  Pd6  1  0.00000000  0.00000000  0.00000000  1
  Pd  Pd7  1  0.49999998  0.33333332  0.66666665  1
  Pd  Pd8  1  0.49999998  0.66666664  0.33333331  1
