# generated using pymatgen
data_Li2MgNi
_symmetry_space_group_name_H-M   'P 1'
_cell_length_a   3.97731090
_cell_length_b   6.56709862
_cell_length_c   6.56709862
_cell_angle_alpha   89.54634857
_cell_angle_beta   90.00000000
_cell_angle_gamma   90.00000000
_symmetry_Int_Tables_number   1
_chemical_formula_structural   Li2MgNi
_chemical_formula_sum   'Li4 Mg2 Ni2'
_cell_volume   171.52325236
_cell_formula_units_Z   2
loop_
 _symmetry_equiv_pos_site_id
 _symmetry_equiv_pos_as_xyz
  1  'x, y, z'
loop_
 _atom_site_type_symbol
 _atom_site_label
 _atom_site_symmetry_multiplicity
 _atom_site_fract_x
 _atom_site_fract_y
 _atom_site_fract_z
 _atom_site_occupancy
  Li  Li0  1  1.00000003  0.49999999  0.00000001  1
  Li  Li1  1  0.00000000  0.00000000  0.49999999  1
  Li  Li2  1  0.50000001  0.83963499  0.83963500  1
  Li  Li3  1  0.50000001  0.16036500  0.16036500  1
  Mg  Mg4  1  0.50000001  0.66285299  0.33714701  1
  Mg  Mg5  1  0.50000001  0.33714699  0.66285300  1
  Ni  Ni6  1  -0.00000000  0.36527499  0.36527500  1
  Ni  Ni7  1  -0.00000000  0.63472499  0.63472500  1
