# generated using pymatgen
data_BaSrCaTiCu(NiO4)2
_symmetry_space_group_name_H-M   'P 1'
_cell_length_a   3.87346411
_cell_length_b   3.89120412
_cell_length_c   13.86912823
_cell_angle_alpha   81.93578339
_cell_angle_beta   90.00000000
_cell_angle_gamma   90.00000000
_symmetry_Int_Tables_number   1
_chemical_formula_structural   BaSrCaTiCu(NiO4)2
_chemical_formula_sum   'Ba1 Sr1 Ca1 Ti1 Cu1 Ni2 O8'
_cell_volume   206.97448037
_cell_formula_units_Z   1
loop_
 _symmetry_equiv_pos_site_id
 _symmetry_equiv_pos_as_xyz
  1  'x, y, z'
loop_
 _atom_site_type_symbol
 _atom_site_label
 _atom_site_symmetry_multiplicity
 _atom_site_fract_x
 _atom_site_fract_y
 _atom_site_fract_z
 _atom_site_occupancy
  Sr  Sr0  1  0.49999999  0.63540498  0.72919002  1
  Ba  Ba1  1  0.49999999  0.36459499  0.27081001  1
  Ca  Ca2  1  0.49999999  0.49999998  0.00000000  1
  Ti  Ti3  1  0.99999997  0.06057500  0.87885002  1
  Cu  Cu4  1  0.99999997  0.93942497  0.12115001  1
  Ni  Ni5  1  0.00000000  0.21256199  0.57487601  1
  Ni  Ni6  1  0.00000000  0.78743797  0.42512401  1
  O  O7  1  0.00000000  0.71846197  0.56307602  1
  O  O8  1  0.00000000  0.28153799  0.43692401  1
  O  O9  1  0.00000000  0.55111198  0.89777602  1
  O  O10  1  0.00000000  0.44888798  0.10222401  1
  O  O11  1  0.49999999  0.05120700  0.89758602  1
  O  O12  1  0.49999999  0.94879297  0.10241401  1
  O  O13  1  0.00000000  0.14517899  0.70964201  1
  O  O14  1  0.00000000  0.85482097  0.29035801  1
