# generated using pymatgen
data_LaPr
_symmetry_space_group_name_H-M   'P 1'
_cell_length_a   3.11493802
_cell_length_b   3.11493850
_cell_length_c   5.98392105
_cell_angle_alpha   90.00000000
_cell_angle_beta   90.00000000
_cell_angle_gamma   119.99999237
_symmetry_Int_Tables_number   1
_chemical_formula_structural   LaPr
_chemical_formula_sum   'La1 Pr1'
_cell_volume   50.28233140
_cell_formula_units_Z   1
loop_
 _symmetry_equiv_pos_site_id
 _symmetry_equiv_pos_as_xyz
  1  'x, y, z'
loop_
 _atom_site_type_symbol
 _atom_site_label
 _atom_site_symmetry_multiplicity
 _atom_site_fract_x
 _atom_site_fract_y
 _atom_site_fract_z
 _atom_site_occupancy
  Pr  Pr0  1  0.00000000  0.00000000  0.50000000  1
  La  La1  1  0.33333330  0.66666665  0.99999999  1
