# generated using pymatgen
data_CeEuBC3
_symmetry_space_group_name_H-M   'P 1'
_cell_length_a   4.14465332
_cell_length_b   4.14465332
_cell_length_c   5.40762043
_cell_angle_alpha   90.00000000
_cell_angle_beta   90.00000000
_cell_angle_gamma   99.72444153
_symmetry_Int_Tables_number   1
_chemical_formula_structural   CeEuBC3
_chemical_formula_sum   'Ce1 Eu1 B1 C3'
_cell_volume   91.55818955
_cell_formula_units_Z   1
loop_
 _symmetry_equiv_pos_site_id
 _symmetry_equiv_pos_as_xyz
  1  'x, y, z'
loop_
 _atom_site_type_symbol
 _atom_site_label
 _atom_site_symmetry_multiplicity
 _atom_site_fract_x
 _atom_site_fract_y
 _atom_site_fract_z
 _atom_site_occupancy
  Ce  Ce0  1  0.00000000  0.00000000  0.00000000  1
  Eu  Eu1  1  0.50000004  0.50000001  0.49999999  1
  B  B2  1  0.39897404  0.60102602  -0.00000000  1
  C  C3  1  0.89737002  0.10263000  0.49999999  1
  C  C4  1  0.10263006  0.89737002  0.49999999  1
  C  C5  1  0.60102604  0.39897401  -0.00000000  1
