# generated using pymatgen
data_Dy(HoPd3)2
_symmetry_space_group_name_H-M   'P 1'
_cell_length_a   4.11519384
_cell_length_b   6.91102982
_cell_length_c   6.91103029
_cell_angle_alpha   120.00000000
_cell_angle_beta   90.00000000
_cell_angle_gamma   90.00000000
_symmetry_Int_Tables_number   1
_chemical_formula_structural   Dy(HoPd3)2
_chemical_formula_sum   'Dy1 Ho2 Pd6'
_cell_volume   170.21839535
_cell_formula_units_Z   1
loop_
 _symmetry_equiv_pos_site_id
 _symmetry_equiv_pos_as_xyz
  1  'x, y, z'
loop_
 _atom_site_type_symbol
 _atom_site_label
 _atom_site_symmetry_multiplicity
 _atom_site_fract_x
 _atom_site_fract_y
 _atom_site_fract_z
 _atom_site_occupancy
  Dy  Dy0  1  0.50000002  0.57841003  1.00000004  1
  Ho  Ho1  1  0.50000002  0.42159002  0.42159002  1
  Ho  Ho2  1  0.50000002  0.00000000  0.57841001  1
  Pd  Pd3  1  1.00000004  0.23677501  0.00000001  1
  Pd  Pd4  1  1.00000004  0.76322503  0.76322504  1
  Pd  Pd5  1  0.00000000  0.00000000  0.23677500  1
  Pd  Pd6  1  1.00000004  0.33333335  0.66666669  1
  Pd  Pd7  1  -0.00000000  0.66666670  0.33333336  1
  Pd  Pd8  1  0.50000002  0.00000000  -0.00000000  1
