# generated using pymatgen
data_USnPd
_symmetry_space_group_name_H-M   'P 1'
_cell_length_a   3.78941989
_cell_length_b   7.31935406
_cell_length_c   7.31935453
_cell_angle_alpha   120.00000000
_cell_angle_beta   90.00000000
_cell_angle_gamma   90.00000000
_symmetry_Int_Tables_number   1
_chemical_formula_structural   USnPd
_chemical_formula_sum   'U3 Sn3 Pd3'
_cell_volume   175.81215676
_cell_formula_units_Z   3
loop_
 _symmetry_equiv_pos_site_id
 _symmetry_equiv_pos_as_xyz
  1  'x, y, z'
loop_
 _atom_site_type_symbol
 _atom_site_label
 _atom_site_symmetry_multiplicity
 _atom_site_fract_x
 _atom_site_fract_y
 _atom_site_fract_z
 _atom_site_occupancy
  U  U0  1  -0.00000000  0.40574700  0.40574701  1
  U  U1  1  0.00000000  0.00000000  0.59425299  1
  U  U2  1  -0.00000000  0.59425301  0.00000002  1
  Sn  Sn3  1  0.50000001  0.74648101  0.74648102  1
  Sn  Sn4  1  0.50000001  0.00000000  0.25351900  1
  Sn  Sn5  1  0.50000001  0.25351900  0.00000001  1
  Pd  Pd6  1  0.00000000  0.00000000  0.00000000  1
  Pd  Pd7  1  0.50000001  0.66666667  0.33333335  1
  Pd  Pd8  1  0.50000001  0.33333334  0.66666667  1
