# generated using pymatgen
data_Li2O
_symmetry_space_group_name_H-M   'P 1'
_cell_length_a   4.76547098
_cell_length_b   5.40211344
_cell_length_c   8.51321220
_cell_angle_alpha   108.49839783
_cell_angle_beta   90.00000000
_cell_angle_gamma   90.00000000
_symmetry_Int_Tables_number   1
_chemical_formula_structural   Li2O
_chemical_formula_sum   'Li10 O5'
_cell_volume   207.83736846
_cell_formula_units_Z   5
loop_
 _symmetry_equiv_pos_site_id
 _symmetry_equiv_pos_as_xyz
  1  'x, y, z'
loop_
 _atom_site_type_symbol
 _atom_site_label
 _atom_site_symmetry_multiplicity
 _atom_site_fract_x
 _atom_site_fract_y
 _atom_site_fract_z
 _atom_site_occupancy
  Li  Li0  1  0.52144700  0.16666700  0.33333334  1
  Li  Li1  1  0.50639900  0.50291300  0.00582701  1
  Li  Li2  1  0.50639900  0.83042000  0.66084003  1
  Li  Li3  1  0.93413800  0.99241900  0.98483804  1
  Li  Li4  1  0.93413800  0.34091400  0.68182902  1
  Li  Li5  1  0.96817100  0.66666666  0.33333335  1
  Li  Li6  1  0.64700500  0.66666666  0.83333303  1
  O  O7  1  0.64199000  0.32622400  0.16534901  1
  O  O8  1  0.64199000  0.00710900  0.50131801  1
  O  O9  1  0.64199000  0.49421000  0.50131802  1
  Li  Li10  1  0.64700500  0.16666700  0.83333302  1
  O  O11  1  0.64199000  0.83912300  0.16534902  1
  Li  Li12  1  0.11913400  0.84561700  0.69123403  1
  Li  Li13  1  0.11913400  0.48771600  0.97543303  1
  O  O14  1  0.15299000  0.16666700  0.33333334  1
