# generated using pymatgen
data_Li2Mn2O7
_symmetry_space_group_name_H-M   'P 1'
_cell_length_a   4.76372242
_cell_length_b   5.51872158
_cell_length_c   5.51872158
_cell_angle_alpha   75.01385498
_cell_angle_beta   82.19680023
_cell_angle_gamma   97.80319977
_symmetry_Int_Tables_number   1
_chemical_formula_structural   Li2Mn2O7
_chemical_formula_sum   'Li2 Mn2 O7'
_cell_volume   136.62172860
_cell_formula_units_Z   1
loop_
 _symmetry_equiv_pos_site_id
 _symmetry_equiv_pos_as_xyz
  1  'x, y, z'
loop_
 _atom_site_type_symbol
 _atom_site_label
 _atom_site_symmetry_multiplicity
 _atom_site_fract_x
 _atom_site_fract_y
 _atom_site_fract_z
 _atom_site_occupancy
  Li  Li0  1  -0.00000003  0.30830199  0.30830202  1
  Li  Li1  1  -0.00000007  0.69169797  0.69169804  1
  Mn  Mn2  1  0.59081092  0.78080696  0.21919308  1
  Mn  Mn3  1  0.40918897  0.21919299  0.78080702  1
  O  O4  1  0.21820396  0.38928898  0.92144603  1
  O  O5  1  0.78179590  0.92144596  0.38928910  1
  O  O6  1  0.78179593  0.61071097  0.07855408  1
  O  O7  1  0.21820399  0.07855400  0.61071101  1
  O  O8  1  0.49999999  0.00000000  0.00000002  1
  O  O9  1  0.71586895  0.38965598  0.61034405  1
  O  O10  1  0.28413094  0.61034397  0.38965605  1
