# generated using pymatgen
data_Bi6Ir11Pb3
_symmetry_space_group_name_H-M   'P 1'
_cell_length_a   7.40389395
_cell_length_b   7.40389395
_cell_length_c   13.24503422
_cell_angle_alpha   90.00000000
_cell_angle_beta   90.00000000
_cell_angle_gamma   120.00000000
_symmetry_Int_Tables_number   1
_chemical_formula_structural   Bi6Ir11Pb3
_chemical_formula_sum   'Bi6 Ir11 Pb3'
_cell_volume   628.78778299
_cell_formula_units_Z   1
loop_
 _symmetry_equiv_pos_site_id
 _symmetry_equiv_pos_as_xyz
  1  'x, y, z'
loop_
 _atom_site_type_symbol
 _atom_site_label
 _atom_site_symmetry_multiplicity
 _atom_site_fract_x
 _atom_site_fract_y
 _atom_site_fract_z
 _atom_site_occupancy
  Bi  Bi0  1  0.33333332  0.66666664  0.53841699  1
  Pb  Pb1  1  0.33333332  0.66666664  0.96158298  1
  Bi  Bi2  1  0.66666666  0.33333332  0.46158299  1
  Pb  Pb3  1  0.66666666  0.33333332  0.03841700  1
  Bi  Bi4  1  0.00000000  0.00000000  0.25000000  1
  Bi  Bi5  1  0.00000000  0.00000000  0.74999999  1
  Bi  Bi6  1  0.33333332  0.66666664  0.25000000  1
  Bi  Bi7  1  0.66666666  0.33333332  0.74999999  1
  Pb  Pb8  1  0.63192298  0.95131296  0.13053900  1
  Ir  Ir9  1  0.04868699  0.36807699  0.36946099  1
  Ir  Ir10  1  0.63192299  0.68060997  0.36946099  1
  Ir  Ir11  1  0.31938998  0.95131296  0.36946099  1
  Ir  Ir12  1  0.04868698  0.68060997  0.13053900  1
  Ir  Ir13  1  0.31938999  0.36807699  0.13053900  1
  Ir  Ir14  1  0.68061000  0.04868700  0.63053899  1
  Ir  Ir15  1  0.36807700  0.31938999  0.63053899  1
  Ir  Ir16  1  0.95131299  0.63192298  0.63053899  1
  Ir  Ir17  1  0.36807700  0.04868700  0.86946099  1
  Ir  Ir18  1  0.95131300  0.31938999  0.86946099  1
  Ir  Ir19  1  0.68060999  0.63192298  0.86946099  1
