# generated using pymatgen
data_Ba2Sr2WO9
_symmetry_space_group_name_H-M   'P 1'
_cell_length_a   5.82578802
_cell_length_b   5.82578754
_cell_length_c   7.81361294
_cell_angle_alpha   90.00000000
_cell_angle_beta   90.00000000
_cell_angle_gamma   120.00000000
_symmetry_Int_Tables_number   1
_chemical_formula_structural   Ba2Sr2WO9
_chemical_formula_sum   'Ba2 Sr2 W1 O9'
_cell_volume   229.66342984
_cell_formula_units_Z   1
loop_
 _symmetry_equiv_pos_site_id
 _symmetry_equiv_pos_as_xyz
  1  'x, y, z'
loop_
 _atom_site_type_symbol
 _atom_site_label
 _atom_site_symmetry_multiplicity
 _atom_site_fract_x
 _atom_site_fract_y
 _atom_site_fract_z
 _atom_site_occupancy
  Sr  Sr0  1  0.00000000  0.00000000  0.50000000  1
  Ba  Ba1  1  0.33333331  0.66666667  0.20952000  1
  Ba  Ba2  1  0.66666665  0.33333333  0.79048001  1
  Sr  Sr3  1  0.00000000  0.00000000  0.00000000  1
  W  W4  1  0.66666665  0.33333333  0.23525900  1
  O  O5  1  0.33333331  0.66666667  0.76474101  1
  O  O6  1  0.33333331  0.66666667  0.56655800  1
  O  O7  1  0.66666665  0.33333333  0.43344200  1
  O  O8  1  0.18801898  0.37603800  0.83167601  1
  O  O9  1  0.18801897  0.81198100  0.83167601  1
  O  O10  1  0.62396197  0.81198100  0.83167601  1
  O  O11  1  0.37603799  0.18801900  0.16832400  1
  O  O12  1  0.81198097  0.62396200  0.16832400  1
  O  O13  1  0.81198099  0.18801900  0.16832400  1
