# generated using pymatgen
data_Nd4Mg2ZnNi2Sn
_symmetry_space_group_name_H-M   'P 1'
_cell_length_a   4.40453577
_cell_length_b   7.62124300
_cell_length_c   7.62124300
_cell_angle_alpha   90.00000000
_cell_angle_beta   90.00000000
_cell_angle_gamma   90.00000000
_symmetry_Int_Tables_number   1
_chemical_formula_structural   Nd4Mg2ZnNi2Sn
_chemical_formula_sum   'Nd4 Mg2 Zn1 Ni2 Sn1'
_cell_volume   255.83017013
_cell_formula_units_Z   1
loop_
 _symmetry_equiv_pos_site_id
 _symmetry_equiv_pos_as_xyz
  1  'x, y, z'
loop_
 _atom_site_type_symbol
 _atom_site_label
 _atom_site_symmetry_multiplicity
 _atom_site_fract_x
 _atom_site_fract_y
 _atom_site_fract_z
 _atom_site_occupancy
  Nd  Nd0  1  0.50000003  0.31994200  0.81994200  1
  Nd  Nd1  1  0.50000003  0.81994200  0.68005800  1
  Nd  Nd2  1  0.50000003  0.18005800  0.31994200  1
  Nd  Nd3  1  0.50000003  0.68005800  0.18005800  1
  Mg  Mg4  1  0.00000000  0.00000000  0.00000000  1
  Mg  Mg5  1  -0.00000000  0.50000000  0.50000000  1
  Sn  Sn6  1  -0.00000000  0.38147900  0.11852100  1
  Zn  Zn7  1  -0.00000000  0.88147900  0.38147900  1
  Ni  Ni8  1  1.00000005  0.11852100  0.61852100  1
  Ni  Ni9  1  -0.00000000  0.61852100  0.88147900  1
