# generated using pymatgen
data_YMgB3(NO4)3
_symmetry_space_group_name_H-M   'P 1'
_cell_length_a   4.62087822
_cell_length_b   5.98673820
_cell_length_c   8.04288292
_cell_angle_alpha   90.00000000
_cell_angle_beta   92.75403595
_cell_angle_gamma   90.00000000
_symmetry_Int_Tables_number   1
_chemical_formula_structural   YMgB3(NO4)3
_chemical_formula_sum   'Y1 Mg1 B3 N3 O12'
_cell_volume   222.24123353
_cell_formula_units_Z   1
loop_
 _symmetry_equiv_pos_site_id
 _symmetry_equiv_pos_as_xyz
  1  'x, y, z'
loop_
 _atom_site_type_symbol
 _atom_site_label
 _atom_site_symmetry_multiplicity
 _atom_site_fract_x
 _atom_site_fract_y
 _atom_site_fract_z
 _atom_site_occupancy
  Mg  Mg0  1  0.00000000  0.49999998  0.49999997  1
  Y  Y1  1  0.49999998  0.00000000  0.00000001  1
  B  B2  1  0.00000000  0.49999998  0.00000000  1
  B  B3  1  0.49999998  0.00000000  0.49999998  1
  B  B4  1  0.00474500  0.86111197  0.74041196  1
  N  N5  1  0.49525498  0.36111199  0.75958797  1
  N  N6  1  0.50474498  0.63888798  0.24041200  1
  N  N7  1  0.99525495  0.13888800  0.25958801  1
  O  O8  1  0.22632399  0.55410998  0.23743499  1
  O  O9  1  0.13775299  0.81213697  0.89528595  1
  O  O10  1  0.14007699  0.81631997  0.59387697  1
  O  O11  1  0.35992298  0.31631999  0.90612296  1
  O  O12  1  0.36224698  0.31213699  0.60471398  1
  O  O13  1  0.27367599  0.05411000  0.26256499  1
  O  O14  1  0.72632397  0.94588997  0.73743498  1
  O  O15  1  0.63775297  0.68786298  0.39528599  1
  O  O16  1  0.64007697  0.68367998  0.09387701  1
  O  O17  1  0.85992296  0.18367999  0.40612300  1
  O  O18  1  0.86224696  0.18786299  0.10471402  1
  O  O19  1  0.77367596  0.44588998  0.76256498  1
