# generated using pymatgen
data_Li2NbMoO4
_symmetry_space_group_name_H-M   'P 1'
_cell_length_a   3.02807593
_cell_length_b   5.23724794
_cell_length_c   5.23724794
_cell_angle_alpha   109.49063110
_cell_angle_beta   90.00000000
_cell_angle_gamma   90.00000000
_symmetry_Int_Tables_number   1
_chemical_formula_structural   Li2NbMoO4
_chemical_formula_sum   'Li2 Nb1 Mo1 O4'
_cell_volume   78.29692827
_cell_formula_units_Z   1
loop_
 _symmetry_equiv_pos_site_id
 _symmetry_equiv_pos_as_xyz
  1  'x, y, z'
loop_
 _atom_site_type_symbol
 _atom_site_label
 _atom_site_symmetry_multiplicity
 _atom_site_fract_x
 _atom_site_fract_y
 _atom_site_fract_z
 _atom_site_occupancy
  Li  Li0  1  -0.00000000  0.49999998  0.49999998  1
  Li  Li1  1  0.50000001  0.49999998  -0.00000000  1
  Nb  Nb2  1  0.50000001  0.00000000  0.49999998  1
  Mo  Mo3  1  0.00000000  0.00000000  0.00000000  1
  O  O4  1  -0.00000000  0.74682297  0.25317699  1
  O  O5  1  0.50000001  0.74407397  0.74407397  1
  O  O6  1  0.50000001  0.25592599  0.25592599  1
  O  O7  1  -0.00000000  0.25317699  0.74682297  1
