# generated using pymatgen
data_Na2Be2B3N7
_symmetry_space_group_name_H-M   'P 1'
_cell_length_a   5.85174990
_cell_length_b   5.85174990
_cell_length_c   5.85174990
_cell_angle_alpha   60.00000000
_cell_angle_beta   60.00000000
_cell_angle_gamma   60.00000000
_symmetry_Int_Tables_number   1
_chemical_formula_structural   Na2Be2B3N7
_chemical_formula_sum   'Na2 Be2 B3 N7'
_cell_volume   141.69100172
_cell_formula_units_Z   1
loop_
 _symmetry_equiv_pos_site_id
 _symmetry_equiv_pos_as_xyz
  1  'x, y, z'
loop_
 _atom_site_type_symbol
 _atom_site_label
 _atom_site_symmetry_multiplicity
 _atom_site_fract_x
 _atom_site_fract_y
 _atom_site_fract_z
 _atom_site_occupancy
  Na  Na0  1  0.50000000  0.50000000  0.50000000  1
  Na  Na1  1  0.00000000  0.00000000  0.00000000  1
  Be  Be2  1  0.10008600  0.39991400  0.10008600  1
  Be  Be3  1  0.60008600  0.89991399  0.60008600  1
  B  B4  1  0.39991400  0.39991400  0.10008600  1
  B  B5  1  0.89991399  0.89991399  0.60008600  1
  B  B6  1  0.10008600  0.39991400  0.39991400  1
  N  N7  1  0.60008600  0.89991399  0.89991399  1
  N  N8  1  0.10008600  0.10008600  0.39991400  1
  N  N9  1  0.60008600  0.60008600  0.89991399  1
  N  N10  1  0.39991400  0.10008600  0.10008600  1
  N  N11  1  0.89991399  0.60008600  0.60008600  1
  N  N12  1  0.39991400  0.10008600  0.39991400  1
  N  N13  1  0.89991399  0.60008600  0.89991399  1
