# generated using pymatgen
data_Nd3Sn5
_symmetry_space_group_name_H-M   'P 1'
_cell_length_a   7.81503010
_cell_length_b   8.89678478
_cell_length_c   7.81503010
_cell_angle_alpha   116.05318451
_cell_angle_beta   90.00000000
_cell_angle_gamma   116.05318451
_symmetry_Int_Tables_number   1
_chemical_formula_structural   Nd3Sn5
_chemical_formula_sum   'Nd6 Sn10'
_cell_volume   425.84191917
_cell_formula_units_Z   2
loop_
 _symmetry_equiv_pos_site_id
 _symmetry_equiv_pos_as_xyz
  1  'x, y, z'
loop_
 _atom_site_type_symbol
 _atom_site_label
 _atom_site_symmetry_multiplicity
 _atom_site_fract_x
 _atom_site_fract_y
 _atom_site_fract_z
 _atom_site_occupancy
  Nd  Nd0  1  0.00000000  0.00000000  0.00000000  1
  Nd  Nd1  1  0.49999999  0.00000000  0.49999999  1
  Nd  Nd2  1  0.20709396  0.72674898  0.01965496  1
  Nd  Nd3  1  0.79290597  0.27325099  0.98034497  1
  Nd  Nd4  1  0.51965495  0.72674898  0.70709395  1
  Nd  Nd5  1  0.70709395  0.72674898  0.20709396  1
  Sn  Sn6  1  0.98034497  0.27325099  0.48034498  1
  Sn  Sn7  1  0.48034498  0.27325099  0.29290598  1
  Sn  Sn8  1  0.29290598  0.27325099  0.79290597  1
  Sn  Sn9  1  0.01965496  0.72674898  0.51965495  1
  Sn  Sn10  1  0.74999996  0.49999999  0.74999996  1
  Sn  Sn11  1  0.24999997  0.49999999  0.24999997  1
  Sn  Sn12  1  0.86166199  0.00000100  0.63833899  1
  Sn  Sn13  1  0.13833794  0.99999898  0.36166094  1
  Sn  Sn14  1  0.36166200  0.00000000  0.86166199  1
  Sn  Sn15  1  0.63833799  0.00000000  0.13833800  1
