# generated using pymatgen
data_Ba4Ca2BiSbO12
_symmetry_space_group_name_H-M   'P 1'
_cell_length_a   7.03601503
_cell_length_b   7.82108593
_cell_length_c   9.76927376
_cell_angle_alpha   90.00000000
_cell_angle_beta   91.92097473
_cell_angle_gamma   90.00000000
_symmetry_Int_Tables_number   1
_chemical_formula_structural   Ba4Ca2BiSbO12
_chemical_formula_sum   'Ba4 Ca2 Bi1 Sb1 O12'
_cell_volume   537.29396050
_cell_formula_units_Z   1
loop_
 _symmetry_equiv_pos_site_id
 _symmetry_equiv_pos_as_xyz
  1  'x, y, z'
loop_
 _atom_site_type_symbol
 _atom_site_label
 _atom_site_symmetry_multiplicity
 _atom_site_fract_x
 _atom_site_fract_y
 _atom_site_fract_z
 _atom_site_occupancy
  Ba  Ba0  1  0.53697200  0.11299100  0.25092403  1
  Ba  Ba1  1  0.96302800  0.61299101  0.24907604  1
  Ba  Ba2  1  0.46302800  0.88700901  0.74907605  1
  Ba  Ba3  1  0.03697200  0.38700900  0.75092404  1
  Ca  Ca4  1  0.06170400  0.10578300  0.43576402  1
  Ca  Ca5  1  0.43829600  0.60578301  0.06423601  1
  Bi  Bi6  1  0.93829600  0.89421701  0.56423605  1
  Sb  Sb7  1  0.56170400  0.39421700  0.93576406  1
  O  O8  1  0.61046400  0.50744200  0.73227605  1
  O  O9  1  0.88953600  0.00744200  0.76772406  1
  O  O10  1  0.38953600  0.49255800  0.26772402  1
  O  O11  1  0.11046400  0.99255801  0.23227601  1
  O  O12  1  0.82284200  0.30058200  0.04572102  1
  O  O13  1  0.67715800  0.80058201  0.45427904  1
  O  O14  1  0.17715800  0.69941801  0.95427905  1
  O  O15  1  0.32284200  0.19941800  0.54572103  1
  O  O16  1  0.33956300  0.19369300  0.94224305  1
  O  O17  1  0.16043700  0.69369301  0.55775703  1
  O  O18  1  0.66043700  0.80630701  0.05775702  1
  O  O19  1  0.83956300  0.30630700  0.44224304  1
