# generated using pymatgen
data_Mn3VSn2Mo3S11
_symmetry_space_group_name_H-M   'P 1'
_cell_length_a   8.55065346
_cell_length_b   8.55065346
_cell_length_c   8.55065346
_cell_angle_alpha   60.00000000
_cell_angle_beta   60.00000000
_cell_angle_gamma   60.00000000
_symmetry_Int_Tables_number   1
_chemical_formula_structural   Mn3VSn2Mo3S11
_chemical_formula_sum   'Mn3 V1 Sn2 Mo3 S11'
_cell_volume   442.06173010
_cell_formula_units_Z   1
loop_
 _symmetry_equiv_pos_site_id
 _symmetry_equiv_pos_as_xyz
  1  'x, y, z'
loop_
 _atom_site_type_symbol
 _atom_site_label
 _atom_site_symmetry_multiplicity
 _atom_site_fract_x
 _atom_site_fract_y
 _atom_site_fract_z
 _atom_site_occupancy
  V  V0  1  0.87418499  0.87418399  0.37744700  1
  Mn  Mn1  1  0.87418499  0.87418399  0.87418399  1
  Mn  Mn2  1  0.87418499  0.37744700  0.87418399  1
  Mn  Mn3  1  0.37744800  0.87418399  0.87418399  1
  Sn  Sn4  1  0.25163700  0.25163700  0.74836299  1
  Mo  Mo5  1  0.74836299  0.74836299  0.25163700  1
  Sn  Sn6  1  0.25163700  0.74836299  0.74836299  1
  Mo  Mo7  1  0.74836299  0.25163700  0.25163700  1
  Mo  Mo8  1  0.25163700  0.74836299  0.25163700  1
  S  S9  1  0.74836299  0.25163700  0.74836299  1
  S  S10  1  0.25000000  0.25000000  0.25000000  1
  S  S11  1  0.50000000  0.50000000  0.50000000  1
  S  S12  1  0.12744600  0.12744600  0.61766200  1
  S  S13  1  0.12744600  0.12744600  0.12744600  1
  S  S14  1  0.12744600  0.61766200  0.12744600  1
  S  S15  1  0.61766200  0.12744600  0.12744600  1
  S  S16  1  0.62999300  0.62999200  0.11002300  1
  S  S17  1  0.62999300  0.62999200  0.62999200  1
  S  S18  1  0.62999300  0.11002300  0.62999200  1
  S  S19  1  0.11002400  0.62999200  0.62999200  1
