# generated using pymatgen
data_TiNi3
_symmetry_space_group_name_H-M   'P 1'
_cell_length_a   4.84054804
_cell_length_b   7.25022554
_cell_length_c   7.25022554
_cell_angle_alpha   83.60189056
_cell_angle_beta   70.49916840
_cell_angle_gamma   70.49916840
_symmetry_Int_Tables_number   1
_chemical_formula_structural   TiNi3
_chemical_formula_sum   'Ti4 Ni12'
_cell_volume   226.09252676
_cell_formula_units_Z   4
loop_
 _symmetry_equiv_pos_site_id
 _symmetry_equiv_pos_as_xyz
  1  'x, y, z'
loop_
 _atom_site_type_symbol
 _atom_site_label
 _atom_site_symmetry_multiplicity
 _atom_site_fract_x
 _atom_site_fract_y
 _atom_site_fract_z
 _atom_site_occupancy
  Ti  Ti0  1  0.24999997  0.50000001  0.50000000  1
  Ti  Ti1  1  0.74999997  0.50000001  0.49999999  1
  Ti  Ti2  1  0.25000000  0.00000000  -0.00000001  1
  Ti  Ti3  1  0.75000000  0.00000000  0.99999999  1
  Ni  Ni4  1  0.83732996  0.82534102  0.49999999  1
  Ni  Ni5  1  0.16266999  0.17465900  0.50000000  1
  Ni  Ni6  1  0.66267097  0.50000001  0.17465799  1
  Ni  Ni7  1  0.33732897  0.50000001  0.82534200  1
  Ni  Ni8  1  0.92132899  0.30500401  0.85233899  1
  Ni  Ni9  1  0.07867096  0.69499602  0.14766100  1
  Ni  Ni10  1  0.22633295  0.85233902  0.69499500  1
  Ni  Ni11  1  0.57867199  0.14766100  0.69499499  1
  Ni  Ni12  1  0.77366699  0.14766100  0.30500498  1
  Ni  Ni13  1  0.42132795  0.85233902  0.30500499  1
  Ni  Ni14  1  0.27366798  0.30500401  0.14766100  1
  Ni  Ni15  1  0.72633196  0.69499602  0.85233899  1
