# generated using pymatgen
data_BaCaTi2(Ni2O3)2
_symmetry_space_group_name_H-M   'P 1'
_cell_length_a   3.74405789
_cell_length_b   3.85584593
_cell_length_c   13.90759850
_cell_angle_alpha   97.96821594
_cell_angle_beta   97.73576355
_cell_angle_gamma   90.00000000
_symmetry_Int_Tables_number   1
_chemical_formula_structural   BaCaTi2(Ni2O3)2
_chemical_formula_sum   'Ba1 Ca1 Ti2 Ni4 O6'
_cell_volume   196.99353299
_cell_formula_units_Z   1
loop_
 _symmetry_equiv_pos_site_id
 _symmetry_equiv_pos_as_xyz
  1  'x, y, z'
loop_
 _atom_site_type_symbol
 _atom_site_label
 _atom_site_symmetry_multiplicity
 _atom_site_fract_x
 _atom_site_fract_y
 _atom_site_fract_z
 _atom_site_occupancy
  Ca  Ca0  1  0.87519902  0.87519902  0.75039800  1
  Ba  Ba1  1  0.12556500  0.62556501  0.25113000  1
  Ti  Ti2  1  0.02019800  0.52019801  0.04039600  1
  Ti  Ti3  1  0.77204102  0.77204102  0.54408200  1
  Ni  Ni4  1  0.97747502  0.97747502  0.95494999  1
  Ni  Ni5  1  0.22864200  0.72864202  0.45728400  1
  Ni  Ni6  1  0.30372101  0.30372101  0.60744200  1
  Ni  Ni7  1  0.44712201  0.44712201  0.89424400  1
  O  O8  1  0.69655002  0.19655000  0.39309999  1
  O  O9  1  0.55463001  0.05463000  0.10925999  1
  O  O10  1  0.30699601  0.80699602  0.61399200  1
  O  O11  1  0.05665200  0.05665200  0.11330400  1
  O  O12  1  0.69301701  0.69301702  0.38603400  1
  O  O13  1  0.94219202  0.44219201  0.88438399  1
