# generated using pymatgen
data_Sr3Ca3PrZrO10
_symmetry_space_group_name_H-M   'P 1'
_cell_length_a   6.89020157
_cell_length_b   6.89020157
_cell_length_c   8.00181675
_cell_angle_alpha   90.00000000
_cell_angle_beta   90.00000000
_cell_angle_gamma   97.97963715
_symmetry_Int_Tables_number   1
_chemical_formula_structural   Sr3Ca3PrZrO10
_chemical_formula_sum   'Sr3 Ca3 Pr1 Zr1 O10'
_cell_volume   376.20701998
_cell_formula_units_Z   1
loop_
 _symmetry_equiv_pos_site_id
 _symmetry_equiv_pos_as_xyz
  1  'x, y, z'
loop_
 _atom_site_type_symbol
 _atom_site_label
 _atom_site_symmetry_multiplicity
 _atom_site_fract_x
 _atom_site_fract_y
 _atom_site_fract_z
 _atom_site_occupancy
  Ca  Ca0  1  0.15743998  0.84256002  0.50000002  1
  Sr  Sr1  1  0.15743998  0.84256002  -0.00000000  1
  Sr  Sr2  1  0.11520399  0.41760801  0.25000001  1
  Sr  Sr3  1  0.58239199  0.88479602  0.75000002  1
  Ca  Ca4  1  0.88479601  0.58239202  0.75000002  1
  Ca  Ca5  1  0.41760801  0.11520400  0.25000001  1
  Pr  Pr6  1  0.84256002  0.15744000  -0.00000000  1
  Zr  Zr7  1  0.84256002  0.15744000  0.50000002  1
  O  O8  1  0.64640900  0.64640902  0.25000001  1
  O  O9  1  0.35359100  0.35359101  0.75000002  1
  O  O10  1  0.24966799  0.69224102  0.75000002  1
  O  O11  1  0.30775899  0.75033202  0.25000001  1
  O  O12  1  0.79640900  0.79640902  0.99085003  1
  O  O13  1  0.20359100  0.20359101  0.49085002  1
  O  O14  1  0.79640900  0.79640902  0.50915002  1
  O  O15  1  0.20359100  0.20359101  0.00915000  1
  O  O16  1  0.75033201  0.30775901  0.25000001  1
  O  O17  1  0.69224101  0.24966801  0.75000002  1
