# generated using pymatgen
data_AcLaThMg
_symmetry_space_group_name_H-M   'P 1'
_cell_length_a   3.67522192
_cell_length_b   3.67522144
_cell_length_c   11.82573986
_cell_angle_alpha   90.00000000
_cell_angle_beta   90.00000000
_cell_angle_gamma   120.00000763
_symmetry_Int_Tables_number   1
_chemical_formula_structural   AcLaThMg
_chemical_formula_sum   'Ac1 La1 Th1 Mg1'
_cell_volume   138.33306496
_cell_formula_units_Z   1
loop_
 _symmetry_equiv_pos_site_id
 _symmetry_equiv_pos_as_xyz
  1  'x, y, z'
loop_
 _atom_site_type_symbol
 _atom_site_label
 _atom_site_symmetry_multiplicity
 _atom_site_fract_x
 _atom_site_fract_y
 _atom_site_fract_z
 _atom_site_occupancy
  Ac  Ac0  1  0.00000000  0.00000000  0.00000000  1
  Th  Th1  1  0.66666670  0.33333335  0.75000001  1
  La  La2  1  0.00000000  0.00000000  0.50000001  1
  Mg  Mg3  1  0.33333338  0.66666669  0.25000000  1
