# generated using pymatgen
data_Ce3Si3P5
_symmetry_space_group_name_H-M   'P 1'
_cell_length_a   4.16466379
_cell_length_b   6.57400799
_cell_length_c   7.81477976
_cell_angle_alpha   114.87334442
_cell_angle_beta   105.45376587
_cell_angle_gamma   90.00000000
_symmetry_Int_Tables_number   1
_chemical_formula_structural   Ce3Si3P5
_chemical_formula_sum   'Ce3 Si3 P5'
_cell_volume   185.54947424
_cell_formula_units_Z   1
loop_
 _symmetry_equiv_pos_site_id
 _symmetry_equiv_pos_as_xyz
  1  'x, y, z'
loop_
 _atom_site_type_symbol
 _atom_site_label
 _atom_site_symmetry_multiplicity
 _atom_site_fract_x
 _atom_site_fract_y
 _atom_site_fract_z
 _atom_site_occupancy
  Ce  Ce0  1  0.13218698  0.63218700  0.26437398  1
  Ce  Ce1  1  0.86781302  0.36781300  0.73562595  1
  Ce  Ce2  1  0.00000000  0.00000000  0.00000000  1
  Si  Si3  1  0.66949501  0.36116600  0.33899097  1
  Si  Si4  1  0.33050499  0.63883400  0.66100897  1
  Si  Si5  1  0.66949599  0.97782500  0.33899197  1
  P  P6  1  0.33050401  0.02217500  0.66100797  1
  P  P7  1  0.78184400  0.78184400  0.56368796  1
  P  P8  1  0.21815600  0.21815600  0.43631198  1
  P  P9  1  0.50000001  0.32195100  -0.00000002  1
  P  P10  1  0.49999999  0.67804900  -0.00000002  1
