# generated using pymatgen
data_LaCe(SiP)2
_symmetry_space_group_name_H-M   'P 1'
_cell_length_a   4.18165398
_cell_length_b   4.18165398
_cell_length_c   7.60797310
_cell_angle_alpha   105.95131683
_cell_angle_beta   105.95131683
_cell_angle_gamma   90.00000000
_symmetry_Int_Tables_number   1
_chemical_formula_structural   LaCe(SiP)2
_chemical_formula_sum   'La1 Ce1 Si2 P2'
_cell_volume   122.57602812
_cell_formula_units_Z   1
loop_
 _symmetry_equiv_pos_site_id
 _symmetry_equiv_pos_as_xyz
  1  'x, y, z'
loop_
 _atom_site_type_symbol
 _atom_site_label
 _atom_site_symmetry_multiplicity
 _atom_site_fract_x
 _atom_site_fract_y
 _atom_site_fract_z
 _atom_site_occupancy
  Ce  Ce0  1  0.75178199  0.75178200  0.50356397  1
  La  La1  1  0.50178200  0.00178200  0.00356399  1
  Si  Si2  1  0.33145100  0.33145100  0.66290198  1
  Si  Si3  1  0.08145099  0.58145100  0.16290199  1
  P  P4  1  0.91276699  0.41276700  0.82553397  1
  P  P5  1  0.16276700  0.16276700  0.32553399  1
