# generated using pymatgen
data_NaZn2
_symmetry_space_group_name_H-M   'P 1'
_cell_length_a   4.27208185
_cell_length_b   4.27208233
_cell_length_c   5.13248014
_cell_angle_alpha   90.00000000
_cell_angle_beta   90.00000000
_cell_angle_gamma   120.00000000
_symmetry_Int_Tables_number   1
_chemical_formula_structural   NaZn2
_chemical_formula_sum   'Na1 Zn2'
_cell_volume   81.12170841
_cell_formula_units_Z   1
loop_
 _symmetry_equiv_pos_site_id
 _symmetry_equiv_pos_as_xyz
  1  'x, y, z'
loop_
 _atom_site_type_symbol
 _atom_site_label
 _atom_site_symmetry_multiplicity
 _atom_site_fract_x
 _atom_site_fract_y
 _atom_site_fract_z
 _atom_site_occupancy
  Na  Na0  1  0.66666671  0.33333335  0.99999997  1
  Zn  Zn1  1  0.33333339  0.66666670  0.49999999  1
  Zn  Zn2  1  0.00000000  0.00000000  0.49999999  1
