# generated using pymatgen
data_LiMnSiGeP
_symmetry_space_group_name_H-M   'P 1'
_cell_length_a   4.05629396
_cell_length_b   4.05629396
_cell_length_c   5.67493439
_cell_angle_alpha   110.93980408
_cell_angle_beta   110.93980408
_cell_angle_gamma   90.00000000
_symmetry_Int_Tables_number   1
_chemical_formula_structural   LiMnSiGeP
_chemical_formula_sum   'Li1 Mn1 Si1 Ge1 P1'
_cell_volume   80.56870501
_cell_formula_units_Z   1
loop_
 _symmetry_equiv_pos_site_id
 _symmetry_equiv_pos_as_xyz
  1  'x, y, z'
loop_
 _atom_site_type_symbol
 _atom_site_label
 _atom_site_symmetry_multiplicity
 _atom_site_fract_x
 _atom_site_fract_y
 _atom_site_fract_z
 _atom_site_occupancy
  Li  Li0  1  0.00000000  0.00000000  0.00000000  1
  Mn  Mn1  1  0.25000005  0.75000003  0.50000008  1
  Si  Si2  1  0.75000004  0.25000001  0.50000007  1
  Ge  Ge3  1  0.62823606  0.62823603  0.25647208  1
  P  P4  1  0.37176403  0.37176402  0.74352806  1
