# generated using pymatgen
data_CeGa5
_symmetry_space_group_name_H-M   'P 1'
_cell_length_a   5.14705086
_cell_length_b   5.56650209
_cell_length_c   5.56650209
_cell_angle_alpha   120.00000000
_cell_angle_beta   90.00000000
_cell_angle_gamma   90.00000000
_symmetry_Int_Tables_number   1
_chemical_formula_structural   CeGa5
_chemical_formula_sum   'Ce1 Ga5'
_cell_volume   138.11913340
_cell_formula_units_Z   1
loop_
 _symmetry_equiv_pos_site_id
 _symmetry_equiv_pos_as_xyz
  1  'x, y, z'
loop_
 _atom_site_type_symbol
 _atom_site_label
 _atom_site_symmetry_multiplicity
 _atom_site_fract_x
 _atom_site_fract_y
 _atom_site_fract_z
 _atom_site_occupancy
  Ce  Ce0  1  -0.00000000  0.33333333  0.66666664  1
  Ga  Ga1  1  -0.00000000  0.66666665  0.33333331  1
  Ga  Ga2  1  0.50000001  0.99999998  0.32306097  1
  Ga  Ga3  1  0.50000001  0.32306099  -0.00000000  1
  Ga  Ga4  1  0.50000001  0.67693898  0.67693896  1
  Ga  Ga5  1  0.00000000  0.00000000  0.00000000  1
