# generated using pymatgen
data_Ca2LaCeMg3P4
_symmetry_space_group_name_H-M   'P 1'
_cell_length_a   4.21598577
_cell_length_b   7.53697014
_cell_length_c   8.44992828
_cell_angle_alpha   116.48594666
_cell_angle_beta   104.44607544
_cell_angle_gamma   90.00000000
_symmetry_Int_Tables_number   1
_chemical_formula_structural   Ca2LaCeMg3P4
_chemical_formula_sum   'Ca2 La1 Ce1 Mg3 P4'
_cell_volume   230.79829516
_cell_formula_units_Z   1
loop_
 _symmetry_equiv_pos_site_id
 _symmetry_equiv_pos_as_xyz
  1  'x, y, z'
loop_
 _atom_site_type_symbol
 _atom_site_label
 _atom_site_symmetry_multiplicity
 _atom_site_fract_x
 _atom_site_fract_y
 _atom_site_fract_z
 _atom_site_occupancy
  Ce  Ce0  1  -0.00000002  0.49999998  -0.00000002  1
  La  La1  1  0.13018100  0.13018100  0.26036200  1
  Ca  Ca2  1  0.86981901  0.86981897  0.73963799  1
  Ca  Ca3  1  0.32701999  0.51840698  0.65404000  1
  Mg  Mg4  1  0.32702001  0.13563299  0.65404002  1
  Mg  Mg5  1  0.67298000  0.86436697  0.34595997  1
  Mg  Mg6  1  0.67298001  0.48159298  0.34595999  1
  P  P7  1  0.21590598  0.71590597  0.43181199  1
  P  P8  1  0.78409403  0.28409399  0.56818800  1
  P  P9  1  0.50000002  0.19571799  -0.00000001  1
  P  P10  1  0.49999999  0.80428197  1.00000001  1
