# generated using pymatgen
data_Ce3AlSn2GeP3
_symmetry_space_group_name_H-M   'P 1'
_cell_length_a   3.40084100
_cell_length_b   7.52788782
_cell_length_c   7.52788782
_cell_angle_alpha   90.00000000
_cell_angle_beta   90.00000000
_cell_angle_gamma   90.00000000
_symmetry_Int_Tables_number   1
_chemical_formula_structural   Ce3AlSn2GeP3
_chemical_formula_sum   'Ce3 Al1 Sn2 Ge1 P3'
_cell_volume   192.72258174
_cell_formula_units_Z   1
loop_
 _symmetry_equiv_pos_site_id
 _symmetry_equiv_pos_as_xyz
  1  'x, y, z'
loop_
 _atom_site_type_symbol
 _atom_site_label
 _atom_site_symmetry_multiplicity
 _atom_site_fract_x
 _atom_site_fract_y
 _atom_site_fract_z
 _atom_site_occupancy
  Ce  Ce0  1  0.00000000  0.16823300  0.33176701  1
  Ce  Ce1  1  0.00000000  0.83176702  0.66823302  1
  Ce  Ce2  1  0.00000000  0.66823302  0.16823300  1
  Al  Al3  1  1.00000000  0.33176701  0.83176702  1
  Sn  Sn4  1  0.50000000  0.00000000  0.00000000  1
  Sn  Sn5  1  0.50000000  0.50000001  0.50000001  1
  P  P6  1  0.50000000  0.37028001  0.12972000  1
  Ge  Ge7  1  0.50000000  0.62972001  0.87028002  1
  P  P8  1  0.50000000  0.87028002  0.37028001  1
  P  P9  1  0.50000000  0.12972000  0.62972001  1
