# generated using pymatgen
data_ErTmAlCo3
_symmetry_space_group_name_H-M   'P 1'
_cell_length_a   5.24153280
_cell_length_b   5.24153280
_cell_length_c   5.24153328
_cell_angle_alpha   60.66611099
_cell_angle_beta   60.66611099
_cell_angle_gamma   60.66609573
_symmetry_Int_Tables_number   1
_chemical_formula_structural   ErTmAlCo3
_chemical_formula_sum   'Er1 Tm1 Al1 Co3'
_cell_volume   103.35751351
_cell_formula_units_Z   1
loop_
 _symmetry_equiv_pos_site_id
 _symmetry_equiv_pos_as_xyz
  1  'x, y, z'
loop_
 _atom_site_type_symbol
 _atom_site_label
 _atom_site_symmetry_multiplicity
 _atom_site_fract_x
 _atom_site_fract_y
 _atom_site_fract_z
 _atom_site_occupancy
  Tm  Tm0  1  0.37107598  0.37107600  0.37107601  1
  Er  Er1  1  0.62892397  0.62892400  0.62892401  1
  Al  Al2  1  0.50000000  0.00000000  0.00000001  1
  Co  Co3  1  -0.00000002  0.50000000  0.00000002  1
  Co  Co4  1  0.00000000  0.00000000  0.49999998  1
  Co  Co5  1  0.00000000  0.00000000  0.00000000  1
