# generated using pymatgen
data_Li3Mn2O7
_symmetry_space_group_name_H-M   'P 1'
_cell_length_a   5.16582012
_cell_length_b   5.35982704
_cell_length_c   6.64131069
_cell_angle_alpha   112.19134521
_cell_angle_beta   111.23076630
_cell_angle_gamma   93.80677032
_symmetry_Int_Tables_number   1
_chemical_formula_structural   Li3Mn2O7
_chemical_formula_sum   'Li3 Mn2 O7'
_cell_volume   154.24763238
_cell_formula_units_Z   1
loop_
 _symmetry_equiv_pos_site_id
 _symmetry_equiv_pos_as_xyz
  1  'x, y, z'
loop_
 _atom_site_type_symbol
 _atom_site_label
 _atom_site_symmetry_multiplicity
 _atom_site_fract_x
 _atom_site_fract_y
 _atom_site_fract_z
 _atom_site_occupancy
  Li  Li0  1  0.12203298  0.87203298  0.74406593  1
  Li  Li1  1  0.87796701  0.12796700  0.25593395  1
  Mn  Mn2  1  0.64127400  0.39127399  0.78254794  1
  Mn  Mn3  1  0.35872599  0.60872599  0.21745194  1
  Li  Li4  1  0.71048699  0.86985298  0.42028991  1
  O  O5  1  0.20980299  0.55043699  0.42028995  1
  O  O6  1  0.28951300  0.13014700  0.57970997  1
  O  O7  1  0.79019700  0.44956299  0.57970993  1
  O  O8  1  0.48358200  0.28303199  0.06548596  1
  O  O9  1  0.08190398  0.78245398  0.06548595  1
  O  O10  1  0.51641799  0.71696798  0.93451392  1
  O  O11  1  0.91809600  0.21754600  0.93451394  1
