# generated using pymatgen
data_LiVGe2Ru
_symmetry_space_group_name_H-M   'P 1'
_cell_length_a   3.95259404
_cell_length_b   3.95259404
_cell_length_c   5.51748514
_cell_angle_alpha   110.98896027
_cell_angle_beta   110.98896027
_cell_angle_gamma   90.00000000
_symmetry_Int_Tables_number   1
_chemical_formula_structural   LiVGe2Ru
_chemical_formula_sum   'Li1 V1 Ge2 Ru1'
_cell_volume   74.32204331
_cell_formula_units_Z   1
loop_
 _symmetry_equiv_pos_site_id
 _symmetry_equiv_pos_as_xyz
  1  'x, y, z'
loop_
 _atom_site_type_symbol
 _atom_site_label
 _atom_site_symmetry_multiplicity
 _atom_site_fract_x
 _atom_site_fract_y
 _atom_site_fract_z
 _atom_site_occupancy
  Li  Li0  1  0.00000000  0.00000000  0.00000000  1
  V  V1  1  0.62582704  0.62582701  0.25165406  1
  Ge  Ge2  1  0.37417302  0.37417301  0.74834603  1
  Ge  Ge3  1  0.25000004  0.75000001  0.50000005  1
  Ru  Ru4  1  0.75000002  0.25000000  0.50000004  1
