# generated using pymatgen
data_Li3FeO5
_symmetry_space_group_name_H-M   'P 1'
_cell_length_a   4.72889090
_cell_length_b   4.72889090
_cell_length_c   9.38538265
_cell_angle_alpha   90.00000000
_cell_angle_beta   90.00000000
_cell_angle_gamma   90.00000000
_symmetry_Int_Tables_number   1
_chemical_formula_structural   Li3FeO5
_chemical_formula_sum   'Li6 Fe2 O10'
_cell_volume   209.87976648
_cell_formula_units_Z   2
loop_
 _symmetry_equiv_pos_site_id
 _symmetry_equiv_pos_as_xyz
  1  'x, y, z'
loop_
 _atom_site_type_symbol
 _atom_site_label
 _atom_site_symmetry_multiplicity
 _atom_site_fract_x
 _atom_site_fract_y
 _atom_site_fract_z
 _atom_site_occupancy
  Li  Li0  1  0.00000000  0.00000000  0.00000000  1
  Li  Li1  1  0.50000001  0.50000001  0.50000002  1
  Li  Li2  1  0.50000001  0.50000001  0.83233803  1
  Li  Li3  1  0.00000000  0.00000000  0.33233801  1
  Li  Li4  1  0.50000001  0.50000001  0.16766201  1
  Li  Li5  1  0.00000000  0.00000000  0.66766202  1
  Fe  Fe6  1  0.69759902  0.69759902  0.67142902  1
  Fe  Fe7  1  0.30240101  0.30240101  0.67142902  1
  O  O8  1  0.69759902  0.69759902  0.32857101  1
  O  O9  1  0.19759900  0.80240102  0.17142901  1
  O  O10  1  0.80240102  0.19759900  0.17142901  1
  O  O11  1  0.80240102  0.19759900  0.82857103  1
  O  O12  1  0.31018001  0.31018001  0.00000000  1
  O  O13  1  0.18982000  0.81018002  0.50000002  1
  O  O14  1  0.81018002  0.18982000  0.50000002  1
  O  O15  1  0.68982002  0.68982002  0.00000000  1
  O  O16  1  0.30240101  0.30240101  0.32857101  1
  O  O17  1  0.19759900  0.80240102  0.82857103  1
