# generated using pymatgen
data_Al2Fe13Ge
_symmetry_space_group_name_H-M   'P 1'
_cell_length_a   4.92343998
_cell_length_b   4.92456198
_cell_length_c   9.85498047
_cell_angle_alpha   90.00000000
_cell_angle_beta   90.00000000
_cell_angle_gamma   90.00000000
_symmetry_Int_Tables_number   1
_chemical_formula_structural   Al2Fe13Ge
_chemical_formula_sum   'Al2 Fe13 Ge1'
_cell_volume   238.94174079
_cell_formula_units_Z   1
loop_
 _symmetry_equiv_pos_site_id
 _symmetry_equiv_pos_as_xyz
  1  'x, y, z'
loop_
 _atom_site_type_symbol
 _atom_site_label
 _atom_site_symmetry_multiplicity
 _atom_site_fract_x
 _atom_site_fract_y
 _atom_site_fract_z
 _atom_site_occupancy
  Fe  Fe0  1  0.50000000  0.50000000  0.24999999  1
  Al  Al1  1  0.00000000  0.00000000  0.99998695  1
  Fe  Fe2  1  0.00000000  0.00000000  0.50001298  1
  Al  Al3  1  0.50000000  0.50000000  0.74999996  1
  Fe  Fe4  1  0.50000000  0.00000000  0.62462197  1
  Fe  Fe5  1  0.50000000  0.00000000  0.12555899  1
  Fe  Fe6  1  0.75028000  0.50000000  0.99948595  1
  Fe  Fe7  1  0.75028000  0.50000000  0.50051398  1
  Fe  Fe8  1  0.00000000  0.24983700  0.74999996  1
  Fe  Fe9  1  0.00000000  0.25074900  0.24999999  1
  Fe  Fe10  1  0.50000000  0.00000000  0.87537796  1
  Fe  Fe11  1  0.50000000  0.00000000  0.37444098  1
  Fe  Fe12  1  0.24972000  0.50000000  0.99948595  1
  Fe  Fe13  1  0.24972000  0.50000000  0.50051398  1
  Ge  Ge14  1  0.00000000  0.75016300  0.74999996  1
  Fe  Fe15  1  0.00000000  0.74925100  0.24999999  1
