# generated using pymatgen
data_Li3Mn5O4
_symmetry_space_group_name_H-M   'P 1'
_cell_length_a   4.75632191
_cell_length_b   5.23726511
_cell_length_c   6.11103392
_cell_angle_alpha   90.00000000
_cell_angle_beta   90.00000000
_cell_angle_gamma   90.00000000
_symmetry_Int_Tables_number   1
_chemical_formula_structural   Li3Mn5O4
_chemical_formula_sum   'Li3 Mn5 O4'
_cell_volume   152.22658070
_cell_formula_units_Z   1
loop_
 _symmetry_equiv_pos_site_id
 _symmetry_equiv_pos_as_xyz
  1  'x, y, z'
loop_
 _atom_site_type_symbol
 _atom_site_label
 _atom_site_symmetry_multiplicity
 _atom_site_fract_x
 _atom_site_fract_y
 _atom_site_fract_z
 _atom_site_occupancy
  Li  Li0  1  0.24480500  0.08118700  0.87642001  1
  Li  Li1  1  0.74480501  0.91881298  0.62358001  1
  Mn  Mn2  1  0.25519500  0.58118699  0.62358001  1
  Li  Li3  1  0.75519501  0.41881299  0.87642001  1
  Mn  Mn4  1  0.24480500  0.58118699  0.12358000  1
  Mn  Mn5  1  0.74480501  0.41881299  0.37642001  1
  Mn  Mn6  1  0.25519500  0.08118700  0.37642001  1
  Mn  Mn7  1  0.75519501  0.91881298  0.12358000  1
  O  O8  1  0.50000001  0.74999998  0.87825001  1
  O  O9  1  -0.00000000  0.24999999  0.62175001  1
  O  O10  1  0.50000001  0.24999999  0.12175000  1
  O  O11  1  0.00000000  0.74999998  0.37825001  1
