# generated using pymatgen
data_Li4TiO5
_symmetry_space_group_name_H-M   'P 1'
_cell_length_a   5.86052752
_cell_length_b   5.86052752
_cell_length_c   6.56652975
_cell_angle_alpha   63.49715424
_cell_angle_beta   63.49715424
_cell_angle_gamma   60.00000381
_symmetry_Int_Tables_number   1
_chemical_formula_structural   Li4TiO5
_chemical_formula_sum   'Li4 Ti1 O5'
_cell_volume   167.39136826
_cell_formula_units_Z   1
loop_
 _symmetry_equiv_pos_site_id
 _symmetry_equiv_pos_as_xyz
  1  'x, y, z'
loop_
 _atom_site_type_symbol
 _atom_site_label
 _atom_site_symmetry_multiplicity
 _atom_site_fract_x
 _atom_site_fract_y
 _atom_site_fract_z
 _atom_site_occupancy
  Li  Li0  1  0.49999999  0.50000001  0.50000001  1
  Li  Li1  1  0.16940200  0.16940200  0.49179401  1
  Li  Li2  1  0.83059799  0.83059801  0.50820601  1
  Li  Li3  1  0.00000000  0.00000000  0.00000000  1
  O  O4  1  0.24896899  0.59277301  0.24058200  1
  Ti  Ti5  1  0.59277299  0.91767602  0.24058200  1
  O  O6  1  0.91767600  0.24896900  0.24058200  1
  O  O7  1  0.08232398  0.75103101  0.75941802  1
  O  O8  1  0.40722700  0.08232400  0.75941802  1
  O  O9  1  0.75103100  0.40722701  0.75941802  1
