# generated using pymatgen
data_TiNi3
_symmetry_space_group_name_H-M   'P 1'
_cell_length_a   4.79842186
_cell_length_b   4.79842186
_cell_length_c   7.50276518
_cell_angle_alpha   90.00000000
_cell_angle_beta   90.00000000
_cell_angle_gamma   120.00000000
_symmetry_Int_Tables_number   1
_chemical_formula_structural   TiNi3
_chemical_formula_sum   'Ti3 Ni9'
_cell_volume   149.60594082
_cell_formula_units_Z   3
loop_
 _symmetry_equiv_pos_site_id
 _symmetry_equiv_pos_as_xyz
  1  'x, y, z'
loop_
 _atom_site_type_symbol
 _atom_site_label
 _atom_site_symmetry_multiplicity
 _atom_site_fract_x
 _atom_site_fract_y
 _atom_site_fract_z
 _atom_site_occupancy
  Ti  Ti0  1  0.66666667  0.33333332  0.44148299  1
  Ti  Ti1  1  0.33333332  0.66666663  0.55851699  1
  Ti  Ti2  1  0.33333332  0.66666663  0.94148298  1
  Ni  Ni3  1  0.66666667  0.33333332  0.05851700  1
  Ni  Ni4  1  0.00000000  0.00000000  0.00000000  1
  Ni  Ni5  1  0.00000000  0.00000000  0.49999999  1
  Ni  Ni6  1  0.83012802  0.16987099  0.74999998  1
  Ni  Ni7  1  0.16987197  0.83012895  0.24999999  1
  Ni  Ni8  1  0.33974300  0.16987099  0.74999998  1
  Ni  Ni9  1  0.66025698  0.83012895  0.24999999  1
  Ni  Ni10  1  0.83012800  0.66025596  0.74999998  1
  Ni  Ni11  1  0.16987199  0.33974398  0.24999999  1
