# generated using pymatgen
data_Li5VO6
_symmetry_space_group_name_H-M   'P 1'
_cell_length_a   2.93149996
_cell_length_b   6.10248137
_cell_length_c   6.79469395
_cell_angle_alpha   106.59680176
_cell_angle_beta   102.45775604
_cell_angle_gamma   90.00000000
_symmetry_Int_Tables_number   1
_chemical_formula_structural   Li5VO6
_chemical_formula_sum   'Li5 V1 O6'
_cell_volume   113.49952458
_cell_formula_units_Z   1
loop_
 _symmetry_equiv_pos_site_id
 _symmetry_equiv_pos_as_xyz
  1  'x, y, z'
loop_
 _atom_site_type_symbol
 _atom_site_label
 _atom_site_symmetry_multiplicity
 _atom_site_fract_x
 _atom_site_fract_y
 _atom_site_fract_z
 _atom_site_occupancy
  Li  Li0  1  0.49999999  0.49999999  0.00000001  1
  Li  Li1  1  0.83150100  0.17575100  0.66300199  1
  Li  Li2  1  0.16849899  0.82424899  0.33699804  1
  Li  Li3  1  0.84151899  0.68168499  0.68303801  1
  Li  Li4  1  0.15848100  0.31831500  0.31696201  1
  V  V5  1  0.50000000  0.00000000  -0.00000001  1
  O  O6  1  0.32849599  0.90600499  0.65699204  1
  O  O7  1  0.67493599  0.56267699  0.34987201  1
  O  O8  1  0.67150400  0.09399500  0.34300799  1
  O  O9  1  0.99907400  0.26416400  0.99814799  1
  O  O10  1  0.00092599  0.73583599  0.00185204  1
  O  O11  1  0.32506399  0.43732300  0.65012802  1
