# generated using pymatgen
data_Nd3Sn5
_symmetry_space_group_name_H-M   'P 1'
_cell_length_a   7.71259594
_cell_length_b   8.72545242
_cell_length_c   7.71259594
_cell_angle_alpha   116.22898102
_cell_angle_beta   90.00000000
_cell_angle_gamma   116.22898102
_symmetry_Int_Tables_number   1
_chemical_formula_structural   Nd3Sn5
_chemical_formula_sum   'Nd6 Sn10'
_cell_volume   405.15401894
_cell_formula_units_Z   2
loop_
 _symmetry_equiv_pos_site_id
 _symmetry_equiv_pos_as_xyz
  1  'x, y, z'
loop_
 _atom_site_type_symbol
 _atom_site_label
 _atom_site_symmetry_multiplicity
 _atom_site_fract_x
 _atom_site_fract_y
 _atom_site_fract_z
 _atom_site_occupancy
  Nd  Nd0  1  0.00000000  0.00000000  0.00000000  1
  Nd  Nd1  1  0.50000000  0.00000000  0.50000000  1
  Nd  Nd2  1  0.21016297  0.73288198  0.02271897  1
  Nd  Nd3  1  0.78983700  0.26711799  0.97728100  1
  Nd  Nd4  1  0.52271898  0.73288198  0.71016298  1
  Nd  Nd5  1  0.71016298  0.73288198  0.21016297  1
  Sn  Sn6  1  0.97728100  0.26711799  0.47728099  1
  Sn  Sn7  1  0.47728099  0.26711799  0.28983699  1
  Sn  Sn8  1  0.28983699  0.26711799  0.78983700  1
  Sn  Sn9  1  0.02271897  0.73288198  0.52271898  1
  Sn  Sn10  1  0.86692801  0.00000000  0.63307201  1
  Sn  Sn11  1  0.13307200  0.00000000  0.36692800  1
  Sn  Sn12  1  0.36692800  0.00000000  0.86692801  1
  Sn  Sn13  1  0.63307201  0.00000000  0.13307200  1
  Sn  Sn14  1  0.74999999  0.49999998  0.74999999  1
  Sn  Sn15  1  0.24999998  0.49999998  0.24999998  1
