# generated using pymatgen
data_Li4FeO4
_symmetry_space_group_name_H-M   'P 1'
_cell_length_a   6.02973175
_cell_length_b   6.02963209
_cell_length_c   7.07761621
_cell_angle_alpha   72.05821228
_cell_angle_beta   72.80603027
_cell_angle_gamma   88.16692352
_symmetry_Int_Tables_number   1
_chemical_formula_structural   Li4FeO4
_chemical_formula_sum   'Li8 Fe2 O8'
_cell_volume   233.37266865
_cell_formula_units_Z   2
loop_
 _symmetry_equiv_pos_site_id
 _symmetry_equiv_pos_as_xyz
  1  'x, y, z'
loop_
 _atom_site_type_symbol
 _atom_site_label
 _atom_site_symmetry_multiplicity
 _atom_site_fract_x
 _atom_site_fract_y
 _atom_site_fract_z
 _atom_site_occupancy
  Li  Li0  1  0.98659402  0.51241499  0.75010300  1
  Li  Li1  1  0.01340603  0.48758499  0.24989701  1
  Li  Li2  1  0.13120400  0.04900700  0.09095200  1
  Li  Li3  1  0.86879605  0.95099297  0.90904802  1
  Li  Li4  1  0.46157103  0.68488498  0.84296501  1
  Li  Li5  1  0.16433300  0.06493500  0.55428800  1
  Li  Li6  1  0.83566704  0.93506498  0.44571202  1
  Li  Li7  1  0.53842901  0.31511499  0.15703500  1
  Fe  Fe8  1  0.50768204  0.75496498  0.29786301  1
  Fe  Fe9  1  0.49231801  0.24503499  0.70213700  1
  O  O10  1  0.35911202  0.36362499  0.43650501  1
  O  O11  1  0.17442305  0.88216298  0.36449002  1
  O  O12  1  0.82557700  0.11783700  0.63550999  1
  O  O13  1  0.67174903  0.65410498  0.03154401  1
  O  O14  1  0.32825102  0.34589499  0.96845601  1
  O  O15  1  0.76683100  0.05870700  0.16925899  1
  O  O16  1  0.23316905  0.94129297  0.83074102  1
  O  O17  1  0.64088803  0.63637498  0.56349501  1
