# generated using pymatgen
data_Li5MgMnSbO6
_symmetry_space_group_name_H-M   'P 1'
_cell_length_a   7.18947411
_cell_length_b   7.18947411
_cell_length_c   7.18947506
_cell_angle_alpha   61.15071487
_cell_angle_beta   61.15071487
_cell_angle_gamma   61.15071106
_symmetry_Int_Tables_number   1
_chemical_formula_structural   Li5MgMnSbO6
_chemical_formula_sum   'Li5 Mg1 Mn1 Sb1 O6'
_cell_volume   269.57433691
_cell_formula_units_Z   1
loop_
 _symmetry_equiv_pos_site_id
 _symmetry_equiv_pos_as_xyz
  1  'x, y, z'
loop_
 _atom_site_type_symbol
 _atom_site_label
 _atom_site_symmetry_multiplicity
 _atom_site_fract_x
 _atom_site_fract_y
 _atom_site_fract_z
 _atom_site_occupancy
  Li  Li0  1  0.49999999  0.00000000  0.50000001  1
  Li  Li1  1  0.49999998  0.50000000  0.00000001  1
  Li  Li2  1  -0.00000001  0.50000000  0.50000001  1
  Li  Li3  1  0.49999998  0.50000000  0.50000002  1
  Li  Li4  1  0.87871596  0.87871599  0.87871603  1
  Mn  Mn5  1  0.12128399  0.12128400  0.12128400  1
  O  O6  1  0.25094199  0.25094200  0.25094201  1
  Mg  Mg7  1  0.26522898  0.73684500  0.26522902  1
  O  O8  1  0.26522899  0.26522900  0.73684501  1
  O  O9  1  0.73684498  0.26522900  0.26522901  1
  O  O10  1  0.74905797  0.74905800  0.74905803  1
  Sb  Sb11  1  0.73477098  0.26315500  0.73477102  1
  O  O12  1  0.73477097  0.73477100  0.26315502  1
  O  O13  1  0.26315498  0.73477100  0.73477102  1
