# generated using pymatgen
data_Nd2SnRu2
_symmetry_space_group_name_H-M   'P 1'
_cell_length_a   8.49099636
_cell_length_b   8.49099636
_cell_length_c   8.49099636
_cell_angle_alpha   109.47122192
_cell_angle_beta   109.47122192
_cell_angle_gamma   109.47122192
_symmetry_Int_Tables_number   1
_chemical_formula_structural   Nd2SnRu2
_chemical_formula_sum   'Nd8 Sn4 Ru8'
_cell_volume   471.25291840
_cell_formula_units_Z   4
loop_
 _symmetry_equiv_pos_site_id
 _symmetry_equiv_pos_as_xyz
  1  'x, y, z'
loop_
 _atom_site_type_symbol
 _atom_site_label
 _atom_site_symmetry_multiplicity
 _atom_site_fract_x
 _atom_site_fract_y
 _atom_site_fract_z
 _atom_site_occupancy
  Nd  Nd0  1  0.25000004  0.62500002  0.87500003  1
  Nd  Nd1  1  0.75000006  0.87500003  0.62500006  1
  Nd  Nd2  1  0.37500001  0.12500000  0.75000001  1
  Nd  Nd3  1  0.12500002  0.37500001  0.25000002  1
  Nd  Nd4  1  0.62500002  0.25000001  0.37500003  1
  Nd  Nd5  1  0.87500005  0.75000002  0.12500006  1
  Nd  Nd6  1  0.17679300  0.00000000  0.00000000  1
  Nd  Nd7  1  0.50000003  0.50000002  0.17679304  1
  Sn  Sn8  1  0.00000004  0.67679302  0.50000003  1
  Sn  Sn9  1  0.67679306  1.00000003  0.00000007  1
  Ru  Ru10  1  0.32320705  0.82320703  0.32320705  1
  Sn  Sn11  1  0.50000003  0.50000002  0.67679303  1
  Sn  Sn12  1  0.82320702  0.32320701  0.82320703  1
  Ru  Ru13  1  1.00000001  0.17679301  0.50000003  1
  Ru  Ru14  1  0.25000001  0.12500000  0.37500001  1
  Ru  Ru15  1  0.75000002  0.37500001  0.12500004  1
  Ru  Ru16  1  0.87500004  0.62500002  0.75000005  1
  Ru  Ru17  1  0.62500006  0.87500003  0.25000006  1
  Ru  Ru18  1  0.12500002  0.25000001  0.87500001  1
  Ru  Ru19  1  0.37500005  0.75000002  0.62500005  1
