# generated using pymatgen
data_Ba5SrH2O7
_symmetry_space_group_name_H-M   'P 1'
_cell_length_a   5.40073776
_cell_length_b   7.08841562
_cell_length_c   10.05892181
_cell_angle_alpha   98.01379395
_cell_angle_beta   97.73385620
_cell_angle_gamma   112.00001526
_symmetry_Int_Tables_number   1
_chemical_formula_structural   Ba5SrH2O7
_chemical_formula_sum   'Ba5 Sr1 H2 O7'
_cell_volume   346.16076535
_cell_formula_units_Z   1
loop_
 _symmetry_equiv_pos_site_id
 _symmetry_equiv_pos_as_xyz
  1  'x, y, z'
loop_
 _atom_site_type_symbol
 _atom_site_label
 _atom_site_symmetry_multiplicity
 _atom_site_fract_x
 _atom_site_fract_y
 _atom_site_fract_z
 _atom_site_occupancy
  Ba  Ba0  1  0.82535803  0.20203501  0.95236000  1
  Ba  Ba1  1  0.87640603  0.06377800  0.32587999  1
  Sr  Sr2  1  0.12359401  0.93622203  0.67412003  1
  Ba  Ba3  1  0.59052503  0.46846502  0.31535700  1
  Ba  Ba4  1  0.17464202  0.79796503  0.04764002  1
  Ba  Ba5  1  0.40947502  0.53153502  0.68464301  1
  H  H6  1  0.77152903  0.22944701  0.64227500  1
  H  H7  1  0.22847102  0.77055303  0.35772502  1
  O  O8  1  0.50000002  0.50000002  0.00000000  1
  O  O9  1  0.59785703  0.24730201  0.70602500  1
  O  O10  1  0.71300703  0.50423502  0.06730200  1
  O  O11  1  0.40214302  0.75269803  0.29397502  1
  O  O12  1  0.28699302  0.49576502  0.93269802  1
  O  O13  1  0.95386404  0.21170401  0.58492099  1
  O  O14  1  0.04613601  0.78829603  0.41507903  1
