# generated using pymatgen
data_CaMg3Sn16
_symmetry_space_group_name_H-M   'P 1'
_cell_length_a   6.08034801
_cell_length_b   6.08034801
_cell_length_c   12.49603748
_cell_angle_alpha   75.91913605
_cell_angle_beta   75.91913605
_cell_angle_gamma   60.00000000
_symmetry_Int_Tables_number   1
_chemical_formula_structural   CaMg3Sn16
_chemical_formula_sum   'Ca1 Mg3 Sn16'
_cell_volume   383.97975737
_cell_formula_units_Z   1
loop_
 _symmetry_equiv_pos_site_id
 _symmetry_equiv_pos_as_xyz
  1  'x, y, z'
loop_
 _atom_site_type_symbol
 _atom_site_label
 _atom_site_symmetry_multiplicity
 _atom_site_fract_x
 _atom_site_fract_y
 _atom_site_fract_z
 _atom_site_occupancy
  Ca  Ca0  1  0.59993995  0.59993999  0.20018002  1
  Mg  Mg1  1  0.40005997  0.40005999  0.79982003  1
  Mg  Mg2  1  0.86901393  0.86901399  0.39295803  1
  Mg  Mg3  1  0.13098599  0.13098600  0.60704201  1
  Sn  Sn4  1  0.00000000  0.00000000  0.00000000  1
  Sn  Sn5  1  0.11741397  0.56648499  0.19868701  1
  Sn  Sn6  1  0.56648498  0.11741400  0.19868701  1
  Sn  Sn7  1  0.11741399  0.11741400  0.19868701  1
  Sn  Sn8  1  0.88258595  0.43351499  0.80131303  1
  Sn  Sn9  1  0.43351495  0.88258599  0.80131303  1
  Sn  Sn10  1  0.49999996  0.49999999  0.00000002  1
  Sn  Sn11  1  -0.00000002  0.49999999  0.00000001  1
  Sn  Sn12  1  0.49999998  0.00000000  0.00000001  1
  Sn  Sn13  1  0.63522795  0.63522799  0.59862403  1
  Sn  Sn14  1  0.13091997  0.63522799  0.59862402  1
  Sn  Sn15  1  0.63522797  0.13092000  0.59862402  1
  Sn  Sn16  1  0.36477197  0.36477199  0.40137602  1
  Sn  Sn17  1  0.86907995  0.36477199  0.40137603  1
  Sn  Sn18  1  0.36477195  0.86907999  0.40137603  1
  Sn  Sn19  1  0.88258593  0.88258599  0.80131304  1
