# generated using pymatgen
data_Ce2AlSi9
_symmetry_space_group_name_H-M   'P 1'
_cell_length_a   3.99184704
_cell_length_b   5.33534288
_cell_length_c   9.02892494
_cell_angle_alpha   90.00000000
_cell_angle_beta   90.00000000
_cell_angle_gamma   90.00000000
_symmetry_Int_Tables_number   1
_chemical_formula_structural   Ce2AlSi9
_chemical_formula_sum   'Ce2 Al1 Si9'
_cell_volume   192.29689394
_cell_formula_units_Z   1
loop_
 _symmetry_equiv_pos_site_id
 _symmetry_equiv_pos_as_xyz
  1  'x, y, z'
loop_
 _atom_site_type_symbol
 _atom_site_label
 _atom_site_symmetry_multiplicity
 _atom_site_fract_x
 _atom_site_fract_y
 _atom_site_fract_z
 _atom_site_occupancy
  Ce  Ce0  1  0.00000000  0.50000001  0.00000000  1
  Ce  Ce1  1  0.00000000  0.00000000  0.50000000  1
  Al  Al2  1  0.50000000  0.00000000  0.00000000  1
  Si  Si3  1  0.50000000  0.74662102  0.25635500  1
  Si  Si4  1  0.50000000  0.25337901  0.74364500  1
  Si  Si5  1  0.50000000  0.25337901  0.25635500  1
  Si  Si6  1  0.50000000  0.74662102  0.74364500  1
  Si  Si7  1  0.00000000  0.50000001  0.34018200  1
  Si  Si8  1  0.00000000  0.00000000  0.83356501  1
  Si  Si9  1  0.00000000  0.00000000  0.16643500  1
  Si  Si10  1  0.00000000  0.50000001  0.65981800  1
  Si  Si11  1  0.50000000  0.50000001  0.50000000  1
