# generated using pymatgen
data_Ca3(MnC3)2
_symmetry_space_group_name_H-M   'P 1'
_cell_length_a   3.87841392
_cell_length_b   3.87841392
_cell_length_c   10.33212090
_cell_angle_alpha   100.81784058
_cell_angle_beta   100.81784058
_cell_angle_gamma   90.00000000
_symmetry_Int_Tables_number   1
_chemical_formula_structural   Ca3(MnC3)2
_chemical_formula_sum   'Ca3 Mn2 C6'
_cell_volume   149.84197254
_cell_formula_units_Z   1
loop_
 _symmetry_equiv_pos_site_id
 _symmetry_equiv_pos_as_xyz
  1  'x, y, z'
loop_
 _atom_site_type_symbol
 _atom_site_label
 _atom_site_symmetry_multiplicity
 _atom_site_fract_x
 _atom_site_fract_y
 _atom_site_fract_z
 _atom_site_occupancy
  Ca  Ca0  1  0.00000000  0.00000000  0.00000000  1
  Ca  Ca1  1  0.82262800  0.82262801  0.64525599  1
  Ca  Ca2  1  0.17737200  0.17737200  0.35474401  1
  Mn  Mn3  1  0.58883000  0.58883001  0.17765999  1
  Mn  Mn4  1  0.41117000  0.41117001  0.82234001  1
  C  C5  1  0.91120701  0.41120701  0.82241400  1
  C  C6  1  0.41120699  0.91120701  0.82241400  1
  C  C7  1  0.08879299  0.58879301  0.17758599  1
  C  C8  1  0.58879301  0.08879300  0.17758599  1
  C  C9  1  0.70724200  0.70724201  0.41448399  1
  C  C10  1  0.29275800  0.29275800  0.58551601  1
