# generated using pymatgen
data_Li9CoO10
_symmetry_space_group_name_H-M   'P 1'
_cell_length_a   5.09967422
_cell_length_b   5.55360842
_cell_length_c   7.64847612
_cell_angle_alpha   103.22959900
_cell_angle_beta   103.31965637
_cell_angle_gamma   105.81999207
_symmetry_Int_Tables_number   1
_chemical_formula_structural   Li9CoO10
_chemical_formula_sum   'Li9 Co1 O10'
_cell_volume   192.71405655
_cell_formula_units_Z   1
loop_
 _symmetry_equiv_pos_site_id
 _symmetry_equiv_pos_as_xyz
  1  'x, y, z'
loop_
 _atom_site_type_symbol
 _atom_site_label
 _atom_site_symmetry_multiplicity
 _atom_site_fract_x
 _atom_site_fract_y
 _atom_site_fract_z
 _atom_site_occupancy
  Li  Li0  1  0.20896910  0.88724903  0.38428006  1
  Li  Li1  1  0.40654302  0.30647501  0.79838403  1
  Li  Li2  1  0.50000004  0.50000002  0.50000005  1
  Li  Li3  1  0.59345707  0.69352502  0.20161606  1
  Li  Li4  1  0.79103099  0.11275100  0.61572003  1
  Li  Li5  1  0.09564708  0.69548702  0.69403904  1
  Li  Li6  1  0.90435301  0.30451301  0.30596105  1
  Li  Li7  1  0.00000006  0.50000002  0.00000003  1
  Li  Li8  1  0.69776009  0.88830603  0.90022308  1
  Co  Co9  1  0.30224000  0.11169400  0.09977702  1
  O  O10  1  0.05836800  0.03223300  0.84085900  1
  O  O11  1  0.35296807  0.67452902  0.93265705  1
  O  O12  1  0.12861304  0.32888901  0.54513002  1
  O  O13  1  0.21639806  0.52631202  0.24523904  1
  O  O14  1  0.45748209  0.87851003  0.66560707  1
  O  O15  1  0.54251800  0.12149000  0.33439303  1
  O  O16  1  0.78360203  0.47368802  0.75476105  1
  O  O17  1  0.87138705  0.67111102  0.45487007  1
  O  O18  1  0.64703202  0.32547101  0.06734304  1
  O  O19  1  0.94163209  0.96776703  0.15914110  1
