# generated using pymatgen
data_TbDy4ErPd3
_symmetry_space_group_name_H-M   'P 1'
_cell_length_a   4.07608795
_cell_length_b   8.36219025
_cell_length_c   8.36219120
_cell_angle_alpha   120.00000000
_cell_angle_beta   90.00000000
_cell_angle_gamma   90.00000000
_symmetry_Int_Tables_number   1
_chemical_formula_structural   TbDy4ErPd3
_chemical_formula_sum   'Tb1 Dy4 Er1 Pd3'
_cell_volume   246.83930525
_cell_formula_units_Z   1
loop_
 _symmetry_equiv_pos_site_id
 _symmetry_equiv_pos_as_xyz
  1  'x, y, z'
loop_
 _atom_site_type_symbol
 _atom_site_label
 _atom_site_symmetry_multiplicity
 _atom_site_fract_x
 _atom_site_fract_y
 _atom_site_fract_z
 _atom_site_occupancy
  Dy  Dy0  1  1.00000001  0.76921700  0.76921703  1
  Dy  Dy1  1  0.50000001  0.00000000  0.60682598  1
  Dy  Dy2  1  0.50000001  0.60682600  0.00000004  1
  Dy  Dy3  1  1.00000001  0.23078300  0.99999998  1
  Er  Er4  1  0.00000000  0.00000000  0.23078299  1
  Tb  Tb5  1  0.50000001  0.39317400  0.39317401  1
  Pd  Pd6  1  0.50000001  0.00000000  -0.00000000  1
  Pd  Pd7  1  1.00000001  0.66666667  0.33333337  1
  Pd  Pd8  1  1.00000001  0.33333334  0.66666667  1
