# generated using pymatgen
data_Fe5Pd3
_symmetry_space_group_name_H-M   'P 1'
_cell_length_a   4.27350616
_cell_length_b   4.63837099
_cell_length_c   5.54169607
_cell_angle_alpha   90.00000000
_cell_angle_beta   90.00000000
_cell_angle_gamma   90.00000000
_symmetry_Int_Tables_number   1
_chemical_formula_structural   Fe5Pd3
_chemical_formula_sum   'Fe5 Pd3'
_cell_volume   109.84809262
_cell_formula_units_Z   1
loop_
 _symmetry_equiv_pos_site_id
 _symmetry_equiv_pos_as_xyz
  1  'x, y, z'
loop_
 _atom_site_type_symbol
 _atom_site_label
 _atom_site_symmetry_multiplicity
 _atom_site_fract_x
 _atom_site_fract_y
 _atom_site_fract_z
 _atom_site_occupancy
  Fe  Fe0  1  0.49999998  0.84298900  0.73465399  1
  Fe  Fe1  1  -0.00000000  0.16581600  0.26502200  1
  Fe  Fe2  1  -0.00000000  0.16581600  0.73497799  1
  Fe  Fe3  1  0.49999998  0.84298900  0.26534600  1
  Pd  Pd4  1  0.00000000  0.66735500  0.49999999  1
  Fe  Fe5  1  0.49999998  0.30611800  0.00000000  1
  Pd  Pd6  1  -0.00000000  0.67243500  0.00000000  1
  Pd  Pd7  1  0.49999998  0.33648300  0.49999999  1
