# generated using pymatgen
data_Li4MnO6
_symmetry_space_group_name_H-M   'P 1'
_cell_length_a   3.33465099
_cell_length_b   5.73922205
_cell_length_c   8.52961636
_cell_angle_alpha   102.63238525
_cell_angle_beta   90.00000000
_cell_angle_gamma   90.00000000
_symmetry_Int_Tables_number   1
_chemical_formula_structural   Li4MnO6
_chemical_formula_sum   'Li4 Mn1 O6'
_cell_volume   159.29081966
_cell_formula_units_Z   1
loop_
 _symmetry_equiv_pos_site_id
 _symmetry_equiv_pos_as_xyz
  1  'x, y, z'
loop_
 _atom_site_type_symbol
 _atom_site_label
 _atom_site_symmetry_multiplicity
 _atom_site_fract_x
 _atom_site_fract_y
 _atom_site_fract_z
 _atom_site_occupancy
  Li  Li0  1  0.50000000  0.37332600  0.63957304  1
  Li  Li1  1  -0.00000000  0.88388099  0.63867004  1
  Li  Li2  1  0.50000000  0.62667400  0.36042702  1
  Li  Li3  1  -0.00000000  0.11611900  0.36133002  1
  Mn  Mn4  1  0.00000000  0.00000000  0.00000000  1
  O  O5  1  -0.00000000  0.50000000  0.50000003  1
  O  O6  1  0.50000000  0.00000000  0.50000003  1
  O  O7  1  0.50000000  0.22067800  0.15633601  1
  O  O8  1  -0.00000000  0.72136799  0.15936201  1
  O  O9  1  0.50000000  0.77932199  0.84366405  1
  O  O10  1  -0.00000000  0.27863200  0.84063805  1
