# generated using pymatgen
data_Li3PBr2O
_symmetry_space_group_name_H-M   'P 1'
_cell_length_a   3.62439013
_cell_length_b   3.62439013
_cell_length_c   14.57963276
_cell_angle_alpha   82.85988617
_cell_angle_beta   82.85988617
_cell_angle_gamma   60.00000000
_symmetry_Int_Tables_number   1
_chemical_formula_structural   Li3PBr2O
_chemical_formula_sum   'Li3 P1 Br2 O1'
_cell_volume   164.14485629
_cell_formula_units_Z   1
loop_
 _symmetry_equiv_pos_site_id
 _symmetry_equiv_pos_as_xyz
  1  'x, y, z'
loop_
 _atom_site_type_symbol
 _atom_site_label
 _atom_site_symmetry_multiplicity
 _atom_site_fract_x
 _atom_site_fract_y
 _atom_site_fract_z
 _atom_site_occupancy
  Li  Li0  1  0.91687497  0.91687497  0.24937502  1
  Li  Li1  1  0.00143800  0.00143800  0.99568599  1
  Li  Li2  1  0.49879498  0.49879498  0.50361501  1
  P  P3  1  0.20064899  0.20064899  0.39805300  1
  Br  Br4  1  0.70037898  0.70037898  0.89886301  1
  O  O5  1  0.29951699  0.29951699  0.10144901  1
  Br  Br6  1  0.79979697  0.79979697  0.60060901  1
