# generated using pymatgen
data_Ba2ZnAsIO7
_symmetry_space_group_name_H-M   'P 1'
_cell_length_a   5.34714603
_cell_length_b   5.34714556
_cell_length_c   9.23110962
_cell_angle_alpha   90.00000000
_cell_angle_beta   90.00000000
_cell_angle_gamma   120.00000000
_symmetry_Int_Tables_number   1
_chemical_formula_structural   Ba2ZnAsIO7
_chemical_formula_sum   'Ba2 Zn1 As1 I1 O7'
_cell_volume   228.57492792
_cell_formula_units_Z   1
loop_
 _symmetry_equiv_pos_site_id
 _symmetry_equiv_pos_as_xyz
  1  'x, y, z'
loop_
 _atom_site_type_symbol
 _atom_site_label
 _atom_site_symmetry_multiplicity
 _atom_site_fract_x
 _atom_site_fract_y
 _atom_site_fract_z
 _atom_site_occupancy
  Ba  Ba0  1  0.00000000  0.00000000  0.50000002  1
  Ba  Ba1  1  0.66666665  0.33333334  0.20779501  1
  I  I2  1  0.33333331  0.66666668  0.20779501  1
  Zn  Zn3  1  0.33333331  0.66666668  0.79220503  1
  As  As4  1  0.66666665  0.33333334  0.79220503  1
  O  O5  1  0.00000000  0.00000000  0.00000000  1
  O  O6  1  0.50000000  0.00000000  0.68412503  1
  O  O7  1  0.99999998  0.50000001  0.31587501  1
  O  O8  1  0.50000000  0.00000000  0.31587501  1
  O  O9  1  0.49999998  0.50000001  0.31587501  1
  O  O10  1  0.99999998  0.50000001  0.68412503  1
  O  O11  1  0.49999998  0.50000001  0.68412503  1
