# generated using pymatgen
data_Li3VO8
_symmetry_space_group_name_H-M   'P 1'
_cell_length_a   5.29507780
_cell_length_b   5.29507780
_cell_length_c   6.67296267
_cell_angle_alpha   113.37554932
_cell_angle_beta   113.37554932
_cell_angle_gamma   90.00000000
_symmetry_Int_Tables_number   1
_chemical_formula_structural   Li3VO8
_chemical_formula_sum   'Li3 V1 O8'
_cell_volume   154.86819850
_cell_formula_units_Z   1
loop_
 _symmetry_equiv_pos_site_id
 _symmetry_equiv_pos_as_xyz
  1  'x, y, z'
loop_
 _atom_site_type_symbol
 _atom_site_label
 _atom_site_symmetry_multiplicity
 _atom_site_fract_x
 _atom_site_fract_y
 _atom_site_fract_z
 _atom_site_occupancy
  Li  Li0  1  0.25000006  0.75000006  0.50000007  1
  Li  Li1  1  0.00000000  0.00000000  0.00000000  1
  Li  Li2  1  0.75000006  0.25000002  0.50000006  1
  V  V3  1  0.50000006  0.50000004  0.00000006  1
  O  O4  1  0.59398208  0.63734905  0.81919608  1
  O  O5  1  0.22521303  0.18184601  0.81919402  1
  O  O6  1  0.92071212  0.96263807  0.30765712  1
  O  O7  1  0.38694505  0.34501903  0.30765704  1
  O  O8  1  0.65498105  0.07928801  0.69234304  1
  O  O9  1  0.03736204  0.61305505  0.69234305  1
  O  O10  1  0.36265207  0.77478706  0.18080508  1
  O  O11  1  0.81815308  0.40601803  0.18080507  1
