# generated using pymatgen
data_Li5MnS7
_symmetry_space_group_name_H-M   'P 1'
_cell_length_a   7.01718330
_cell_length_b   7.01718330
_cell_length_c   7.01718330
_cell_angle_alpha   60.00000000
_cell_angle_beta   60.00000000
_cell_angle_gamma   60.00000000
_symmetry_Int_Tables_number   1
_chemical_formula_structural   Li5MnS7
_chemical_formula_sum   'Li5 Mn1 S7'
_cell_volume   244.32812732
_cell_formula_units_Z   1
loop_
 _symmetry_equiv_pos_site_id
 _symmetry_equiv_pos_as_xyz
  1  'x, y, z'
loop_
 _atom_site_type_symbol
 _atom_site_label
 _atom_site_symmetry_multiplicity
 _atom_site_fract_x
 _atom_site_fract_y
 _atom_site_fract_z
 _atom_site_occupancy
  Li  Li0  1  0.86741602  0.86741602  0.39775201  1
  Li  Li1  1  0.86741602  0.86741602  0.86741602  1
  Li  Li2  1  0.86741602  0.39775201  0.86741602  1
  Li  Li3  1  0.39775201  0.86741602  0.86741602  1
  Li  Li4  1  0.25000001  0.25000001  0.25000001  1
  Mn  Mn5  1  0.11469300  0.11469400  0.65591901  1
  S  S6  1  0.11469300  0.11469400  0.11469400  1
  S  S7  1  0.11469300  0.65591901  0.11469400  1
  S  S8  1  0.65591801  0.11469400  0.11469400  1
  S  S9  1  0.63214901  0.63215001  0.10355100  1
  S  S10  1  0.63214901  0.63215001  0.63215001  1
  S  S11  1  0.63214901  0.10355100  0.63215001  1
  S  S12  1  0.10355000  0.63215001  0.63215001  1
