# generated using pymatgen
data_Li3FeO8
_symmetry_space_group_name_H-M   'P 1'
_cell_length_a   4.79297781
_cell_length_b   5.31340694
_cell_length_c   5.83085012
_cell_angle_alpha   90.00000000
_cell_angle_beta   90.00000000
_cell_angle_gamma   90.00000000
_symmetry_Int_Tables_number   1
_chemical_formula_structural   Li3FeO8
_chemical_formula_sum   'Li3 Fe1 O8'
_cell_volume   148.49450256
_cell_formula_units_Z   1
loop_
 _symmetry_equiv_pos_site_id
 _symmetry_equiv_pos_as_xyz
  1  'x, y, z'
loop_
 _atom_site_type_symbol
 _atom_site_label
 _atom_site_symmetry_multiplicity
 _atom_site_fract_x
 _atom_site_fract_y
 _atom_site_fract_z
 _atom_site_occupancy
  Li  Li0  1  0.50000002  0.75000001  0.66509599  1
  Li  Li1  1  0.00000000  0.25000000  0.83490398  1
  Li  Li2  1  0.50000002  0.25000000  0.33490399  1
  Fe  Fe3  1  0.00000000  0.75000001  0.16509600  1
  O  O4  1  0.73016503  0.07824100  0.60703699  1
  O  O5  1  0.23016501  0.92175901  0.89296298  1
  O  O6  1  0.76983503  0.57824101  0.89296298  1
  O  O7  1  0.26983501  0.42175900  0.60703699  1
  O  O8  1  0.73016503  0.57824101  0.39296299  1
  O  O9  1  0.23016501  0.42175900  0.10703700  1
  O  O10  1  0.76983503  0.07824100  0.10703700  1
  O  O11  1  0.26983501  0.92175901  0.39296299  1
