# generated using pymatgen
data_Dy4Al5Ge7
_symmetry_space_group_name_H-M   'P 1'
_cell_length_a   5.86595678
_cell_length_b   7.16585588
_cell_length_c   7.64027309
_cell_angle_alpha   90.00000000
_cell_angle_beta   90.00000000
_cell_angle_gamma   90.00000000
_symmetry_Int_Tables_number   1
_chemical_formula_structural   Dy4Al5Ge7
_chemical_formula_sum   'Dy4 Al5 Ge7'
_cell_volume   321.15583054
_cell_formula_units_Z   1
loop_
 _symmetry_equiv_pos_site_id
 _symmetry_equiv_pos_as_xyz
  1  'x, y, z'
loop_
 _atom_site_type_symbol
 _atom_site_label
 _atom_site_symmetry_multiplicity
 _atom_site_fract_x
 _atom_site_fract_y
 _atom_site_fract_z
 _atom_site_occupancy
  Dy  Dy0  1  0.35820301  0.75000001  0.02171700  1
  Dy  Dy1  1  0.14179701  0.75000001  0.52171699  1
  Dy  Dy2  1  0.64179702  0.25000000  0.97828299  1
  Dy  Dy3  1  0.85820303  0.25000000  0.47828299  1
  Al  Al4  1  0.63939602  0.75000001  0.37705500  1
  Al  Al5  1  0.86060403  0.75000001  0.87705499  1
  Al  Al6  1  0.36060401  0.25000000  0.62294499  1
  Al  Al7  1  0.13939601  0.25000000  0.12294500  1
  Al  Al8  1  0.90965803  0.55440701  0.17701300  1
  Ge  Ge9  1  0.59034202  0.94559302  0.67701299  1
  Ge  Ge10  1  0.09034200  0.05440700  0.82298699  1
  Ge  Ge11  1  0.40965802  0.44559301  0.32298700  1
  Ge  Ge12  1  0.09034200  0.44559301  0.82298699  1
  Ge  Ge13  1  0.40965802  0.05440700  0.32298700  1
  Ge  Ge14  1  0.90965803  0.94559302  0.17701300  1
  Ge  Ge15  1  0.59034202  0.55440701  0.67701299  1
