# generated using pymatgen
data_Hf5ZnNi6
_symmetry_space_group_name_H-M   'P 1'
_cell_length_a   5.29765177
_cell_length_b   5.29765177
_cell_length_c   8.43653774
_cell_angle_alpha   90.00000000
_cell_angle_beta   90.00000000
_cell_angle_gamma   119.28421021
_symmetry_Int_Tables_number   1
_chemical_formula_structural   Hf5ZnNi6
_chemical_formula_sum   'Hf5 Zn1 Ni6'
_cell_volume   206.51385548
_cell_formula_units_Z   1
loop_
 _symmetry_equiv_pos_site_id
 _symmetry_equiv_pos_as_xyz
  1  'x, y, z'
loop_
 _atom_site_type_symbol
 _atom_site_label
 _atom_site_symmetry_multiplicity
 _atom_site_fract_x
 _atom_site_fract_y
 _atom_site_fract_z
 _atom_site_occupancy
  Hf  Hf0  1  0.66480599  0.33519399  0.79806802  1
  Hf  Hf1  1  0.32700896  0.67299099  0.67932702  1
  Hf  Hf2  1  0.32700896  0.67299099  0.32067301  1
  Hf  Hf3  1  0.66480599  0.33519399  0.20193201  1
  Hf  Hf4  1  0.00532694  0.99467298  0.74943102  1
  Ni  Ni5  1  0.00532694  0.99467298  0.25056901  1
  Ni  Ni6  1  0.65653796  0.82893698  1.00000003  1
  Zn  Zn7  1  0.17106298  0.34346199  1.00000003  1
  Ni  Ni8  1  0.16962595  0.83037398  1.00000003  1
  Ni  Ni9  1  0.33981499  0.16727000  0.50000002  1
  Ni  Ni10  1  0.83272997  0.66018499  0.50000002  1
  Ni  Ni11  1  0.83596000  0.16404000  0.50000002  1
