# generated using pymatgen
data_Ca6Mg2InSnGe
_symmetry_space_group_name_H-M   'P 1'
_cell_length_a   6.07573986
_cell_length_b   6.07573891
_cell_length_c   11.00960064
_cell_angle_alpha   90.00000000
_cell_angle_beta   90.00000000
_cell_angle_gamma   120.00000763
_symmetry_Int_Tables_number   1
_chemical_formula_structural   Ca6Mg2InSnGe
_chemical_formula_sum   'Ca6 Mg2 In1 Sn1 Ge1'
_cell_volume   351.96577705
_cell_formula_units_Z   1
loop_
 _symmetry_equiv_pos_site_id
 _symmetry_equiv_pos_as_xyz
  1  'x, y, z'
loop_
 _atom_site_type_symbol
 _atom_site_label
 _atom_site_symmetry_multiplicity
 _atom_site_fract_x
 _atom_site_fract_y
 _atom_site_fract_z
 _atom_site_occupancy
  Ca  Ca0  1  0.00000000  0.00000000  0.33096201  1
  Ca  Ca1  1  0.33333337  0.66666669  0.20212201  1
  Ca  Ca2  1  0.33333337  0.66666669  0.79787803  1
  Ca  Ca3  1  0.66666670  0.33333334  -0.00000000  1
  Ca  Ca4  1  0.00000000  0.00000000  0.66903802  1
  Ca  Ca5  1  0.48539805  0.97079603  0.50000002  1
  Mg  Mg6  1  0.02920402  0.51460202  0.50000002  1
  Mg  Mg7  1  0.48539803  0.51460202  0.50000002  1
  Sn  Sn8  1  0.66666670  0.33333334  0.32568601  1
  In  In9  1  0.66666670  0.33333334  0.67431402  1
  Ge  Ge10  1  0.00000000  0.00000000  0.00000000  1
