# generated using pymatgen
data_Nb2Fe6Ge5C2
_symmetry_space_group_name_H-M   'P 1'
_cell_length_a   3.25861001
_cell_length_b   9.11311436
_cell_length_c   9.11311436
_cell_angle_alpha   120.00000000
_cell_angle_beta   90.00000000
_cell_angle_gamma   90.00000000
_symmetry_Int_Tables_number   1
_chemical_formula_structural   Nb2Fe6Ge5C2
_chemical_formula_sum   'Nb2 Fe6 Ge5 C2'
_cell_volume   234.36710701
_cell_formula_units_Z   1
loop_
 _symmetry_equiv_pos_site_id
 _symmetry_equiv_pos_as_xyz
  1  'x, y, z'
loop_
 _atom_site_type_symbol
 _atom_site_label
 _atom_site_symmetry_multiplicity
 _atom_site_fract_x
 _atom_site_fract_y
 _atom_site_fract_z
 _atom_site_occupancy
  Nb  Nb0  1  0.50000000  0.00000000  -0.00000000  1
  Nb  Nb1  1  0.25068600  0.88529099  0.37605506  1
  Fe  Fe2  1  0.25068600  0.49076399  0.11470903  1
  Fe  Fe3  1  0.25068600  0.62394499  0.50923605  1
  Fe  Fe4  1  0.74931400  0.11470900  0.62394503  1
  Fe  Fe5  1  0.74931400  0.50923599  0.88529106  1
  Fe  Fe6  1  0.74931400  0.37605499  0.49076404  1
  Fe  Fe7  1  0.24973000  0.33333333  0.66666671  1
  Ge  Ge8  1  0.75027000  0.66666666  0.33333338  1
  Ge  Ge9  1  0.24838800  0.70837699  0.05013504  1
  Ge  Ge10  1  0.24838800  0.34175800  0.29162303  1
  C  C11  1  0.24838800  0.94986499  0.65824207  1
  Ge  Ge12  1  0.75161200  0.29162300  0.94986505  1
  Ge  Ge13  1  0.75161200  0.65824199  0.70837706  1
  C  C14  1  0.75161200  0.05013500  0.34175801  1
