# generated using pymatgen
data_CeInPd
_symmetry_space_group_name_H-M   'P 1'
_cell_length_a   4.65876579
_cell_length_b   4.65876579
_cell_length_c   7.71906424
_cell_angle_alpha   90.00000000
_cell_angle_beta   90.00000000
_cell_angle_gamma   90.00000000
_symmetry_Int_Tables_number   1
_chemical_formula_structural   CeInPd
_chemical_formula_sum   'Ce2 In2 Pd2'
_cell_volume   167.53533214
_cell_formula_units_Z   2
loop_
 _symmetry_equiv_pos_site_id
 _symmetry_equiv_pos_as_xyz
  1  'x, y, z'
loop_
 _atom_site_type_symbol
 _atom_site_label
 _atom_site_symmetry_multiplicity
 _atom_site_fract_x
 _atom_site_fract_y
 _atom_site_fract_z
 _atom_site_occupancy
  Ce  Ce0  1  0.50000002  0.00000000  0.35764699  1
  Ce  Ce1  1  0.00000000  0.50000002  0.64235298  1
  In  In2  1  0.50000002  0.50000002  0.00000000  1
  In  In3  1  0.00000000  0.00000000  0.00000000  1
  Pd  Pd4  1  0.50000002  0.00000000  0.77229698  1
  Pd  Pd5  1  0.00000000  0.50000002  0.22770299  1
