# generated using pymatgen
data_Nd2Ni5
_symmetry_space_group_name_H-M   'P 1'
_cell_length_a   6.15228701
_cell_length_b   6.15228701
_cell_length_c   6.43982220
_cell_angle_alpha   90.00000000
_cell_angle_beta   90.00000000
_cell_angle_gamma   90.00000000
_symmetry_Int_Tables_number   1
_chemical_formula_structural   Nd2Ni5
_chemical_formula_sum   'Nd2 Ni5'
_cell_volume   243.75136207
_cell_formula_units_Z   1
loop_
 _symmetry_equiv_pos_site_id
 _symmetry_equiv_pos_as_xyz
  1  'x, y, z'
loop_
 _atom_site_type_symbol
 _atom_site_label
 _atom_site_symmetry_multiplicity
 _atom_site_fract_x
 _atom_site_fract_y
 _atom_site_fract_z
 _atom_site_occupancy
  Ni  Ni0  1  0.00000000  0.50000000  0.49999998  1
  Nd  Nd1  1  0.50000000  0.00000000  0.49999998  1
  Nd  Nd2  1  0.00000000  0.00000000  0.00000000  1
  Ni  Ni3  1  0.26377600  0.26377600  0.27118499  1
  Ni  Ni4  1  0.73622400  0.73622400  0.27118499  1
  Ni  Ni5  1  0.26377600  0.73622400  0.72881498  1
  Ni  Ni6  1  0.73622400  0.26377600  0.72881498  1
