# generated using pymatgen
data_BaLaRuO4
_symmetry_space_group_name_H-M   'P 1'
_cell_length_a   4.06299591
_cell_length_b   4.06299591
_cell_length_c   7.33181763
_cell_angle_alpha   106.08599091
_cell_angle_beta   106.08599091
_cell_angle_gamma   90.00000000
_symmetry_Int_Tables_number   1
_chemical_formula_structural   BaLaRuO4
_chemical_formula_sum   'Ba1 La1 Ru1 O4'
_cell_volume   111.35404926
_cell_formula_units_Z   1
loop_
 _symmetry_equiv_pos_site_id
 _symmetry_equiv_pos_as_xyz
  1  'x, y, z'
loop_
 _atom_site_type_symbol
 _atom_site_label
 _atom_site_symmetry_multiplicity
 _atom_site_fract_x
 _atom_site_fract_y
 _atom_site_fract_z
 _atom_site_occupancy
  La  La0  1  0.35476101  0.35476101  0.70952200  1
  Ba  Ba1  1  0.64523902  0.64523902  0.29047801  1
  Ru  Ru2  1  0.00000000  0.00000000  0.00000000  1
  O  O3  1  0.50000001  0.00000000  0.00000000  1
  O  O4  1  0.15472700  0.15472700  0.30945400  1
  O  O5  1  0.84527302  0.84527302  0.69054601  1
  O  O6  1  0.00000000  0.50000001  0.00000000  1
