# generated using pymatgen
data_Fe3Ni7
_symmetry_space_group_name_H-M   'P 1'
_cell_length_a   3.19233203
_cell_length_b   6.12653303
_cell_length_c   6.12653303
_cell_angle_alpha   90.00000000
_cell_angle_beta   90.00000000
_cell_angle_gamma   90.00000000
_symmetry_Int_Tables_number   1
_chemical_formula_structural   Fe3Ni7
_chemical_formula_sum   'Fe3 Ni7'
_cell_volume   119.82228962
_cell_formula_units_Z   1
loop_
 _symmetry_equiv_pos_site_id
 _symmetry_equiv_pos_as_xyz
  1  'x, y, z'
loop_
 _atom_site_type_symbol
 _atom_site_label
 _atom_site_symmetry_multiplicity
 _atom_site_fract_x
 _atom_site_fract_y
 _atom_site_fract_z
 _atom_site_occupancy
  Fe  Fe0  1  0.00000000  0.50000000  0.50000000  1
  Fe  Fe1  1  0.00000000  0.00000000  0.00000000  1
  Fe  Fe2  1  0.00000000  0.10929900  0.60929900  1
  Ni  Ni3  1  0.00000000  0.89070100  0.39070100  1
  Ni  Ni4  1  0.99999999  0.60929900  0.89070100  1
  Ni  Ni5  1  0.00000000  0.39070100  0.10929900  1
  Ni  Ni6  1  0.50000000  0.67382700  0.17382700  1
  Ni  Ni7  1  0.50000000  0.32617300  0.82617300  1
  Ni  Ni8  1  0.50000000  0.17382700  0.32617300  1
  Ni  Ni9  1  0.50000000  0.82617300  0.67382700  1
