# generated using pymatgen
data_CdGa2
_symmetry_space_group_name_H-M   'P 1'
_cell_length_a   3.30453396
_cell_length_b   3.30453396
_cell_length_c   6.13570309
_cell_angle_alpha   105.62186432
_cell_angle_beta   105.62186432
_cell_angle_gamma   90.00000000
_symmetry_Int_Tables_number   1
_chemical_formula_structural   CdGa2
_chemical_formula_sum   'Cd1 Ga2'
_cell_volume   61.95264724
_cell_formula_units_Z   1
loop_
 _symmetry_equiv_pos_site_id
 _symmetry_equiv_pos_as_xyz
  1  'x, y, z'
loop_
 _atom_site_type_symbol
 _atom_site_label
 _atom_site_symmetry_multiplicity
 _atom_site_fract_x
 _atom_site_fract_y
 _atom_site_fract_z
 _atom_site_occupancy
  Cd  Cd0  1  0.65673602  0.65673601  0.31347201  1
  Ga  Ga1  1  0.34326401  0.34326401  0.68652799  1
  Ga  Ga2  1  0.00000000  0.00000000  0.00000000  1
