# generated using pymatgen
data_UNb2FeBMo2Ru
_symmetry_space_group_name_H-M   'P 1'
_cell_length_a   2.71992707
_cell_length_b   2.71992707
_cell_length_c   14.88698673
_cell_angle_alpha   90.00000000
_cell_angle_beta   90.00000000
_cell_angle_gamma   90.00000000
_symmetry_Int_Tables_number   1
_chemical_formula_structural   UNb2FeBMo2Ru
_chemical_formula_sum   'U1 Nb2 Fe1 B1 Mo2 Ru1'
_cell_volume   110.13397667
_cell_formula_units_Z   1
loop_
 _symmetry_equiv_pos_site_id
 _symmetry_equiv_pos_as_xyz
  1  'x, y, z'
loop_
 _atom_site_type_symbol
 _atom_site_label
 _atom_site_symmetry_multiplicity
 _atom_site_fract_x
 _atom_site_fract_y
 _atom_site_fract_z
 _atom_site_occupancy
  Nb  Nb0  1  0.00000000  0.00000000  0.49887601  1
  U  U1  1  0.00000000  0.00000000  0.75063901  1
  B  B2  1  0.00000000  0.00000000  0.00164200  1
  Nb  Nb3  1  0.00000000  0.00000000  0.24853900  1
  Mo  Mo4  1  0.49999999  0.49999999  0.12782200  1
  Fe  Fe5  1  0.49999999  0.49999999  0.37368301  1
  Mo  Mo6  1  0.49999999  0.49999999  0.62450101  1
  Ru  Ru7  1  0.49999999  0.49999999  0.87429902  1
