# generated using pymatgen
data_Ca3MgAl2B3C7
_symmetry_space_group_name_H-M   'P 1'
_cell_length_a   5.30269814
_cell_length_b   5.43329000
_cell_length_c   6.76602888
_cell_angle_alpha   90.00000000
_cell_angle_beta   90.00000000
_cell_angle_gamma   90.00000000
_symmetry_Int_Tables_number   1
_chemical_formula_structural   Ca3MgAl2B3C7
_chemical_formula_sum   'Ca3 Mg1 Al2 B3 C7'
_cell_volume   194.93671289
_cell_formula_units_Z   1
loop_
 _symmetry_equiv_pos_site_id
 _symmetry_equiv_pos_as_xyz
  1  'x, y, z'
loop_
 _atom_site_type_symbol
 _atom_site_label
 _atom_site_symmetry_multiplicity
 _atom_site_fract_x
 _atom_site_fract_y
 _atom_site_fract_z
 _atom_site_occupancy
  Mg  Mg0  1  0.99085097  0.57676900  0.87585902  1
  Ca  Ca1  1  0.49085099  0.42323100  0.12414100  1
  Ca  Ca2  1  0.49085099  0.92323100  0.37585901  1
  Ca  Ca3  1  0.99085097  0.07676900  0.62414101  1
  Al  Al4  1  0.99361097  0.56238900  0.37520801  1
  B  B5  1  0.49361099  0.43761100  0.62479201  1
  B  B6  1  0.49361099  0.93761100  0.87520802  1
  Al  Al7  1  0.99361097  0.06238900  0.12479200  1
  B  B8  1  0.41790499  0.62540900  0.82991901  1
  C  C9  1  0.91790498  0.37459100  0.17008100  1
  C  C10  1  0.91790498  0.87459100  0.32991901  1
  C  C11  1  0.41790499  0.12540900  0.67008101  1
  C  C12  1  0.31963399  0.53721500  0.42031701  1
  C  C13  1  0.81963398  0.46278500  0.57968301  1
  C  C14  1  0.81963398  0.96278500  0.92031702  1
  C  C15  1  0.31963399  0.03721500  0.07968300  1
