# generated using pymatgen
data_Li5ZrTiNiO12
_symmetry_space_group_name_H-M   'P 1'
_cell_length_a   5.48927402
_cell_length_b   5.60444784
_cell_length_c   7.84797382
_cell_angle_alpha   90.00000000
_cell_angle_beta   89.80438232
_cell_angle_gamma   90.00000000
_symmetry_Int_Tables_number   1
_chemical_formula_structural   Li5ZrTiNiO12
_chemical_formula_sum   'Li5 Zr1 Ti1 Ni1 O12'
_cell_volume   241.43640603
_cell_formula_units_Z   1
loop_
 _symmetry_equiv_pos_site_id
 _symmetry_equiv_pos_as_xyz
  1  'x, y, z'
loop_
 _atom_site_type_symbol
 _atom_site_label
 _atom_site_symmetry_multiplicity
 _atom_site_fract_x
 _atom_site_fract_y
 _atom_site_fract_z
 _atom_site_occupancy
  Li  Li0  1  0.01141100  0.44970501  0.24949100  1
  Li  Li1  1  0.48858900  0.94970503  0.25050898  1
  Li  Li2  1  0.98858900  0.55029502  0.75050897  1
  Li  Li3  1  0.51141100  0.05029500  0.74949098  1
  Ti  Ti4  1  0.50000000  0.50000001  0.49999998  1
  Li  Li5  1  0.00000000  0.00000000  0.00000000  1
  Ni  Ni6  1  0.50000000  0.50000001  -0.00000001  1
  Zr  Zr7  1  0.00000000  0.00000000  0.49999999  1
  O  O8  1  0.29429000  0.20268701  0.04625699  1
  O  O9  1  0.20571000  0.70268702  0.45374299  1
  O  O10  1  0.70571000  0.79731302  0.95374297  1
  O  O11  1  0.79429000  0.29731301  0.54625697  1
  O  O12  1  0.80597900  0.28832701  0.95454997  1
  O  O13  1  0.69402100  0.78832702  0.54544998  1
  O  O14  1  0.19402100  0.71167302  0.04544999  1
  O  O15  1  0.30597900  0.21167301  0.45454999  1
  O  O16  1  0.91011200  0.02359800  0.24469597  1
  O  O17  1  0.58988800  0.52359801  0.25530398  1
  O  O18  1  0.41011200  0.47640201  0.74469598  1
  O  O19  1  0.08988800  0.97640203  0.75530399  1
