# generated using pymatgen
data_Hf7ZrNi6
_symmetry_space_group_name_H-M   'P 1'
_cell_length_a   6.01463699
_cell_length_b   6.01463699
_cell_length_c   7.72565794
_cell_angle_alpha   90.00000000
_cell_angle_beta   90.00000000
_cell_angle_gamma   90.00000000
_symmetry_Int_Tables_number   1
_chemical_formula_structural   Hf7ZrNi6
_chemical_formula_sum   'Hf7 Zr1 Ni6'
_cell_volume   279.48230585
_cell_formula_units_Z   1
loop_
 _symmetry_equiv_pos_site_id
 _symmetry_equiv_pos_as_xyz
  1  'x, y, z'
loop_
 _atom_site_type_symbol
 _atom_site_label
 _atom_site_symmetry_multiplicity
 _atom_site_fract_x
 _atom_site_fract_y
 _atom_site_fract_z
 _atom_site_occupancy
  Hf  Hf0  1  0.00000000  0.50000000  -0.00000000  1
  Zr  Zr1  1  0.50000000  0.00000000  0.00000000  1
  Hf  Hf2  1  0.68373300  0.81626700  0.35175400  1
  Hf  Hf3  1  0.31626700  0.18373300  0.35175400  1
  Hf  Hf4  1  0.00000000  0.00000000  0.16120300  1
  Hf  Hf5  1  0.00000000  0.00000000  0.83879701  1
  Hf  Hf6  1  0.50000000  0.50000000  0.83879701  1
  Hf  Hf7  1  0.50000000  0.50000000  0.16120300  1
  Ni  Ni8  1  0.18373300  0.31626700  0.64824601  1
  Ni  Ni9  1  0.68373300  0.18373300  0.64824601  1
  Ni  Ni10  1  0.31626700  0.81626700  0.64824601  1
  Ni  Ni11  1  0.18373300  0.68373300  0.35175400  1
  Ni  Ni12  1  0.81626700  0.31626700  0.35175400  1
  Ni  Ni13  1  0.81626700  0.68373300  0.64824601  1
