# generated using pymatgen
data_Ce4SbPd2
_symmetry_space_group_name_H-M   'P 1'
_cell_length_a   4.62554312
_cell_length_b   4.62554312
_cell_length_c   9.83913803
_cell_angle_alpha   90.00000000
_cell_angle_beta   90.00000000
_cell_angle_gamma   90.00000000
_symmetry_Int_Tables_number   1
_chemical_formula_structural   Ce4SbPd2
_chemical_formula_sum   'Ce4 Sb1 Pd2'
_cell_volume   210.51474507
_cell_formula_units_Z   1
loop_
 _symmetry_equiv_pos_site_id
 _symmetry_equiv_pos_as_xyz
  1  'x, y, z'
loop_
 _atom_site_type_symbol
 _atom_site_label
 _atom_site_symmetry_multiplicity
 _atom_site_fract_x
 _atom_site_fract_y
 _atom_site_fract_z
 _atom_site_occupancy
  Ce  Ce0  1  0.49999999  0.00000000  0.73839400  1
  Ce  Ce1  1  0.00000000  0.49999999  0.26160600  1
  Ce  Ce2  1  0.49999999  0.49999999  0.50000000  1
  Ce  Ce3  1  0.49999999  0.00000000  0.33483400  1
  Pd  Pd4  1  0.00000000  0.49999999  0.66516600  1
  Sb  Sb5  1  0.49999999  0.49999999  0.00000000  1
  Pd  Pd6  1  0.00000000  0.00000000  0.00000000  1
