# generated using pymatgen
data_Ce3GaGe8
_symmetry_space_group_name_H-M   'P 1'
_cell_length_a   4.40140820
_cell_length_b   4.54930305
_cell_length_c   14.33938313
_cell_angle_alpha   90.00000000
_cell_angle_beta   98.82823181
_cell_angle_gamma   90.00000000
_symmetry_Int_Tables_number   1
_chemical_formula_structural   Ce3GaGe8
_chemical_formula_sum   'Ce3 Ga1 Ge8'
_cell_volume   283.72076716
_cell_formula_units_Z   1
loop_
 _symmetry_equiv_pos_site_id
 _symmetry_equiv_pos_as_xyz
  1  'x, y, z'
loop_
 _atom_site_type_symbol
 _atom_site_label
 _atom_site_symmetry_multiplicity
 _atom_site_fract_x
 _atom_site_fract_y
 _atom_site_fract_z
 _atom_site_occupancy
  Ce  Ce0  1  0.80608097  0.49999999  0.61216202  1
  Ce  Ce1  1  0.19391899  0.49999999  0.38783801  1
  Ga  Ga2  1  0.55104098  0.99999999  0.10208201  1
  Ce  Ce3  1  0.44895898  0.99999999  0.89791802  1
  Ge  Ge4  1  0.60839598  0.49999999  0.21679201  1
  Ge  Ge5  1  0.39160399  0.49999999  0.78320802  1
  Ge  Ge6  1  0.71436197  0.99999999  0.42872402  1
  Ge  Ge7  1  0.28563799  0.00000000  0.57127601  1
  Ge  Ge8  1  0.89052297  0.99999999  0.78104602  1
  Ge  Ge9  1  0.10947700  0.00000000  0.21895400  1
  Ge  Ge10  1  0.00000000  0.00000000  0.00000000  1
  Ge  Ge11  1  0.49999998  0.49999999  0.00000001  1
