# generated using pymatgen
data_PrZrTiNi6
_symmetry_space_group_name_H-M   'P 1'
_cell_length_a   3.88409996
_cell_length_b   6.45803785
_cell_length_c   6.45803881
_cell_angle_alpha   119.99999237
_cell_angle_beta   90.00000000
_cell_angle_gamma   90.00000000
_symmetry_Int_Tables_number   1
_chemical_formula_structural   PrZrTiNi6
_chemical_formula_sum   'Pr1 Zr1 Ti1 Ni6'
_cell_volume   140.28857377
_cell_formula_units_Z   1
loop_
 _symmetry_equiv_pos_site_id
 _symmetry_equiv_pos_as_xyz
  1  'x, y, z'
loop_
 _atom_site_type_symbol
 _atom_site_label
 _atom_site_symmetry_multiplicity
 _atom_site_fract_x
 _atom_site_fract_y
 _atom_site_fract_z
 _atom_site_occupancy
  Ti  Ti0  1  0.50000001  0.58411299  -0.00000004  1
  Zr  Zr1  1  0.50000001  0.41588700  0.41588698  1
  Pr  Pr2  1  0.50000001  0.99999999  0.58411295  1
  Ni  Ni3  1  1.00000001  0.33333333  0.66666665  1
  Ni  Ni4  1  1.00000001  0.66666666  0.33333330  1
  Ni  Ni5  1  0.50000001  0.00000000  -0.00000000  1
  Ni  Ni6  1  -0.00000000  0.24632400  1.00000000  1
  Ni  Ni7  1  1.00000001  0.75367599  0.75367596  1
  Ni  Ni8  1  1.00000001  0.99999999  0.24632394  1
