# generated using pymatgen
data_Li5MnCoO11
_symmetry_space_group_name_H-M   'P 1'
_cell_length_a   4.59041595
_cell_length_b   4.59041595
_cell_length_c   9.16504860
_cell_angle_alpha   90.00000000
_cell_angle_beta   90.00000000
_cell_angle_gamma   92.02581024
_symmetry_Int_Tables_number   1
_chemical_formula_structural   Li5MnCoO11
_chemical_formula_sum   'Li5 Mn1 Co1 O11'
_cell_volume   193.00445599
_cell_formula_units_Z   1
loop_
 _symmetry_equiv_pos_site_id
 _symmetry_equiv_pos_as_xyz
  1  'x, y, z'
loop_
 _atom_site_type_symbol
 _atom_site_label
 _atom_site_symmetry_multiplicity
 _atom_site_fract_x
 _atom_site_fract_y
 _atom_site_fract_z
 _atom_site_occupancy
  Li  Li0  1  0.00800100  0.99199899  0.34374802  1
  Li  Li1  1  0.00800100  0.99199899  0.65625203  1
  Li  Li2  1  0.00897100  0.99102899  -0.00000000  1
  Li  Li3  1  0.51010999  0.48988999  0.50000002  1
  Li  Li4  1  0.47053299  0.52946699  0.16550501  1
  Mn  Mn5  1  0.47053299  0.52946699  0.83449504  1
  O  O6  1  0.20261900  0.79738099  0.50000002  1
  Co  Co7  1  0.19984700  0.80015299  0.83132704  1
  O  O8  1  0.19984700  0.80015299  0.16867301  1
  O  O9  1  0.30328800  0.29688200  0.32935501  1
  O  O10  1  0.30328800  0.29688200  0.67064503  1
  O  O11  1  0.30924700  0.30439900  -0.00000000  1
  O  O12  1  0.70311799  0.69671199  0.32935501  1
  O  O13  1  0.70311799  0.69671199  0.67064503  1
  O  O14  1  0.69560099  0.69075299  -0.00000000  1
  O  O15  1  0.80578599  0.19421400  0.50000002  1
  O  O16  1  0.79904699  0.20095300  0.16831301  1
  O  O17  1  0.79904699  0.20095300  0.83168704  1
