# generated using pymatgen
data_Ca5Zr(RuO6)2
_symmetry_space_group_name_H-M   'P 1'
_cell_length_a   5.83309603
_cell_length_b   5.89088583
_cell_length_c   8.28106308
_cell_angle_alpha   90.00000000
_cell_angle_beta   89.56287384
_cell_angle_gamma   90.00000000
_symmetry_Int_Tables_number   1
_chemical_formula_structural   Ca5Zr(RuO6)2
_chemical_formula_sum   'Ca5 Zr1 Ru2 O12'
_cell_volume   284.54645891
_cell_formula_units_Z   1
loop_
 _symmetry_equiv_pos_site_id
 _symmetry_equiv_pos_as_xyz
  1  'x, y, z'
loop_
 _atom_site_type_symbol
 _atom_site_label
 _atom_site_symmetry_multiplicity
 _atom_site_fract_x
 _atom_site_fract_y
 _atom_site_fract_z
 _atom_site_occupancy
  Ca  Ca0  1  0.00858200  0.46355901  0.75083699  1
  Ca  Ca1  1  0.49141800  0.96355903  0.74916299  1
  Ca  Ca2  1  0.50858200  0.03644100  0.25083700  1
  Ca  Ca3  1  0.99141800  0.53644102  0.24916300  1
  Ca  Ca4  1  0.50000000  0.50000001  0.99999999  1
  Zr  Zr5  1  -0.00000000  1.00000003  0.50000000  1
  Ru  Ru6  1  0.00000000  0.00000000  0.00000000  1
  Ru  Ru7  1  0.50000000  0.50000001  0.49999999  1
  O  O8  1  0.27047400  0.19972701  0.96176799  1
  O  O9  1  0.22952600  0.69972702  0.53823199  1
  O  O10  1  0.72952600  0.80027302  0.03823200  1
  O  O11  1  0.77047400  0.30027301  0.46176799  1
  O  O12  1  0.19643100  0.72855402  0.95972599  1
  O  O13  1  0.30356900  0.22855401  0.54027399  1
  O  O14  1  0.80356900  0.27144601  0.04027400  1
  O  O15  1  0.69643100  0.77144602  0.45972599  1
  O  O16  1  0.57370200  0.51854601  0.73420599  1
  O  O17  1  0.92629800  0.01854600  0.76579399  1
  O  O18  1  0.42629800  0.48145401  0.26579400  1
  O  O19  1  0.07370200  0.98145403  0.23420600  1
