# generated using pymatgen
data_Li2FeWO6
_symmetry_space_group_name_H-M   'P 1'
_cell_length_a   5.27094316
_cell_length_b   5.61996412
_cell_length_c   8.21218014
_cell_angle_alpha   90.00000000
_cell_angle_beta   90.51161957
_cell_angle_gamma   90.00000000
_symmetry_Int_Tables_number   1
_chemical_formula_structural   Li2FeWO6
_chemical_formula_sum   'Li4 Fe2 W2 O12'
_cell_volume   243.25570208
_cell_formula_units_Z   2
loop_
 _symmetry_equiv_pos_site_id
 _symmetry_equiv_pos_as_xyz
  1  'x, y, z'
loop_
 _atom_site_type_symbol
 _atom_site_label
 _atom_site_symmetry_multiplicity
 _atom_site_fract_x
 _atom_site_fract_y
 _atom_site_fract_z
 _atom_site_occupancy
  Li  Li0  1  0.49999998  0.00000000  0.50000003  1
  Li  Li1  1  0.49999998  0.00000000  0.00000001  1
  Li  Li2  1  0.00000000  0.49999999  0.50000002  1
  Li  Li3  1  0.00000000  0.49999999  0.00000000  1
  Fe  Fe4  1  0.52002998  0.41826299  0.79220903  1
  Fe  Fe5  1  0.97996997  0.91826298  0.70779104  1
  W  W6  1  0.02003000  0.08173700  0.29220901  1
  W  W7  1  0.47996999  0.58173699  0.20779102  1
  O  O8  1  0.63926298  0.93785398  0.25064402  1
  O  O9  1  0.69635698  0.70342398  0.92842904  1
  O  O10  1  0.70437398  0.71232498  0.57633503  1
  O  O11  1  0.79562598  0.21232500  0.92366504  1
  O  O12  1  0.80364298  0.20342400  0.57157103  1
  O  O13  1  0.86073697  0.43785399  0.24935602  1
  O  O14  1  0.13926300  0.56214599  0.75064403  1
  O  O15  1  0.19635699  0.79657598  0.42842902  1
  O  O16  1  0.20437399  0.78767498  0.07633501  1
  O  O17  1  0.29562599  0.28767499  0.42366502  1
  O  O18  1  0.30364299  0.29657599  0.07157101  1
  O  O19  1  0.36073699  0.06214600  0.74935603  1
