# generated using pymatgen
data_NpNb5Mo8
_symmetry_space_group_name_H-M   'P 1'
_cell_length_a   4.53706121
_cell_length_b   9.45934010
_cell_length_c   9.45934010
_cell_angle_alpha   120.00000000
_cell_angle_beta   90.00000000
_cell_angle_gamma   90.00000000
_symmetry_Int_Tables_number   1
_chemical_formula_structural   NpNb5Mo8
_chemical_formula_sum   'Np1 Nb5 Mo8'
_cell_volume   351.58225780
_cell_formula_units_Z   1
loop_
 _symmetry_equiv_pos_site_id
 _symmetry_equiv_pos_as_xyz
  1  'x, y, z'
loop_
 _atom_site_type_symbol
 _atom_site_label
 _atom_site_symmetry_multiplicity
 _atom_site_fract_x
 _atom_site_fract_y
 _atom_site_fract_z
 _atom_site_occupancy
  Np  Np0  1  0.74999996  0.66666666  0.33333335  1
  Nb  Nb1  1  0.24999999  0.33333333  0.66666668  1
  Nb  Nb2  1  0.74999996  0.17501200  0.14799100  1
  Nb  Nb3  1  0.74999996  0.85200900  0.02702101  1
  Nb  Nb4  1  0.74999996  0.97297900  0.82498803  1
  Nb  Nb5  1  0.24999999  0.82498800  0.85200902  1
  Mo  Mo6  1  0.24999999  0.02702100  0.17501200  1
  Mo  Mo7  1  0.24999999  0.14799100  0.97297902  1
  Mo  Mo8  1  0.74999996  0.65360800  0.70806302  1
  Mo  Mo9  1  0.74999996  0.05445500  0.34639201  1
  Mo  Mo10  1  0.74999996  0.29193700  0.94554502  1
  Mo  Mo11  1  0.24999999  0.34639200  0.29193701  1
  Mo  Mo12  1  0.24999999  0.70806300  0.05445501  1
  Mo  Mo13  1  0.24999999  0.94554500  0.65360802  1
