# generated using pymatgen
data_Li7VO12
_symmetry_space_group_name_H-M   'P 1'
_cell_length_a   5.12821102
_cell_length_b   5.13756561
_cell_length_c   7.98030424
_cell_angle_alpha   71.23056030
_cell_angle_beta   84.28008270
_cell_angle_gamma   71.93561554
_symmetry_Int_Tables_number   1
_chemical_formula_structural   Li7VO12
_chemical_formula_sum   'Li7 V1 O12'
_cell_volume   189.25966039
_cell_formula_units_Z   1
loop_
 _symmetry_equiv_pos_site_id
 _symmetry_equiv_pos_as_xyz
  1  'x, y, z'
loop_
 _atom_site_type_symbol
 _atom_site_label
 _atom_site_symmetry_multiplicity
 _atom_site_fract_x
 _atom_site_fract_y
 _atom_site_fract_z
 _atom_site_occupancy
  Li  Li0  1  0.00018996  0.80079400  0.39863303  1
  Li  Li1  1  0.50021199  0.29941600  0.40142300  1
  Li  Li2  1  0.99858000  0.00101300  0.00528496  1
  Li  Li3  1  0.49860600  0.10630300  0.79464901  1
  Li  Li4  1  0.50052896  0.89860500  0.19354800  1
  Li  Li5  1  0.00055799  0.19200300  0.60663202  1
  Li  Li6  1  0.50227797  0.70300300  0.59334401  1
  V  V7  1  0.49725298  0.50579900  0.99316702  1
  O  O8  1  0.00223498  0.39641000  0.20665201  1
  O  O9  1  0.99720898  0.59912100  0.80686100  1
  O  O10  1  0.24977700  0.05030700  0.40159300  1
  O  O11  1  0.74976598  0.55191000  0.39836799  1
  O  O12  1  0.22863898  0.43910000  0.60546602  1
  O  O13  1  0.72866800  0.14438200  0.19459498  1
  O  O14  1  0.26441897  0.66423400  0.20134301  1
  O  O15  1  0.76443596  0.96554300  0.59859201  1
  O  O16  1  0.76459899  0.33588400  0.78419200  1
  O  O17  1  0.26470199  0.22018800  0.01578300  1
  O  O18  1  0.24373896  0.86840700  0.78925503  1
  O  O19  1  0.74360697  0.75757400  0.01061999  1
