# generated using pymatgen
data_Ce2GaPd3
_symmetry_space_group_name_H-M   'P 1'
_cell_length_a   4.45683098
_cell_length_b   6.88037205
_cell_length_c   7.64251184
_cell_angle_alpha   90.00000000
_cell_angle_beta   90.00000000
_cell_angle_gamma   90.00000000
_symmetry_Int_Tables_number   1
_chemical_formula_structural   Ce2GaPd3
_chemical_formula_sum   'Ce4 Ga2 Pd6'
_cell_volume   234.35499122
_cell_formula_units_Z   2
loop_
 _symmetry_equiv_pos_site_id
 _symmetry_equiv_pos_as_xyz
  1  'x, y, z'
loop_
 _atom_site_type_symbol
 _atom_site_label
 _atom_site_symmetry_multiplicity
 _atom_site_fract_x
 _atom_site_fract_y
 _atom_site_fract_z
 _atom_site_occupancy
  Ce  Ce0  1  0.25000000  0.01489500  0.79847702  1
  Ce  Ce1  1  0.25000000  0.51489500  0.70152301  1
  Ce  Ce2  1  0.75000000  0.98510499  0.20152300  1
  Ce  Ce3  1  0.75000000  0.48510500  0.29847701  1
  Ga  Ga4  1  0.25000000  0.18324300  0.42165701  1
  Pd  Pd5  1  0.25000000  0.68324300  0.07834300  1
  Pd  Pd6  1  0.75000000  0.81675699  0.57834301  1
  Ga  Ga7  1  0.75000000  0.31675700  0.92165702  1
  Pd  Pd8  1  0.25000000  0.78511399  0.40637501  1
  Pd  Pd9  1  0.25000000  0.28511400  0.09362500  1
  Pd  Pd10  1  0.75000000  0.21488600  0.59362501  1
  Pd  Pd11  1  0.75000000  0.71488600  0.90637502  1
