# generated using pymatgen
data_Ce4Fe6(IrRu)5
_symmetry_space_group_name_H-M   'P 1'
_cell_length_a   5.61289787
_cell_length_b   7.84378290
_cell_length_c   7.84378290
_cell_angle_alpha   75.67182922
_cell_angle_beta   69.03529358
_cell_angle_gamma   69.03529358
_symmetry_Int_Tables_number   1
_chemical_formula_structural   Ce4Fe6(IrRu)5
_chemical_formula_sum   'Ce4 Fe6 Ru5 Ir5'
_cell_volume   298.28589482
_cell_formula_units_Z   1
loop_
 _symmetry_equiv_pos_site_id
 _symmetry_equiv_pos_as_xyz
  1  'x, y, z'
loop_
 _atom_site_type_symbol
 _atom_site_label
 _atom_site_symmetry_multiplicity
 _atom_site_fract_x
 _atom_site_fract_y
 _atom_site_fract_z
 _atom_site_occupancy
  Ce  Ce0  1  0.63048800  0.60659602  0.13242800  1
  Ce  Ce1  1  0.36951200  0.39340401  0.86757202  1
  Ce  Ce2  1  0.13048800  0.13242800  0.60659602  1
  Ce  Ce3  1  0.86951200  0.86757203  0.39340401  1
  Fe  Fe4  1  0.24999999  0.50000002  0.50000002  1
  Fe  Fe5  1  0.75000001  0.50000002  0.50000001  1
  Fe  Fe6  1  0.48637699  0.76362303  0.76362302  1
  Fe  Fe7  1  0.01362299  0.23637701  0.23637701  1
  Fe  Fe8  1  0.51362301  0.23637701  0.23637700  1
  Fe  Fe9  1  0.98637700  0.76362303  0.76362301  1
  Ru  Ru10  1  0.89142802  0.25940301  0.95774001  1
  Ru  Ru11  1  0.10857198  0.74059703  0.04226001  1
  Ru  Ru12  1  0.39142898  0.95773903  0.25940301  1
  Ir  Ir13  1  0.60857102  0.04226100  0.74059701  1
  Ir  Ir14  1  0.25000001  0.00000000  -0.00000000  1
  Ir  Ir15  1  0.75000002  0.00000000  -0.00000001  1
  Ru  Ru16  1  0.86648601  0.51784802  0.74917901  1
  Ru  Ru17  1  0.13351399  0.48215202  0.25082101  1
  Ir  Ir18  1  0.36648698  0.74917803  0.51784802  1
  Ir  Ir19  1  0.63351301  0.25082201  0.48215200  1
