# generated using pymatgen
data_Ce3FeB6(RuC)3
_symmetry_space_group_name_H-M   'P 1'
_cell_length_a   5.28656387
_cell_length_b   5.85784721
_cell_length_c   6.31439018
_cell_angle_alpha   90.00000000
_cell_angle_beta   90.00000000
_cell_angle_gamma   90.00000000
_symmetry_Int_Tables_number   1
_chemical_formula_structural   Ce3FeB6(RuC)3
_chemical_formula_sum   'Ce3 Fe1 B6 Ru3 C3'
_cell_volume   195.54329926
_cell_formula_units_Z   1
loop_
 _symmetry_equiv_pos_site_id
 _symmetry_equiv_pos_as_xyz
  1  'x, y, z'
loop_
 _atom_site_type_symbol
 _atom_site_label
 _atom_site_symmetry_multiplicity
 _atom_site_fract_x
 _atom_site_fract_y
 _atom_site_fract_z
 _atom_site_occupancy
  Ce  Ce0  1  0.75000002  0.98869296  0.66440898  1
  Ce  Ce1  1  0.75000002  0.48869298  0.83559098  1
  Ce  Ce2  1  0.25000001  0.01130700  0.33559099  1
  Fe  Fe3  1  0.25000001  0.51130698  0.16440900  1
  B  B4  1  0.91614902  0.63306098  0.46334799  1
  B  B5  1  0.58385101  0.13306100  0.03665200  1
  B  B6  1  0.41614901  0.36693899  0.53665198  1
  B  B7  1  0.08385100  0.86693897  0.96334797  1
  B  B8  1  0.08385100  0.36693899  0.53665198  1
  C  C9  1  0.41614901  0.86693897  0.96334797  1
  C  C10  1  0.58385101  0.63306098  0.46334799  1
  B  B11  1  0.91614902  0.13306100  0.03665200  1
  Ru  Ru12  1  0.75000002  0.81808897  0.18183799  1
  C  C13  1  0.75000002  0.31808899  0.31816199  1
  Ru  Ru14  1  0.25000001  0.18191099  0.81816198  1
  Ru  Ru15  1  0.25000001  0.68191098  0.68183798  1
