# generated using pymatgen
data_KBaBiSbIO3
_symmetry_space_group_name_H-M   'P 1'
_cell_length_a   6.02221489
_cell_length_b   6.18709421
_cell_length_c   6.24395847
_cell_angle_alpha   77.69302368
_cell_angle_beta   70.18257904
_cell_angle_gamma   74.26203918
_symmetry_Int_Tables_number   1
_chemical_formula_structural   KBaBiSbIO3
_chemical_formula_sum   'K1 Ba1 Bi1 Sb1 I1 O3'
_cell_volume   208.77151945
_cell_formula_units_Z   1
loop_
 _symmetry_equiv_pos_site_id
 _symmetry_equiv_pos_as_xyz
  1  'x, y, z'
loop_
 _atom_site_type_symbol
 _atom_site_label
 _atom_site_symmetry_multiplicity
 _atom_site_fract_x
 _atom_site_fract_y
 _atom_site_fract_z
 _atom_site_occupancy
  K  K0  1  0.66144396  0.67784601  0.64852600  1
  Ba  Ba1  1  0.33855598  0.32215400  0.35147400  1
  Bi  Bi2  1  0.78790294  0.99988301  0.00874000  1
  Sb  Sb3  1  0.21209700  0.00011700  0.99126000  1
  I  I4  1  0.18329795  0.86348001  0.40080096  1
  O  O5  1  0.81670199  0.13652000  0.59919904  1
  O  O6  1  0.79331596  0.58993501  0.11473302  1
  O  O7  1  0.20668398  0.41006501  0.88526698  1
