# generated using pymatgen
data_CeMgGa4
_symmetry_space_group_name_H-M   'P 1'
_cell_length_a   4.47867584
_cell_length_b   5.60074043
_cell_length_c   5.60074043
_cell_angle_alpha   77.38881683
_cell_angle_beta   66.43251801
_cell_angle_gamma   66.43251801
_symmetry_Int_Tables_number   1
_chemical_formula_structural   CeMgGa4
_chemical_formula_sum   'Ce1 Mg1 Ga4'
_cell_volume   117.74330301
_cell_formula_units_Z   1
loop_
 _symmetry_equiv_pos_site_id
 _symmetry_equiv_pos_as_xyz
  1  'x, y, z'
loop_
 _atom_site_type_symbol
 _atom_site_label
 _atom_site_symmetry_multiplicity
 _atom_site_fract_x
 _atom_site_fract_y
 _atom_site_fract_z
 _atom_site_occupancy
  Ce  Ce0  1  0.46924302  0.28075699  0.78075701  1
  Mg  Mg1  1  0.53075703  0.71924296  0.21924306  1
  Ga  Ga2  1  0.83348803  0.70950196  0.62352105  1
  Ga  Ga3  1  0.16651201  0.29049799  0.37647901  1
  Ga  Ga4  1  0.16651103  0.87647995  0.79049803  1
  Ga  Ga5  1  0.83348902  0.12351999  0.20950203  1
