# generated using pymatgen
data_CeMnP4
_symmetry_space_group_name_H-M   'P 1'
_cell_length_a   3.92851710
_cell_length_b   6.52249098
_cell_length_c   7.47706509
_cell_angle_alpha   90.00000000
_cell_angle_beta   90.00000000
_cell_angle_gamma   90.00000000
_symmetry_Int_Tables_number   1
_chemical_formula_structural   CeMnP4
_chemical_formula_sum   'Ce2 Mn2 P8'
_cell_volume   191.59020248
_cell_formula_units_Z   2
loop_
 _symmetry_equiv_pos_site_id
 _symmetry_equiv_pos_as_xyz
  1  'x, y, z'
loop_
 _atom_site_type_symbol
 _atom_site_label
 _atom_site_symmetry_multiplicity
 _atom_site_fract_x
 _atom_site_fract_y
 _atom_site_fract_z
 _atom_site_occupancy
  Ce  Ce0  1  0.74999998  0.52629800  0.82141099  1
  Ce  Ce1  1  0.24999999  0.97370200  0.32141100  1
  Mn  Mn2  1  0.74999998  0.02629800  0.67858899  1
  Mn  Mn3  1  0.24999999  0.47370200  0.17858900  1
  P  P4  1  0.24999999  0.24058100  0.87665399  1
  P  P5  1  0.24999999  0.74058100  0.62334599  1
  P  P6  1  0.74999998  0.75941900  0.12334600  1
  P  P7  1  0.74999998  0.25941900  0.37665400  1
  P  P8  1  0.24999999  0.85612800  0.93860099  1
  P  P9  1  0.24999999  0.35612800  0.56139899  1
  P  P10  1  0.74999998  0.64387200  0.43860099  1
  P  P11  1  0.74999998  0.14387200  0.06139900  1
