# generated using pymatgen
data_UFe2RuS3
_symmetry_space_group_name_H-M   'P 1'
_cell_length_a   6.26348543
_cell_length_b   6.26692152
_cell_length_c   7.68949318
_cell_angle_alpha   66.06425476
_cell_angle_beta   66.03881836
_cell_angle_gamma   89.89421844
_symmetry_Int_Tables_number   1
_chemical_formula_structural   UFe2RuS3
_chemical_formula_sum   'U1 Fe2 Ru1 S3'
_cell_volume   247.25915934
_cell_formula_units_Z   1
loop_
 _symmetry_equiv_pos_site_id
 _symmetry_equiv_pos_as_xyz
  1  'x, y, z'
loop_
 _atom_site_type_symbol
 _atom_site_label
 _atom_site_symmetry_multiplicity
 _atom_site_fract_x
 _atom_site_fract_y
 _atom_site_fract_z
 _atom_site_occupancy
  U  U0  1  0.27727597  0.74558501  0.47340101  1
  Fe  Fe1  1  0.00498600  0.01882900  0.01674400  1
  Fe  Fe2  1  0.47143696  0.48109501  0.01087002  1
  Ru  Ru3  1  0.61920796  0.16897000  0.25551303  1
  S  S4  1  0.10623298  0.58805301  0.25215200  1
  S  S5  1  0.41667197  0.37579501  0.73933003  1
  S  S6  1  0.85418894  0.87167301  0.75199005  1
