# generated using pymatgen
data_NbFe5CoMo7Ru2
_symmetry_space_group_name_H-M   'P 1'
_cell_length_a   6.34477091
_cell_length_b   8.00435829
_cell_length_c   8.00435734
_cell_angle_alpha   120.00000000
_cell_angle_beta   90.00000000
_cell_angle_gamma   90.00000000
_symmetry_Int_Tables_number   1
_chemical_formula_structural   NbFe5CoMo7Ru2
_chemical_formula_sum   'Nb1 Fe5 Co1 Mo7 Ru2'
_cell_volume   352.04612321
_cell_formula_units_Z   1
loop_
 _symmetry_equiv_pos_site_id
 _symmetry_equiv_pos_as_xyz
  1  'x, y, z'
loop_
 _atom_site_type_symbol
 _atom_site_label
 _atom_site_symmetry_multiplicity
 _atom_site_fract_x
 _atom_site_fract_y
 _atom_site_fract_z
 _atom_site_occupancy
  Nb  Nb0  1  0.75000001  0.33333332  0.66666669  1
  Fe  Fe1  1  0.25000000  0.66666663  0.33333333  1
  Fe  Fe2  1  0.75000001  0.83380696  0.17880599  1
  Fe  Fe3  1  0.75000001  0.34499898  0.16619300  1
  Fe  Fe4  1  0.25000000  0.65500097  0.82119402  1
  Fe  Fe5  1  0.75000001  0.82119396  0.65500101  1
  Mo  Mo6  1  0.25000000  0.17880599  0.83380703  1
  Mo  Mo7  1  0.25000000  0.16619299  0.34499901  1
  Ru  Ru8  1  0.75000001  0.66666663  0.33333333  1
  Co  Co9  1  0.25000000  0.33333332  0.66666669  1
  Mo  Mo10  1  -0.00000000  0.60793097  0.60793101  1
  Mo  Mo11  1  1.00000001  0.00000000  0.39206902  1
  Ru  Ru12  1  0.50000001  0.60793097  0.60793101  1
  Mo  Mo13  1  -0.00000000  0.39206898  -0.00000001  1
  Mo  Mo14  1  0.50000001  0.00000000  0.39206902  1
  Mo  Mo15  1  0.50000001  0.39206898  -0.00000001  1
