# generated using pymatgen
data_BaLaSbO4
_symmetry_space_group_name_H-M   'P 1'
_cell_length_a   4.22392416
_cell_length_b   4.22392416
_cell_length_c   7.35421848
_cell_angle_alpha   106.68901825
_cell_angle_beta   106.68901825
_cell_angle_gamma   90.00000000
_symmetry_Int_Tables_number   1
_chemical_formula_structural   BaLaSbO4
_chemical_formula_sum   'Ba1 La1 Sb1 O4'
_cell_volume   119.90223698
_cell_formula_units_Z   1
loop_
 _symmetry_equiv_pos_site_id
 _symmetry_equiv_pos_as_xyz
  1  'x, y, z'
loop_
 _atom_site_type_symbol
 _atom_site_label
 _atom_site_symmetry_multiplicity
 _atom_site_fract_x
 _atom_site_fract_y
 _atom_site_fract_z
 _atom_site_occupancy
  La  La0  1  0.64551997  0.64551997  0.29103999  1
  Ba  Ba1  1  0.35447998  0.35447998  0.70895999  1
  Sb  Sb2  1  0.00000000  0.00000000  0.00000000  1
  O  O3  1  0.84431896  0.84431896  0.68863799  1
  O  O4  1  0.15568099  0.15568099  0.31136200  1
  O  O5  1  -0.00000000  0.49999998  -0.00000001  1
  O  O6  1  0.49999998  0.00000000  -0.00000000  1
