# generated using pymatgen
data_Al
_symmetry_space_group_name_H-M   'P 1'
_cell_length_a   4.09993601
_cell_length_b   4.42535114
_cell_length_c   11.70174313
_cell_angle_alpha   90.00000000
_cell_angle_beta   90.00000000
_cell_angle_gamma   90.00000000
_symmetry_Int_Tables_number   1
_chemical_formula_structural   Al
_chemical_formula_sum   Al8
_cell_volume   212.31240774
_cell_formula_units_Z   8
loop_
 _symmetry_equiv_pos_site_id
 _symmetry_equiv_pos_as_xyz
  1  'x, y, z'
loop_
 _atom_site_type_symbol
 _atom_site_label
 _atom_site_symmetry_multiplicity
 _atom_site_fract_x
 _atom_site_fract_y
 _atom_site_fract_z
 _atom_site_occupancy
  Al  Al0  1  0.50000000  0.37013999  0.37296700  1
  Al  Al1  1  0.50000000  0.62985998  0.87296699  1
  Al  Al2  1  -0.00000000  0.13994100  0.61751699  1
  Al  Al3  1  0.00000000  0.86005897  0.11751700  1
  Al  Al4  1  0.00000000  0.24198799  0.85543599  1
  Al  Al5  1  -0.00000000  0.75801198  0.35543600  1
  Al  Al6  1  0.50000000  0.28633499  0.15408100  1
  Al  Al7  1  0.50000000  0.71366498  0.65408099  1
