# generated using pymatgen
data_CeSi4
_symmetry_space_group_name_H-M   'P 1'
_cell_length_a   4.34475803
_cell_length_b   4.34475803
_cell_length_c   5.89326572
_cell_angle_alpha   111.63056946
_cell_angle_beta   111.63056946
_cell_angle_gamma   90.00000000
_symmetry_Int_Tables_number   1
_chemical_formula_structural   CeSi4
_chemical_formula_sum   'Ce1 Si4'
_cell_volume   94.93444312
_cell_formula_units_Z   1
loop_
 _symmetry_equiv_pos_site_id
 _symmetry_equiv_pos_as_xyz
  1  'x, y, z'
loop_
 _atom_site_type_symbol
 _atom_site_label
 _atom_site_symmetry_multiplicity
 _atom_site_fract_x
 _atom_site_fract_y
 _atom_site_fract_z
 _atom_site_occupancy
  Ce  Ce0  1  0.00000000  0.00000000  0.00000000  1
  Si  Si1  1  0.24999999  0.74999999  0.49999998  1
  Si  Si2  1  0.74999999  0.25000000  0.49999998  1
  Si  Si3  1  0.63736898  0.63736899  0.27473798  1
  Si  Si4  1  0.36263099  0.36263099  0.72526198  1
