# generated using pymatgen
data_Li5MnO2
_symmetry_space_group_name_H-M   'P 1'
_cell_length_a   3.60405087
_cell_length_b   6.35451746
_cell_length_c   6.89740038
_cell_angle_alpha   73.77085876
_cell_angle_beta   89.97212219
_cell_angle_gamma   89.77883911
_symmetry_Int_Tables_number   1
_chemical_formula_structural   Li5MnO2
_chemical_formula_sum   'Li5 Mn1 O2'
_cell_volume   151.66851951
_cell_formula_units_Z   1
loop_
 _symmetry_equiv_pos_site_id
 _symmetry_equiv_pos_as_xyz
  1  'x, y, z'
loop_
 _atom_site_type_symbol
 _atom_site_label
 _atom_site_symmetry_multiplicity
 _atom_site_fract_x
 _atom_site_fract_y
 _atom_site_fract_z
 _atom_site_occupancy
  Li  Li0  1  0.61653801  0.07385700  0.32829802  1
  Li  Li1  1  0.87301597  0.44228500  0.85990803  1
  Li  Li2  1  0.37227194  0.55758200  0.64054602  1
  O  O3  1  0.11735189  0.92576101  0.17173900  1
  Li  Li4  1  0.38415290  0.92615001  0.67188102  1
  Li  Li5  1  0.12630594  0.55761200  0.14011900  1
  O  O6  1  0.62710796  0.44242100  0.35936802  1
  Mn  Mn7  1  0.88325502  0.07433200  0.82814203  1
