# generated using pymatgen
data_Ba3CaBi2TeO13
_symmetry_space_group_name_H-M   'P 1'
_cell_length_a   2.94113111
_cell_length_b   9.49382782
_cell_length_c   9.49382782
_cell_angle_alpha   90.00000000
_cell_angle_beta   90.00000000
_cell_angle_gamma   90.00000000
_symmetry_Int_Tables_number   1
_chemical_formula_structural   Ba3CaBi2TeO13
_chemical_formula_sum   'Ba3 Ca1 Bi2 Te1 O13'
_cell_volume   265.09228454
_cell_formula_units_Z   1
loop_
 _symmetry_equiv_pos_site_id
 _symmetry_equiv_pos_as_xyz
  1  'x, y, z'
loop_
 _atom_site_type_symbol
 _atom_site_label
 _atom_site_symmetry_multiplicity
 _atom_site_fract_x
 _atom_site_fract_y
 _atom_site_fract_z
 _atom_site_occupancy
  Ca  Ca0  1  0.99999996  0.82487902  0.32487901  1
  Ba  Ba1  1  0.99999996  0.17512100  0.67512101  1
  Ba  Ba2  1  0.00000000  0.32487901  0.17512100  1
  Ba  Ba3  1  0.00000000  0.67512101  0.82487902  1
  Bi  Bi4  1  0.99999996  0.50000001  0.50000001  1
  Bi  Bi5  1  0.00000000  0.00000000  0.00000000  1
  O  O6  1  0.99999996  0.62685201  0.12685200  1
  Te  Te7  1  0.99999996  0.37314801  0.87314802  1
  O  O8  1  0.99999996  0.12685200  0.37314801  1
  O  O9  1  0.99999996  0.87314802  0.62685201  1
  O  O10  1  0.49999998  0.50000001  0.00000000  1
  O  O11  1  0.49999998  0.00000000  0.50000001  1
  O  O12  1  0.49999998  0.71484501  0.57193401  1
  O  O13  1  0.49999998  0.28515501  0.42806601  1
  O  O14  1  0.49999998  0.21484500  0.92806602  1
  O  O15  1  0.49999998  0.78515501  0.07193400  1
  O  O16  1  0.49999998  0.42806601  0.71484501  1
  O  O17  1  0.49999998  0.57193401  0.28515501  1
  O  O18  1  0.49999998  0.07193400  0.21484500  1
  O  O19  1  0.49999998  0.92806602  0.78515501  1
