# generated using pymatgen
data_LiV2GeP
_symmetry_space_group_name_H-M   'P 1'
_cell_length_a   3.92039609
_cell_length_b   3.92039609
_cell_length_c   5.66802311
_cell_angle_alpha   110.23274994
_cell_angle_beta   110.23274994
_cell_angle_gamma   90.00000000
_symmetry_Int_Tables_number   1
_chemical_formula_structural   LiV2GeP
_chemical_formula_sum   'Li1 V2 Ge1 P1'
_cell_volume   75.98465052
_cell_formula_units_Z   1
loop_
 _symmetry_equiv_pos_site_id
 _symmetry_equiv_pos_as_xyz
  1  'x, y, z'
loop_
 _atom_site_type_symbol
 _atom_site_label
 _atom_site_symmetry_multiplicity
 _atom_site_fract_x
 _atom_site_fract_y
 _atom_site_fract_z
 _atom_site_occupancy
  Li  Li0  1  0.00000000  0.00000000  0.00000000  1
  V  V1  1  0.25000004  0.75000001  0.50000005  1
  V  V2  1  0.75000001  0.25000000  0.50000004  1
  Ge  Ge3  1  0.63089403  0.63089400  0.26178806  1
  P  P4  1  0.36910602  0.36910600  0.73821202  1
