# generated using pymatgen
data_Dy2Lu4Pd3
_symmetry_space_group_name_H-M   'P 1'
_cell_length_a   4.08151102
_cell_length_b   7.65664387
_cell_length_c   7.65664291
_cell_angle_alpha   120.00000763
_cell_angle_beta   90.00000000
_cell_angle_gamma   90.00000000
_symmetry_Int_Tables_number   1
_chemical_formula_structural   Dy2Lu4Pd3
_chemical_formula_sum   'Dy2 Lu4 Pd3'
_cell_volume   207.21844591
_cell_formula_units_Z   1
loop_
 _symmetry_equiv_pos_site_id
 _symmetry_equiv_pos_as_xyz
  1  'x, y, z'
loop_
 _atom_site_type_symbol
 _atom_site_label
 _atom_site_symmetry_multiplicity
 _atom_site_fract_x
 _atom_site_fract_y
 _atom_site_fract_z
 _atom_site_occupancy
  Dy  Dy0  1  -0.00000000  0.59127703  1.00000004  1
  Dy  Dy1  1  -0.00000000  0.40872302  0.40872303  1
  Lu  Lu2  1  0.99999999  1.00000005  0.59127707  1
  Lu  Lu3  1  0.50000000  0.24930301  0.00000002  1
  Lu  Lu4  1  0.50000000  0.75069704  0.75069705  1
  Lu  Lu5  1  0.50000000  1.00000005  0.24930306  1
  Pd  Pd6  1  0.50000000  0.33333335  0.66666669  1
  Pd  Pd7  1  0.50000000  0.66666670  0.33333338  1
  Pd  Pd8  1  0.00000000  0.00000000  0.00000000  1
