# generated using pymatgen
data_CeGa4
_symmetry_space_group_name_H-M   'P 1'
_cell_length_a   4.66797209
_cell_length_b   4.66797209
_cell_length_c   6.43914938
_cell_angle_alpha   111.25184631
_cell_angle_beta   111.25184631
_cell_angle_gamma   90.00000000
_symmetry_Int_Tables_number   1
_chemical_formula_structural   CeGa4
_chemical_formula_sum   'Ce1 Ga4'
_cell_volume   120.47241567
_cell_formula_units_Z   1
loop_
 _symmetry_equiv_pos_site_id
 _symmetry_equiv_pos_as_xyz
  1  'x, y, z'
loop_
 _atom_site_type_symbol
 _atom_site_label
 _atom_site_symmetry_multiplicity
 _atom_site_fract_x
 _atom_site_fract_y
 _atom_site_fract_z
 _atom_site_occupancy
  Ce  Ce0  1  0.00000000  0.00000000  0.00000000  1
  Ga  Ga1  1  0.25000000  0.74999999  0.50000000  1
  Ga  Ga2  1  0.74999999  0.25000000  0.50000000  1
  Ga  Ga3  1  0.61225199  0.61225199  0.22450400  1
  Ga  Ga4  1  0.38774800  0.38774799  0.77549600  1
