# generated using pymatgen
data_Li(MgCu)2
_symmetry_space_group_name_H-M   'P 1'
_cell_length_a   4.29119778
_cell_length_b   4.29119825
_cell_length_c   6.87576723
_cell_angle_alpha   90.00000000
_cell_angle_beta   90.00000000
_cell_angle_gamma   120.00000000
_symmetry_Int_Tables_number   1
_chemical_formula_structural   Li(MgCu)2
_chemical_formula_sum   'Li1 Mg2 Cu2'
_cell_volume   109.65006871
_cell_formula_units_Z   1
loop_
 _symmetry_equiv_pos_site_id
 _symmetry_equiv_pos_as_xyz
  1  'x, y, z'
loop_
 _atom_site_type_symbol
 _atom_site_label
 _atom_site_symmetry_multiplicity
 _atom_site_fract_x
 _atom_site_fract_y
 _atom_site_fract_z
 _atom_site_occupancy
  Li  Li0  1  0.00000000  0.00000000  0.00000000  1
  Mg  Mg1  1  0.33333340  0.66666672  0.64210598  1
  Mg  Mg2  1  0.66666672  0.33333336  0.35789399  1
  Cu  Cu3  1  0.33333340  0.66666672  0.26435599  1
  Cu  Cu4  1  0.66666672  0.33333336  0.73564398  1
