# generated using pymatgen
data_Nd2NiGe5
_symmetry_space_group_name_H-M   'P 1'
_cell_length_a   4.06612110
_cell_length_b   4.16913605
_cell_length_c   8.49376869
_cell_angle_alpha   104.20684814
_cell_angle_beta   90.00000000
_cell_angle_gamma   90.00000000
_symmetry_Int_Tables_number   1
_chemical_formula_structural   Nd2NiGe5
_chemical_formula_sum   'Nd2 Ni1 Ge5'
_cell_volume   139.58443723
_cell_formula_units_Z   1
loop_
 _symmetry_equiv_pos_site_id
 _symmetry_equiv_pos_as_xyz
  1  'x, y, z'
loop_
 _atom_site_type_symbol
 _atom_site_label
 _atom_site_symmetry_multiplicity
 _atom_site_fract_x
 _atom_site_fract_y
 _atom_site_fract_z
 _atom_site_occupancy
  Nd  Nd0  1  0.74999998  0.89337900  0.78675807  1
  Nd  Nd1  1  0.24999999  0.10662100  0.21324201  1
  Ni  Ni2  1  0.74999998  0.25005000  0.50010003  1
  Ge  Ge3  1  0.24999999  0.74995000  0.49990005  1
  Ge  Ge4  1  0.24999999  0.45904700  0.91809406  1
  Ge  Ge5  1  0.74999998  0.54095300  0.08190602  1
  Ge  Ge6  1  0.24999999  0.31828500  0.63657004  1
  Ge  Ge7  1  0.74999998  0.68171500  0.36343004  1
