# generated using pymatgen
data_LiAlCu
_symmetry_space_group_name_H-M   'P 1'
_cell_length_a   3.92137194
_cell_length_b   5.08429623
_cell_length_c   5.08429623
_cell_angle_alpha   60.00000381
_cell_angle_beta   90.00000000
_cell_angle_gamma   90.00000000
_symmetry_Int_Tables_number   1
_chemical_formula_structural   LiAlCu
_chemical_formula_sum   'Li2 Al2 Cu2'
_cell_volume   87.78703414
_cell_formula_units_Z   2
loop_
 _symmetry_equiv_pos_site_id
 _symmetry_equiv_pos_as_xyz
  1  'x, y, z'
loop_
 _atom_site_type_symbol
 _atom_site_label
 _atom_site_symmetry_multiplicity
 _atom_site_fract_x
 _atom_site_fract_y
 _atom_site_fract_z
 _atom_site_occupancy
  Li  Li0  1  0.00000000  0.00000000  0.00000000  1
  Li  Li1  1  1.00000002  0.33333332  0.33333335  1
  Al  Al2  1  -0.00000000  0.66666663  0.66666671  1
  Cu  Cu3  1  0.50000001  0.00000000  0.50000002  1
  Al  Al4  1  0.50000001  0.49999997  0.00000001  1
  Cu  Cu5  1  0.50000001  0.49999997  0.50000003  1
