# generated using pymatgen
data_CeAlSi4
_symmetry_space_group_name_H-M   'P 1'
_cell_length_a   3.77747107
_cell_length_b   6.45342016
_cell_length_c   7.36793900
_cell_angle_alpha   90.00000000
_cell_angle_beta   90.00000000
_cell_angle_gamma   90.00000000
_symmetry_Int_Tables_number   1
_chemical_formula_structural   CeAlSi4
_chemical_formula_sum   'Ce2 Al2 Si8'
_cell_volume   179.61272813
_cell_formula_units_Z   2
loop_
 _symmetry_equiv_pos_site_id
 _symmetry_equiv_pos_as_xyz
  1  'x, y, z'
loop_
 _atom_site_type_symbol
 _atom_site_label
 _atom_site_symmetry_multiplicity
 _atom_site_fract_x
 _atom_site_fract_y
 _atom_site_fract_z
 _atom_site_occupancy
  Ce  Ce0  1  0.74999999  0.47450499  0.32657400  1
  Ce  Ce1  1  0.25000000  0.02549500  0.82657400  1
  Al  Al2  1  0.74999999  0.97450498  0.17342600  1
  Al  Al3  1  0.25000000  0.52549499  0.67342600  1
  Si  Si4  1  0.25000000  0.26873499  0.12458900  1
  Si  Si5  1  0.25000000  0.76873498  0.37541100  1
  Si  Si6  1  0.74999999  0.73126498  0.87541100  1
  Si  Si7  1  0.74999999  0.23126499  0.62458900  1
  Si  Si8  1  0.25000000  0.64525798  0.06254700  1
  Si  Si9  1  0.25000000  0.14525800  0.43745300  1
  Si  Si10  1  0.74999999  0.85474198  0.56254700  1
  Si  Si11  1  0.74999999  0.35474199  0.93745300  1
