# generated using pymatgen
data_Nd2HfZr4SnRh8
_symmetry_space_group_name_H-M   'P 1'
_cell_length_a   6.15561390
_cell_length_b   6.15561295
_cell_length_c   9.52994442
_cell_angle_alpha   90.00000000
_cell_angle_beta   90.00000000
_cell_angle_gamma   120.00000763
_symmetry_Int_Tables_number   1
_chemical_formula_structural   Nd2HfZr4SnRh8
_chemical_formula_sum   'Nd2 Hf1 Zr4 Sn1 Rh8'
_cell_volume   312.72574947
_cell_formula_units_Z   1
loop_
 _symmetry_equiv_pos_site_id
 _symmetry_equiv_pos_as_xyz
  1  'x, y, z'
loop_
 _atom_site_type_symbol
 _atom_site_label
 _atom_site_symmetry_multiplicity
 _atom_site_fract_x
 _atom_site_fract_y
 _atom_site_fract_z
 _atom_site_occupancy
  Hf  Hf0  1  0.00000000  0.00000000  0.49999998  1
  Zr  Zr1  1  0.00000000  0.00000000  0.00000000  1
  Nd  Nd2  1  0.66666669  0.33333335  0.74999997  1
  Nd  Nd3  1  0.33333337  0.66666669  0.24999999  1
  Zr  Zr4  1  0.50000001  0.00000000  0.49999998  1
  Zr  Zr5  1  0.50000003  0.50000002  0.49999998  1
  Sn  Sn6  1  0.00000003  0.50000002  0.49999998  1
  Zr  Zr7  1  0.50000001  0.00000000  -0.00000000  1
  Rh  Rh8  1  0.50000003  0.50000002  -0.00000000  1
  Rh  Rh9  1  0.00000003  0.50000002  0.99999996  1
  Rh  Rh10  1  0.18555904  0.81444103  0.74999997  1
  Rh  Rh11  1  0.62888205  0.81444103  0.74999997  1
  Rh  Rh12  1  0.18555902  0.37111802  0.74999997  1
  Rh  Rh13  1  0.81444102  0.18555901  0.24999999  1
  Rh  Rh14  1  0.37111802  0.18555901  0.24999999  1
  Rh  Rh15  1  0.81444105  0.62888203  0.24999999  1
