# generated using pymatgen
data_Hf5Ta5GaNi7
_symmetry_space_group_name_H-M   'P 1'
_cell_length_a   5.48639107
_cell_length_b   8.25239182
_cell_length_c   8.25239182
_cell_angle_alpha   120.00000000
_cell_angle_beta   90.00000000
_cell_angle_gamma   90.00000000
_symmetry_Int_Tables_number   1
_chemical_formula_structural   Hf5Ta5GaNi7
_chemical_formula_sum   'Hf5 Ta5 Ga1 Ni7'
_cell_volume   323.57657345
_cell_formula_units_Z   1
loop_
 _symmetry_equiv_pos_site_id
 _symmetry_equiv_pos_as_xyz
  1  'x, y, z'
loop_
 _atom_site_type_symbol
 _atom_site_label
 _atom_site_symmetry_multiplicity
 _atom_site_fract_x
 _atom_site_fract_y
 _atom_site_fract_z
 _atom_site_occupancy
  Ta  Ta0  1  0.25000000  0.75441401  0.75441400  1
  Ta  Ta1  1  0.74999999  0.24558600  0.24558600  1
  Ta  Ta2  1  0.25000000  1.00000002  0.24558599  1
  Ta  Ta3  1  0.74999999  1.00000002  0.75441400  1
  Ta  Ta4  1  0.25000000  0.24558600  -0.00000000  1
  Hf  Hf5  1  0.74999999  0.75441401  -0.00000001  1
  Hf  Hf6  1  0.49999999  0.66666668  0.33333333  1
  Hf  Hf7  1  0.49999999  0.33333334  0.66666667  1
  Hf  Hf8  1  0.99999999  0.33333334  0.66666667  1
  Hf  Hf9  1  -0.00000000  0.66666668  0.33333333  1
  Ni  Ni10  1  0.49999999  0.00000000  -0.00000000  1
  Ni  Ni11  1  0.00000000  0.00000000  0.00000000  1
  Ni  Ni12  1  0.25000000  0.39480601  0.39480600  1
  Ni  Ni13  1  0.74999999  0.60519401  0.60519400  1
  Ni  Ni14  1  0.25000000  1.00000002  0.60519400  1
  Ga  Ga15  1  0.74999999  1.00000002  0.39480600  1
  Ni  Ni16  1  0.25000000  0.60519401  1.00000001  1
  Ni  Ni17  1  0.74999999  0.39480601  -0.00000000  1
