# generated using pymatgen
data_Ce2GaPd5
_symmetry_space_group_name_H-M   'P 1'
_cell_length_a   5.07577991
_cell_length_b   5.33798599
_cell_length_c   5.83009005
_cell_angle_alpha   90.00000000
_cell_angle_beta   90.00000000
_cell_angle_gamma   90.00000000
_symmetry_Int_Tables_number   1
_chemical_formula_structural   Ce2GaPd5
_chemical_formula_sum   'Ce2 Ga1 Pd5'
_cell_volume   157.96303711
_cell_formula_units_Z   1
loop_
 _symmetry_equiv_pos_site_id
 _symmetry_equiv_pos_as_xyz
  1  'x, y, z'
loop_
 _atom_site_type_symbol
 _atom_site_label
 _atom_site_symmetry_multiplicity
 _atom_site_fract_x
 _atom_site_fract_y
 _atom_site_fract_z
 _atom_site_occupancy
  Ce  Ce0  1  0.00000000  0.34372500  0.00000000  1
  Ce  Ce1  1  0.50000001  0.65627500  0.50000000  1
  Ga  Ga2  1  0.50000001  0.16311100  0.75233299  1
  Pd  Pd3  1  0.00000000  0.83688900  0.25233300  1
  Pd  Pd4  1  0.00000000  0.83688900  0.74766699  1
  Pd  Pd5  1  0.50000001  0.16311100  0.24766700  1
  Pd  Pd6  1  0.00000000  0.32995200  0.50000000  1
  Pd  Pd7  1  0.50000001  0.67004800  0.00000000  1
