# generated using pymatgen
data_Cs5BiTeO6
_symmetry_space_group_name_H-M   'P 1'
_cell_length_a   7.20299959
_cell_length_b   7.20299959
_cell_length_c   8.08145428
_cell_angle_alpha   98.59381866
_cell_angle_beta   98.59381866
_cell_angle_gamma   119.83949280
_symmetry_Int_Tables_number   1
_chemical_formula_structural   Cs5BiTeO6
_chemical_formula_sum   'Cs5 Bi1 Te1 O6'
_cell_volume   347.16337093
_cell_formula_units_Z   1
loop_
 _symmetry_equiv_pos_site_id
 _symmetry_equiv_pos_as_xyz
  1  'x, y, z'
loop_
 _atom_site_type_symbol
 _atom_site_label
 _atom_site_symmetry_multiplicity
 _atom_site_fract_x
 _atom_site_fract_y
 _atom_site_fract_z
 _atom_site_occupancy
  Cs  Cs0  1  0.32685005  0.67315004  -0.00000000  1
  Cs  Cs1  1  0.67317304  0.32682702  -0.00000001  1
  Cs  Cs2  1  0.99999703  0.00000300  -0.00000001  1
  Cs  Cs3  1  0.16602705  0.83397305  0.49999997  1
  Cs  Cs4  1  0.83403403  0.16596601  0.49999997  1
  Te  Te5  1  0.44862204  0.44869303  0.34139398  1
  Bi  Bi6  1  0.55130705  0.55137803  0.65860596  1
  O  O7  1  0.09904203  0.41606202  0.25067499  1
  O  O8  1  0.41977902  0.10090901  0.25032798  1
  O  O9  1  0.89909106  0.58022103  0.74967195  1
  O  O10  1  0.58393807  0.90095805  0.74932496  1
  O  O11  1  0.73344806  0.73530904  0.25031898  1
  O  O12  1  0.26469102  0.26655202  0.74968096  1
