# generated using pymatgen
data_PrTiSnO4
_symmetry_space_group_name_H-M   'P 1'
_cell_length_a   5.33321714
_cell_length_b   5.33321714
_cell_length_c   5.49196434
_cell_angle_alpha   60.95167160
_cell_angle_beta   60.95167160
_cell_angle_gamma   60.00001144
_symmetry_Int_Tables_number   1
_chemical_formula_structural   PrTiSnO4
_chemical_formula_sum   'Pr1 Ti1 Sn1 O4'
_cell_volume   112.01878806
_cell_formula_units_Z   1
loop_
 _symmetry_equiv_pos_site_id
 _symmetry_equiv_pos_as_xyz
  1  'x, y, z'
loop_
 _atom_site_type_symbol
 _atom_site_label
 _atom_site_symmetry_multiplicity
 _atom_site_fract_x
 _atom_site_fract_y
 _atom_site_fract_z
 _atom_site_occupancy
  Ti  Ti0  1  0.50000004  0.50000000  0.49999996  1
  Pr  Pr1  1  0.00000000  0.00000000  0.00000000  1
  Sn  Sn2  1  0.00000000  0.00000000  0.49999999  1
  O  O3  1  0.50000001  0.00000000  0.49999998  1
  O  O4  1  0.00000003  0.50000000  0.49999997  1
  O  O5  1  0.72293506  0.72293500  0.83119495  1
  O  O6  1  0.27706502  0.27706500  0.16880498  1
