# generated using pymatgen
data_LiCu2
_symmetry_space_group_name_H-M   'P 1'
_cell_length_a   4.13756180
_cell_length_b   5.16015005
_cell_length_c   5.16015100
_cell_angle_alpha   60.00000381
_cell_angle_beta   90.00000000
_cell_angle_gamma   90.00000000
_symmetry_Int_Tables_number   1
_chemical_formula_structural   LiCu2
_chemical_formula_sum   'Li2 Cu4'
_cell_volume   95.41131537
_cell_formula_units_Z   2
loop_
 _symmetry_equiv_pos_site_id
 _symmetry_equiv_pos_as_xyz
  1  'x, y, z'
loop_
 _atom_site_type_symbol
 _atom_site_label
 _atom_site_symmetry_multiplicity
 _atom_site_fract_x
 _atom_site_fract_y
 _atom_site_fract_z
 _atom_site_occupancy
  Li  Li0  1  0.00000000  0.00000000  0.00000000  1
  Li  Li1  1  0.50000002  0.00000000  0.49999999  1
  Cu  Cu2  1  0.50000002  0.50000000  0.49999997  1
  Cu  Cu3  1  0.00000000  0.66666667  0.66666663  1
  Cu  Cu4  1  0.50000002  0.50000000  -0.00000002  1
  Cu  Cu5  1  1.00000005  0.33333334  0.33333331  1
