# generated using pymatgen
data_Ca2MgGePd2
_symmetry_space_group_name_H-M   'P 1'
_cell_length_a   4.32546902
_cell_length_b   7.31456614
_cell_length_c   8.63142681
_cell_angle_alpha   90.00000000
_cell_angle_beta   90.00000000
_cell_angle_gamma   90.00000000
_symmetry_Int_Tables_number   1
_chemical_formula_structural   Ca2MgGePd2
_chemical_formula_sum   'Ca4 Mg2 Ge2 Pd4'
_cell_volume   273.08910170
_cell_formula_units_Z   2
loop_
 _symmetry_equiv_pos_site_id
 _symmetry_equiv_pos_as_xyz
  1  'x, y, z'
loop_
 _atom_site_type_symbol
 _atom_site_label
 _atom_site_symmetry_multiplicity
 _atom_site_fract_x
 _atom_site_fract_y
 _atom_site_fract_z
 _atom_site_occupancy
  Ca  Ca0  1  0.25000000  0.03521300  0.32319501  1
  Ca  Ca1  1  0.25000000  0.53521299  0.17680500  1
  Ca  Ca2  1  0.75000000  0.96478698  0.67680501  1
  Ca  Ca3  1  0.75000000  0.46478699  0.82319502  1
  Mg  Mg4  1  0.25000000  0.14222500  0.93657702  1
  Mg  Mg5  1  0.25000000  0.64222499  0.56342301  1
  Ge  Ge6  1  0.75000000  0.85777498  0.06342300  1
  Ge  Ge7  1  0.75000000  0.35777499  0.43657701  1
  Pd  Pd8  1  0.25000000  0.25819400  0.62927401  1
  Pd  Pd9  1  0.25000000  0.75819399  0.87072602  1
  Pd  Pd10  1  0.75000000  0.74180599  0.37072601  1
  Pd  Pd11  1  0.75000000  0.24180600  0.12927400  1
