# generated using pymatgen
data_Ce2InPd7
_symmetry_space_group_name_H-M   'P 1'
_cell_length_a   4.52949810
_cell_length_b   4.52949810
_cell_length_c   10.53903961
_cell_angle_alpha   90.00000000
_cell_angle_beta   90.00000000
_cell_angle_gamma   90.00000000
_symmetry_Int_Tables_number   1
_chemical_formula_structural   Ce2InPd7
_chemical_formula_sum   'Ce2 In1 Pd7'
_cell_volume   216.22265738
_cell_formula_units_Z   1
loop_
 _symmetry_equiv_pos_site_id
 _symmetry_equiv_pos_as_xyz
  1  'x, y, z'
loop_
 _atom_site_type_symbol
 _atom_site_label
 _atom_site_symmetry_multiplicity
 _atom_site_fract_x
 _atom_site_fract_y
 _atom_site_fract_z
 _atom_site_occupancy
  Ce  Ce0  1  0.00000000  0.49999999  0.24939001  1
  Ce  Ce1  1  0.49999999  0.00000000  0.75061003  1
  In  In2  1  0.00000000  0.00000000  0.50000002  1
  Pd  Pd3  1  0.49999999  0.49999999  0.50000002  1
  Pd  Pd4  1  0.00000000  0.49999999  0.87488303  1
  Pd  Pd5  1  0.49999999  0.00000000  0.12511700  1
  Pd  Pd6  1  0.00000000  0.00000000  0.00000000  1
  Pd  Pd7  1  0.49999999  0.49999999  0.00000000  1
  Pd  Pd8  1  0.00000000  0.49999999  0.62988302  1
  Pd  Pd9  1  0.49999999  0.00000000  0.37011701  1
