# generated using pymatgen
data_Ca5Mg
_symmetry_space_group_name_H-M   'P 1'
_cell_length_a   3.25348210
_cell_length_b   3.25348186
_cell_length_c   17.03375435
_cell_angle_alpha   90.00000000
_cell_angle_beta   90.00000000
_cell_angle_gamma   120.00000000
_symmetry_Int_Tables_number   1
_chemical_formula_structural   Ca5Mg
_chemical_formula_sum   'Ca5 Mg1'
_cell_volume   156.14850261
_cell_formula_units_Z   1
loop_
 _symmetry_equiv_pos_site_id
 _symmetry_equiv_pos_as_xyz
  1  'x, y, z'
loop_
 _atom_site_type_symbol
 _atom_site_label
 _atom_site_symmetry_multiplicity
 _atom_site_fract_x
 _atom_site_fract_y
 _atom_site_fract_z
 _atom_site_occupancy
  Ca  Ca0  1  0.66666664  0.33333334  0.08162900  1
  Ca  Ca1  1  0.33333332  0.66666668  0.25074399  1
  Ca  Ca2  1  0.66666664  0.33333334  0.74925598  1
  Mg  Mg3  1  0.33333332  0.66666668  0.91837098  1
  Ca  Ca4  1  0.66666664  0.33333334  0.42171999  1
  Ca  Ca5  1  0.33333332  0.66666668  0.57827999  1
