# generated using pymatgen
data_Li6MnS7
_symmetry_space_group_name_H-M   'P 1'
_cell_length_a   7.30627251
_cell_length_b   7.30627251
_cell_length_c   7.30627251
_cell_angle_alpha   60.00000000
_cell_angle_beta   60.00000000
_cell_angle_gamma   60.00000000
_symmetry_Int_Tables_number   1
_chemical_formula_structural   Li6MnS7
_chemical_formula_sum   'Li6 Mn1 S7'
_cell_volume   275.78624468
_cell_formula_units_Z   1
loop_
 _symmetry_equiv_pos_site_id
 _symmetry_equiv_pos_as_xyz
  1  'x, y, z'
loop_
 _atom_site_type_symbol
 _atom_site_label
 _atom_site_symmetry_multiplicity
 _atom_site_fract_x
 _atom_site_fract_y
 _atom_site_fract_z
 _atom_site_occupancy
  Li  Li0  1  0.25000001  0.25000001  0.25000001  1
  Li  Li1  1  0.50000002  0.50000002  0.50000002  1
  Li  Li2  1  0.87930103  0.87930003  0.36209901  1
  Li  Li3  1  0.87930103  0.87930003  0.87930003  1
  Li  Li4  1  0.87930103  0.36209901  0.87930003  1
  Li  Li5  1  0.36210001  0.87930003  0.87930003  1
  Mn  Mn6  1  0.63536902  0.63537002  0.09389100  1
  S  S7  1  0.63536902  0.63537002  0.63537002  1
  S  S8  1  0.63536902  0.09389100  0.63537002  1
  S  S9  1  0.09389000  0.63537002  0.63537002  1
  S  S10  1  0.11395300  0.11395400  0.65813902  1
  S  S11  1  0.11395300  0.11395400  0.11395400  1
  S  S12  1  0.11395300  0.65813902  0.11395400  1
  S  S13  1  0.65813802  0.11395400  0.11395400  1
