# generated using pymatgen
data_Li6Cu
_symmetry_space_group_name_H-M   'P 1'
_cell_length_a   3.54743004
_cell_length_b   3.54743052
_cell_length_c   15.24266911
_cell_angle_alpha   90.00000000
_cell_angle_beta   90.00000000
_cell_angle_gamma   119.99999237
_symmetry_Int_Tables_number   1
_chemical_formula_structural   Li6Cu
_chemical_formula_sum   'Li6 Cu1'
_cell_volume   166.11904421
_cell_formula_units_Z   1
loop_
 _symmetry_equiv_pos_site_id
 _symmetry_equiv_pos_as_xyz
  1  'x, y, z'
loop_
 _atom_site_type_symbol
 _atom_site_label
 _atom_site_symmetry_multiplicity
 _atom_site_fract_x
 _atom_site_fract_y
 _atom_site_fract_z
 _atom_site_occupancy
  Li  Li0  1  0.33333328  0.66666663  0.00049200  1
  Li  Li1  1  0.00000000  0.00000000  0.74893499  1
  Li  Li2  1  0.33333328  0.66666663  0.25120000  1
  Li  Li3  1  0.66666663  0.33333331  0.85931399  1
  Cu  Cu4  1  0.66666663  0.33333331  0.14087500  1
  Li  Li5  1  0.66666663  0.33333331  0.35877500  1
  Li  Li6  1  0.66666663  0.33333331  0.64130900  1
