# generated using pymatgen
data_Li4MnO7
_symmetry_space_group_name_H-M   'P 1'
_cell_length_a   3.12241507
_cell_length_b   4.75112677
_cell_length_c   9.43724632
_cell_angle_alpha   89.89409637
_cell_angle_beta   90.00000000
_cell_angle_gamma   90.00000000
_symmetry_Int_Tables_number   1
_chemical_formula_structural   Li4MnO7
_chemical_formula_sum   'Li4 Mn1 O7'
_cell_volume   140.00121373
_cell_formula_units_Z   1
loop_
 _symmetry_equiv_pos_site_id
 _symmetry_equiv_pos_as_xyz
  1  'x, y, z'
loop_
 _atom_site_type_symbol
 _atom_site_label
 _atom_site_symmetry_multiplicity
 _atom_site_fract_x
 _atom_site_fract_y
 _atom_site_fract_z
 _atom_site_occupancy
  Li  Li0  1  0.00000000  0.97596705  0.98882895  1
  Li  Li1  1  0.00000000  0.97788705  0.48787996  1
  Li  Li2  1  0.49999999  0.48354302  0.27757898  1
  Li  Li3  1  0.49999999  0.54862303  0.73902297  1
  Mn  Mn4  1  0.49999999  0.80510004  0.40046697  1
  O  O5  1  0.49999999  0.80609604  0.90534996  1
  O  O6  1  0.00000000  0.70662303  0.65140297  1
  O  O7  1  -0.00000000  0.29791201  0.35026398  1
  O  O8  1  0.00000000  0.69511503  0.15182198  1
  O  O9  1  0.00000000  0.30731102  0.84885297  1
  O  O10  1  0.49999999  0.19548401  0.09417099  1
  O  O11  1  0.49999999  0.20034101  0.60435798  1
