# generated using pymatgen
data_HfTi3Tl2SnGeS6
_symmetry_space_group_name_H-M   'P 1'
_cell_length_a   4.11344624
_cell_length_b   6.98447132
_cell_length_c   14.04195213
_cell_angle_alpha   87.41933441
_cell_angle_beta   81.57759094
_cell_angle_gamma   72.87419128
_symmetry_Int_Tables_number   1
_chemical_formula_structural   HfTi3Tl2SnGeS6
_chemical_formula_sum   'Hf1 Ti3 Tl2 Sn1 Ge1 S6'
_cell_volume   381.38213710
_cell_formula_units_Z   1
loop_
 _symmetry_equiv_pos_site_id
 _symmetry_equiv_pos_as_xyz
  1  'x, y, z'
loop_
 _atom_site_type_symbol
 _atom_site_label
 _atom_site_symmetry_multiplicity
 _atom_site_fract_x
 _atom_site_fract_y
 _atom_site_fract_z
 _atom_site_occupancy
  Hf  Hf0  1  0.49999997  0.49999999  0.50000001  1
  Ti  Ti1  1  0.00000000  0.00000000  0.00000000  1
  Ti  Ti2  1  0.84616695  0.93650698  0.37115900  1
  Tl  Tl3  1  0.15383299  0.06349300  0.62884101  1
  Ti  Ti4  1  0.21127399  0.43897399  0.13847800  1
  Tl  Tl5  1  0.78872596  0.56102599  0.86152201  1
  Sn  Sn6  1  0.61347596  0.72863999  0.04440799  1
  Ge  Ge7  1  0.38652398  0.27135999  0.95559202  1
  S  S8  1  0.84061596  0.14662500  0.17214299  1
  S  S9  1  0.15938399  0.85337498  0.82785702  1
  S  S10  1  0.15280999  0.24995800  0.44442201  1
  S  S11  1  0.84718995  0.75004199  0.55557800  1
  S  S12  1  0.51030497  0.65747499  0.32191500  1
  S  S13  1  0.48969497  0.34252499  0.67808501  1
