# generated using pymatgen
data_Y8SnGe2Ru7Pt2
_symmetry_space_group_name_H-M   'P 1'
_cell_length_a   3.82887006
_cell_length_b   7.88366318
_cell_length_c   13.14069462
_cell_angle_alpha   90.00000000
_cell_angle_beta   90.00000000
_cell_angle_gamma   90.00000000
_symmetry_Int_Tables_number   1
_chemical_formula_structural   Y8SnGe2Ru7Pt2
_chemical_formula_sum   'Y8 Sn1 Ge2 Ru7 Pt2'
_cell_volume   396.65872502
_cell_formula_units_Z   1
loop_
 _symmetry_equiv_pos_site_id
 _symmetry_equiv_pos_as_xyz
  1  'x, y, z'
loop_
 _atom_site_type_symbol
 _atom_site_label
 _atom_site_symmetry_multiplicity
 _atom_site_fract_x
 _atom_site_fract_y
 _atom_site_fract_z
 _atom_site_occupancy
  Y  Y0  1  0.25000000  0.08690600  0.82849702  1
  Y  Y1  1  0.74999999  0.91309398  0.17150300  1
  Y  Y2  1  0.25000000  0.58690599  0.67150302  1
  Y  Y3  1  0.74999999  0.41309399  0.32849701  1
  Y  Y4  1  0.25000000  0.33842699  0.05247100  1
  Y  Y5  1  0.74999999  0.66157299  0.94752903  1
  Y  Y6  1  0.25000000  0.83842698  0.44752901  1
  Y  Y7  1  0.74999999  0.16157300  0.55247102  1
  Ge  Ge8  1  0.25000000  0.48881199  0.89570103  1
  Sn  Sn9  1  0.74999999  0.51118799  0.10429900  1
  Ru  Ru10  1  0.25000000  0.98881198  0.60429902  1
  Ru  Ru11  1  0.74999999  0.01118800  0.39570101  1
  Ru  Ru12  1  0.25000000  0.33664399  0.49464001  1
  Ru  Ru13  1  0.74999999  0.66335599  0.50536001  1
  Ru  Ru14  1  0.25000000  0.83664398  0.00536000  1
  Ru  Ru15  1  0.74999999  0.16335600  0.99464003  1
  Ge  Ge16  1  0.74999999  0.30424799  0.71294502  1
  Pt  Pt17  1  0.25000000  0.69575198  0.28705501  1
  Ru  Ru18  1  0.74999999  0.80424798  0.78705502  1
  Pt  Pt19  1  0.25000000  0.19575200  0.21294501  1
