# generated using pymatgen
data_Ce2DyTlS4
_symmetry_space_group_name_H-M   'P 1'
_cell_length_a   5.64946222
_cell_length_b   5.64946222
_cell_length_c   7.01473141
_cell_angle_alpha   113.74617004
_cell_angle_beta   113.74617004
_cell_angle_gamma   90.00000000
_symmetry_Int_Tables_number   1
_chemical_formula_structural   Ce2DyTlS4
_chemical_formula_sum   'Ce2 Dy1 Tl1 S4'
_cell_volume   184.03423260
_cell_formula_units_Z   1
loop_
 _symmetry_equiv_pos_site_id
 _symmetry_equiv_pos_as_xyz
  1  'x, y, z'
loop_
 _atom_site_type_symbol
 _atom_site_label
 _atom_site_symmetry_multiplicity
 _atom_site_fract_x
 _atom_site_fract_y
 _atom_site_fract_z
 _atom_site_occupancy
  Dy  Dy0  1  0.00000000  0.00000000  0.00000000  1
  Ce  Ce1  1  0.74999993  0.24999998  0.49999992  1
  Ce  Ce2  1  0.24999993  0.74999994  0.49999991  1
  Tl  Tl3  1  0.49999993  0.49999996  0.99999990  1
  S  S4  1  0.74570290  0.74570294  0.49140588  1
  S  S5  1  0.49570290  0.99570292  0.99140586  1
  S  S6  1  0.25429696  0.25429698  0.50859395  1
  S  S7  1  0.00429696  0.50429696  0.00859396  1
