# generated using pymatgen
data_Hf5Ni8
_symmetry_space_group_name_H-M   'P 1'
_cell_length_a   5.01732016
_cell_length_b   6.62843323
_cell_length_c   6.62843323
_cell_angle_alpha   81.76467133
_cell_angle_beta   67.76108551
_cell_angle_gamma   67.76108551
_symmetry_Int_Tables_number   1
_chemical_formula_structural   Hf5Ni8
_chemical_formula_sum   'Hf5 Ni8'
_cell_volume   188.86573709
_cell_formula_units_Z   1
loop_
 _symmetry_equiv_pos_site_id
 _symmetry_equiv_pos_as_xyz
  1  'x, y, z'
loop_
 _atom_site_type_symbol
 _atom_site_label
 _atom_site_symmetry_multiplicity
 _atom_site_fract_x
 _atom_site_fract_y
 _atom_site_fract_z
 _atom_site_occupancy
  Hf  Hf0  1  0.00000000  0.00000000  0.00000000  1
  Hf  Hf1  1  0.33983799  0.66016201  0.66016299  1
  Hf  Hf2  1  0.00000100  0.66016201  0.33983699  1
  Hf  Hf3  1  0.99999997  0.33983800  0.66016199  1
  Ni  Ni4  1  0.66016298  0.33983700  0.33983799  1
  Hf  Hf5  1  0.27990799  0.22009200  0.22009199  1
  Ni  Ni6  1  0.49999999  0.22009200  0.77990799  1
  Ni  Ni7  1  0.49999998  0.77990801  0.22009198  1
  Ni  Ni8  1  0.72009198  0.77990801  0.77990798  1
  Ni  Ni9  1  0.99999997  0.50000000  -0.00000002  1
  Ni  Ni10  1  0.49999998  0.50000000  -0.00000001  1
  Ni  Ni11  1  0.00000000  0.00000000  0.50000000  1
  Ni  Ni12  1  0.49999999  0.00000000  0.50000000  1
