# generated using pymatgen
data_Al7Ni9
_symmetry_space_group_name_H-M   'P 1'
_cell_length_a   5.49384022
_cell_length_b   7.43133020
_cell_length_c   7.43133020
_cell_angle_alpha   67.49343872
_cell_angle_beta   68.30655670
_cell_angle_gamma   68.30655670
_symmetry_Int_Tables_number   1
_chemical_formula_structural   Al7Ni9
_chemical_formula_sum   'Al7 Ni9'
_cell_volume   251.06933993
_cell_formula_units_Z   1
loop_
 _symmetry_equiv_pos_site_id
 _symmetry_equiv_pos_as_xyz
  1  'x, y, z'
loop_
 _atom_site_type_symbol
 _atom_site_label
 _atom_site_symmetry_multiplicity
 _atom_site_fract_x
 _atom_site_fract_y
 _atom_site_fract_z
 _atom_site_occupancy
  Al  Al0  1  0.85433097  0.35517000  0.35517000  1
  Al  Al1  1  0.56467098  0.14483000  0.14483000  1
  Al  Al2  1  0.14566899  0.64483000  0.64483000  1
  Al  Al3  1  0.43532897  0.85516999  0.85517000  1
  Al  Al4  1  0.99999995  0.74999999  0.25000000  1
  Al  Al5  1  0.99999996  0.25000000  0.74999999  1
  Al  Al6  1  0.89117196  0.89607599  0.89607600  1
  Ni  Ni7  1  0.68332397  0.60392300  0.60392400  1
  Ni  Ni8  1  0.10882799  0.10392400  0.10392400  1
  Ni  Ni9  1  0.31667598  0.39607700  0.39607600  1
  Ni  Ni10  1  0.24310098  0.50689900  0.00689900  1
  Ni  Ni11  1  0.75689896  0.99310099  0.49310100  1
  Ni  Ni12  1  0.75689897  0.49310100  0.99310099  1
  Ni  Ni13  1  0.24310099  0.00689900  0.50689899  1
  Ni  Ni14  1  0.49999998  0.25000000  0.74999999  1
  Ni  Ni15  1  0.49999997  0.74999999  0.25000000  1
