# generated using pymatgen
data_Zr3Ti4Ni10As3
_symmetry_space_group_name_H-M   'P 1'
_cell_length_a   3.57388997
_cell_length_b   8.04898739
_cell_length_c   18.07415581
_cell_angle_alpha   83.95953369
_cell_angle_beta   84.32604218
_cell_angle_gamma   77.17295837
_symmetry_Int_Tables_number   1
_chemical_formula_structural   Zr3Ti4Ni10As3
_chemical_formula_sum   'Zr3 Ti4 Ni10 As3'
_cell_volume   502.60433356
_cell_formula_units_Z   1
loop_
 _symmetry_equiv_pos_site_id
 _symmetry_equiv_pos_as_xyz
  1  'x, y, z'
loop_
 _atom_site_type_symbol
 _atom_site_label
 _atom_site_symmetry_multiplicity
 _atom_site_fract_x
 _atom_site_fract_y
 _atom_site_fract_z
 _atom_site_occupancy
  Ti  Ti0  1  0.83916496  0.92322796  0.39844201  1
  Ti  Ti1  1  0.16083500  0.07677200  0.60155801  1
  Zr  Zr2  1  0.23482697  0.62347597  0.90687002  1
  Zr  Zr3  1  0.76517299  0.37652398  0.09313000  1
  Ti  Ti4  1  0.30154199  0.18630199  0.21061400  1
  Zr  Zr5  1  0.69845796  0.81369796  0.78938602  1
  Ti  Ti6  1  0.26693396  0.77309096  0.69304102  1
  Ni  Ni7  1  0.73306600  0.22690899  0.30695900  1
  Ni  Ni8  1  0.20562899  0.14080499  0.44793701  1
  Ni  Ni9  1  0.79437096  0.85919496  0.55206301  1
  Ni  Ni10  1  0.54638799  0.32500098  0.58222301  1
  As  As11  1  0.45361197  0.67499897  0.41777701  1
  Ni  Ni12  1  0.65262397  0.68478397  0.00996800  1
  Ni  Ni13  1  0.34737599  0.31521598  0.99003202  1
  As  As14  1  0.41352996  0.87959696  0.29334301  1
  Ni  Ni15  1  0.58647000  0.12040299  0.70665701  1
  Ni  Ni16  1  0.90456501  0.06109100  0.12977899  1
  Ni  Ni17  1  0.09543495  0.93890895  0.87022103  1
  As  As18  1  0.15553997  0.51817497  0.17074501  1
  Ni  Ni19  1  0.84445998  0.48182498  0.82925501  1
