# generated using pymatgen
data_NaZn
_symmetry_space_group_name_H-M   'P 1'
_cell_length_a   5.85653210
_cell_length_b   6.26082277
_cell_length_c   6.49976063
_cell_angle_alpha   68.13632202
_cell_angle_beta   78.48764038
_cell_angle_gamma   85.11066437
_symmetry_Int_Tables_number   1
_chemical_formula_structural   NaZn
_chemical_formula_sum   'Na4 Zn4'
_cell_volume   216.71731156
_cell_formula_units_Z   4
loop_
 _symmetry_equiv_pos_site_id
 _symmetry_equiv_pos_as_xyz
  1  'x, y, z'
loop_
 _atom_site_type_symbol
 _atom_site_label
 _atom_site_symmetry_multiplicity
 _atom_site_fract_x
 _atom_site_fract_y
 _atom_site_fract_z
 _atom_site_occupancy
  Na  Na0  1  0.67237897  0.29939201  0.35330002  1
  Na  Na1  1  0.76709295  0.85108804  0.92581602  1
  Na  Na2  1  0.32762097  0.70060803  0.64670001  1
  Na  Na3  1  0.23290699  0.14891201  0.07418401  1
  Zn  Zn4  1  0.13488599  0.23864301  0.56682301  1
  Zn  Zn5  1  0.21375597  0.60871103  0.19100000  1
  Zn  Zn6  1  0.86511395  0.76135704  0.43317702  1
  Zn  Zn7  1  0.78624397  0.39128902  0.80900003  1
