# generated using pymatgen
data_CsKLi2O4
_symmetry_space_group_name_H-M   'P 1'
_cell_length_a   5.78344727
_cell_length_b   7.28830290
_cell_length_c   7.28830290
_cell_angle_alpha   62.60951996
_cell_angle_beta   78.78689575
_cell_angle_gamma   101.21310425
_symmetry_Int_Tables_number   1
_chemical_formula_structural   CsKLi2O4
_chemical_formula_sum   'Cs1 K1 Li2 O4'
_cell_volume   252.94855621
_cell_formula_units_Z   1
loop_
 _symmetry_equiv_pos_site_id
 _symmetry_equiv_pos_as_xyz
  1  'x, y, z'
loop_
 _atom_site_type_symbol
 _atom_site_label
 _atom_site_symmetry_multiplicity
 _atom_site_fract_x
 _atom_site_fract_y
 _atom_site_fract_z
 _atom_site_occupancy
  Cs  Cs0  1  -0.00000001  0.14512900  0.14512900  1
  K  K1  1  0.49999992  0.85476997  0.85476999  1
  Li  Li2  1  0.99999994  0.50301798  0.50301802  1
  Li  Li3  1  0.49999995  0.49704798  0.49704800  1
  O  O4  1  0.84298494  0.58143398  0.21835402  1
  O  O5  1  0.15701498  0.21835399  0.58143399  1
  O  O6  1  0.65463095  0.41825299  0.78199400  1
  O  O7  1  0.34536893  0.78199398  0.41825300  1
