# generated using pymatgen
data_LiV2O9
_symmetry_space_group_name_H-M   'P 1'
_cell_length_a   5.76209450
_cell_length_b   5.76209450
_cell_length_c   5.76209450
_cell_angle_alpha   77.70582581
_cell_angle_beta   67.91945648
_cell_angle_gamma   114.27768707
_symmetry_Int_Tables_number   1
_chemical_formula_structural   LiV2O9
_chemical_formula_sum   'Li1 V2 O9'
_cell_volume   145.50742046
_cell_formula_units_Z   1
loop_
 _symmetry_equiv_pos_site_id
 _symmetry_equiv_pos_as_xyz
  1  'x, y, z'
loop_
 _atom_site_type_symbol
 _atom_site_label
 _atom_site_symmetry_multiplicity
 _atom_site_fract_x
 _atom_site_fract_y
 _atom_site_fract_z
 _atom_site_occupancy
  O  O0  1  0.73332603  0.24113301  0.50780698  1
  Li  Li1  1  0.25106005  0.75886703  0.50780697  1
  V  V2  1  0.52243004  0.50000002  0.97756998  1
  V  V3  1  0.99145002  0.00000000  0.00854998  1
  O  O4  1  0.81914104  0.50000002  0.68085898  1
  O  O5  1  0.29236800  0.00000000  0.70763200  1
  O  O6  1  0.68824401  0.00000000  0.31175599  1
  O  O7  1  0.75094804  0.56033202  0.19155197  1
  O  O8  1  0.24811601  0.05750000  0.19155200  1
  O  O9  1  0.20385103  0.50000002  0.29614898  1
  O  O10  1  0.75094807  0.94250004  0.80938396  1
  O  O11  1  0.24811603  0.43966802  0.80938399  1
