# generated using pymatgen
data_YTl3(SnS2)2
_symmetry_space_group_name_H-M   'P 1'
_cell_length_a   5.75905180
_cell_length_b   7.82754993
_cell_length_c   7.82754993
_cell_angle_alpha   90.00000000
_cell_angle_beta   90.00000000
_cell_angle_gamma   90.00000000
_symmetry_Int_Tables_number   1
_chemical_formula_structural   YTl3(SnS2)2
_chemical_formula_sum   'Y1 Tl3 Sn2 S4'
_cell_volume   352.86020200
_cell_formula_units_Z   1
loop_
 _symmetry_equiv_pos_site_id
 _symmetry_equiv_pos_as_xyz
  1  'x, y, z'
loop_
 _atom_site_type_symbol
 _atom_site_label
 _atom_site_symmetry_multiplicity
 _atom_site_fract_x
 _atom_site_fract_y
 _atom_site_fract_z
 _atom_site_occupancy
  Tl  Tl0  1  0.00000000  0.50000000  0.00000000  1
  Y  Y1  1  0.00000000  0.00000000  0.50000000  1
  Tl  Tl2  1  0.50000002  0.00000000  0.00000000  1
  Tl  Tl3  1  0.50000002  0.50000000  0.50000000  1
  Sn  Sn4  1  0.00000000  0.00000000  0.00000000  1
  Sn  Sn5  1  0.00000000  0.50000000  0.50000000  1
  S  S6  1  0.50000002  0.67374901  0.17374900  1
  S  S7  1  0.50000002  0.32625100  0.82625101  1
  S  S8  1  0.50000002  0.17374900  0.32625100  1
  S  S9  1  0.50000002  0.82625101  0.67374901  1
