# generated using pymatgen
data_Ce(SiP2)2
_symmetry_space_group_name_H-M   'P 1'
_cell_length_a   6.11032820
_cell_length_b   6.11032820
_cell_length_c   8.69970417
_cell_angle_alpha   110.55951691
_cell_angle_beta   110.55951691
_cell_angle_gamma   90.00000000
_symmetry_Int_Tables_number   1
_chemical_formula_structural   Ce(SiP2)2
_chemical_formula_sum   'Ce2 Si4 P8'
_cell_volume   281.92299879
_cell_formula_units_Z   2
loop_
 _symmetry_equiv_pos_site_id
 _symmetry_equiv_pos_as_xyz
  1  'x, y, z'
loop_
 _atom_site_type_symbol
 _atom_site_label
 _atom_site_symmetry_multiplicity
 _atom_site_fract_x
 _atom_site_fract_y
 _atom_site_fract_z
 _atom_site_occupancy
  Ce  Ce0  1  0.58255097  0.08255000  0.16510098  1
  Ce  Ce1  1  0.08255098  0.58254997  0.16510098  1
  Si  Si2  1  0.54130496  0.46411098  0.50541597  1
  Si  Si3  1  0.96411095  0.04130500  0.50541598  1
  Si  Si4  1  0.46411094  0.96411095  0.50541596  1
  Si  Si5  1  0.04130498  0.54130497  0.50541598  1
  P  P6  1  0.49245696  0.49245797  0.98491498  1
  P  P7  1  0.99245692  0.99245795  0.98491495  1
  P  P8  1  0.65747895  0.65747897  0.31495796  1
  P  P9  1  0.15747899  0.15747899  0.31495799  1
  P  P10  1  0.56391895  0.74579296  0.80971197  1
  P  P11  1  0.24579399  0.06391800  0.80971200  1
  P  P12  1  0.74579396  0.24579299  0.80971198  1
  P  P13  1  0.06391898  0.56391797  0.80971199  1
