# generated using pymatgen
data_Cs3RbAgS2Br13
_symmetry_space_group_name_H-M   'P 1'
_cell_length_a   6.42156506
_cell_length_b   6.92966890
_cell_length_c   11.87969208
_cell_angle_alpha   90.00000000
_cell_angle_beta   84.76766205
_cell_angle_gamma   90.00000000
_symmetry_Int_Tables_number   1
_chemical_formula_structural   Cs3RbAgS2Br13
_chemical_formula_sum   'Cs3 Rb1 Ag1 S2 Br13'
_cell_volume   526.43542580
_cell_formula_units_Z   1
loop_
 _symmetry_equiv_pos_site_id
 _symmetry_equiv_pos_as_xyz
  1  'x, y, z'
loop_
 _atom_site_type_symbol
 _atom_site_label
 _atom_site_symmetry_multiplicity
 _atom_site_fract_x
 _atom_site_fract_y
 _atom_site_fract_z
 _atom_site_occupancy
  Cs  Cs0  1  0.77073599  0.75000001  0.04566202  1
  Cs  Cs1  1  0.56724299  0.75000001  0.65306300  1
  Cs  Cs2  1  0.22926400  0.25000000  0.95433798  1
  Rb  Rb3  1  0.43275699  0.25000000  0.34693700  1
  Ag  Ag4  1  0.99109699  0.75000001  0.44949102  1
  Br  Br5  1  0.88298199  0.00603000  0.80476200  1
  Br  Br6  1  0.67843699  0.25000000  0.77763400  1
  Br  Br7  1  0.32553300  0.75000001  0.40652300  1
  Br  Br8  1  0.85528299  0.58029901  0.31311302  1
  Br  Br9  1  0.85528299  0.91970101  0.31311302  1
  Br  Br10  1  0.14471700  0.08029900  0.68688698  1
  Br  Br11  1  0.11701800  0.99397001  0.19523800  1
  Br  Br12  1  0.32156300  0.75000001  0.22236600  1
  Br  Br13  1  0.11701800  0.50603001  0.19523800  1
  Br  Br14  1  0.14471700  0.41970101  0.68688698  1
  Br  Br15  1  0.67446699  0.25000000  0.59347700  1
  S  S16  1  0.88298199  0.49397001  0.80476200  1
  Br  Br17  1  0.00890300  0.25000000  0.55050898  1
  Br  Br18  1  0.63495899  0.25000000  0.08898702  1
  S  S19  1  0.36504099  0.75000001  0.91101298  1
