# generated using pymatgen
data_LiGaPd2
_symmetry_space_group_name_H-M   'P 1'
_cell_length_a   5.09325409
_cell_length_b   5.09325409
_cell_length_c   5.09325409
_cell_angle_alpha   90.13251495
_cell_angle_beta   89.86748505
_cell_angle_gamma   89.86747742
_symmetry_Int_Tables_number   1
_chemical_formula_structural   LiGaPd2
_chemical_formula_sum   'Li2 Ga2 Pd4'
_cell_volume   132.12425073
_cell_formula_units_Z   2
loop_
 _symmetry_equiv_pos_site_id
 _symmetry_equiv_pos_as_xyz
  1  'x, y, z'
loop_
 _atom_site_type_symbol
 _atom_site_label
 _atom_site_symmetry_multiplicity
 _atom_site_fract_x
 _atom_site_fract_y
 _atom_site_fract_z
 _atom_site_occupancy
  Li  Li0  1  0.99935296  0.73599898  0.50185201  1
  Li  Li1  1  0.49814799  0.00064700  0.73599900  1
  Ga  Ga2  1  0.26400099  0.50185199  0.00064701  1
  Ga  Ga3  1  0.50367598  0.49632399  0.49632402  1
  Pd  Pd4  1  0.00323200  0.25829799  0.50288004  1
  Pd  Pd5  1  0.49711997  0.99676797  0.25829804  1
  Pd  Pd6  1  0.74170197  0.50287999  0.99676803  1
  Pd  Pd7  1  0.99276697  0.00723300  0.00723294  1
