# generated using pymatgen
data_LiMnNi5
_symmetry_space_group_name_H-M   'P 1'
_cell_length_a   5.57185793
_cell_length_b   5.57185793
_cell_length_c   6.90493774
_cell_angle_alpha   113.79522705
_cell_angle_beta   113.79522705
_cell_angle_gamma   90.00000000
_symmetry_Int_Tables_number   1
_chemical_formula_structural   LiMnNi5
_chemical_formula_sum   'Li2 Mn2 Ni10'
_cell_volume   176.04625801
_cell_formula_units_Z   2
loop_
 _symmetry_equiv_pos_site_id
 _symmetry_equiv_pos_as_xyz
  1  'x, y, z'
loop_
 _atom_site_type_symbol
 _atom_site_label
 _atom_site_symmetry_multiplicity
 _atom_site_fract_x
 _atom_site_fract_y
 _atom_site_fract_z
 _atom_site_occupancy
  Li  Li0  1  0.50471000  0.00471000  0.00941999  1
  Li  Li1  1  0.24528999  0.24529000  0.49057998  1
  Mn  Mn2  1  0.99528999  0.49529000  0.99057996  1
  Mn  Mn3  1  0.75470998  0.75471000  0.50941996  1
  Ni  Ni4  1  0.60606100  0.12500000  0.74999998  1
  Ni  Ni5  1  0.14393898  0.62500000  0.74999997  1
  Ni  Ni6  1  0.60606098  0.62500000  0.74999996  1
  Ni  Ni7  1  0.14393900  0.12500000  0.74999999  1
  Ni  Ni8  1  0.37499998  0.85606100  0.24999996  1
  Ni  Ni9  1  0.87499999  0.39393900  0.24999997  1
  Ni  Ni10  1  0.87499998  0.85606100  0.24999995  1
  Ni  Ni11  1  0.37499999  0.39393900  0.24999998  1
  Ni  Ni12  1  0.74999999  0.25000000  0.49999997  1
  Ni  Ni13  1  0.00000000  0.00000000  0.00000000  1
