# generated using pymatgen
data_DyAlGe2
_symmetry_space_group_name_H-M   'P 1'
_cell_length_a   5.81536388
_cell_length_b   7.16092777
_cell_length_c   7.63265610
_cell_angle_alpha   90.00000000
_cell_angle_beta   90.00000000
_cell_angle_gamma   90.00000000
_symmetry_Int_Tables_number   1
_chemical_formula_structural   DyAlGe2
_chemical_formula_sum   'Dy4 Al4 Ge8'
_cell_volume   317.84975661
_cell_formula_units_Z   4
loop_
 _symmetry_equiv_pos_site_id
 _symmetry_equiv_pos_as_xyz
  1  'x, y, z'
loop_
 _atom_site_type_symbol
 _atom_site_label
 _atom_site_symmetry_multiplicity
 _atom_site_fract_x
 _atom_site_fract_y
 _atom_site_fract_z
 _atom_site_occupancy
  Dy  Dy0  1  0.35000001  0.75000002  0.03326000  1
  Dy  Dy1  1  0.15000000  0.75000002  0.53325999  1
  Dy  Dy2  1  0.65000001  0.25000001  0.96673999  1
  Dy  Dy3  1  0.85000002  0.25000001  0.46673999  1
  Al  Al4  1  0.65154501  0.75000002  0.38011400  1
  Al  Al5  1  0.84845502  0.75000002  0.88011399  1
  Al  Al6  1  0.34845501  0.25000001  0.61988599  1
  Al  Al7  1  0.15154500  0.25000001  0.11988600  1
  Ge  Ge8  1  0.91210102  0.55315302  0.17703000  1
  Ge  Ge9  1  0.58789901  0.94684703  0.67702999  1
  Ge  Ge10  1  0.08789900  0.05315300  0.82296999  1
  Ge  Ge11  1  0.41210101  0.44684701  0.32297000  1
  Ge  Ge12  1  0.08789900  0.44684701  0.82296999  1
  Ge  Ge13  1  0.41210101  0.05315300  0.32297000  1
  Ge  Ge14  1  0.91210102  0.94684703  0.17703000  1
  Ge  Ge15  1  0.58789901  0.55315302  0.67702999  1
