# generated using pymatgen
data_BeBN3
_symmetry_space_group_name_H-M   'P 1'
_cell_length_a   5.04062271
_cell_length_b   5.04062271
_cell_length_c   6.33370256
_cell_angle_alpha   66.55173492
_cell_angle_beta   66.55173492
_cell_angle_gamma   59.99998856
_symmetry_Int_Tables_number   1
_chemical_formula_structural   BeBN3
_chemical_formula_sum   'Be2 B2 N6'
_cell_volume   123.78321006
_cell_formula_units_Z   2
loop_
 _symmetry_equiv_pos_site_id
 _symmetry_equiv_pos_as_xyz
  1  'x, y, z'
loop_
 _atom_site_type_symbol
 _atom_site_label
 _atom_site_symmetry_multiplicity
 _atom_site_fract_x
 _atom_site_fract_y
 _atom_site_fract_z
 _atom_site_occupancy
  B  B0  1  0.00000000  0.00000000  0.00000000  1
  Be  Be1  1  0.50000003  0.50000002  0.49999997  1
  Be  Be2  1  0.24885701  0.24885701  0.25342899  1
  B  B3  1  0.75114304  0.75114303  0.74657096  1
  N  N4  1  0.25050402  0.99068604  0.25164495  1
  N  N5  1  0.99068605  0.50716502  0.25164494  1
  N  N6  1  0.50716502  0.25050401  0.25164498  1
  N  N7  1  0.74949603  0.00931400  0.74835499  1
  N  N8  1  0.00931401  0.49283502  0.74835500  1
  N  N9  1  0.49283503  0.74949603  0.74835497  1
