# generated using pymatgen
data_Ce2MgP2
_symmetry_space_group_name_H-M   'P 1'
_cell_length_a   3.73790002
_cell_length_b   7.51486111
_cell_length_c   7.51486111
_cell_angle_alpha   90.00000000
_cell_angle_beta   90.00000000
_cell_angle_gamma   90.00000000
_symmetry_Int_Tables_number   1
_chemical_formula_structural   Ce2MgP2
_chemical_formula_sum   'Ce4 Mg2 P4'
_cell_volume   211.09094155
_cell_formula_units_Z   2
loop_
 _symmetry_equiv_pos_site_id
 _symmetry_equiv_pos_as_xyz
  1  'x, y, z'
loop_
 _atom_site_type_symbol
 _atom_site_label
 _atom_site_symmetry_multiplicity
 _atom_site_fract_x
 _atom_site_fract_y
 _atom_site_fract_z
 _atom_site_occupancy
  Ce  Ce0  1  0.50000000  0.67690999  0.17691000  1
  Ce  Ce1  1  0.50000000  0.17691000  0.32309000  1
  Ce  Ce2  1  0.50000000  0.82308999  0.67690999  1
  Ce  Ce3  1  0.50000000  0.32309000  0.82308999  1
  Mg  Mg4  1  0.00000000  0.00000000  0.00000000  1
  Mg  Mg5  1  -0.00000000  0.49999999  0.49999999  1
  P  P6  1  -0.00000000  0.11700100  0.61700099  1
  P  P7  1  0.99999999  0.61700099  0.88299899  1
  P  P8  1  -0.00000000  0.38299899  0.11700100  1
  P  P9  1  0.99999999  0.88299899  0.38299899  1
