# generated using pymatgen
data_NaBC2
_symmetry_space_group_name_H-M   'P 1'
_cell_length_a   6.25028801
_cell_length_b   6.25028801
_cell_length_c   6.25028801
_cell_angle_alpha   81.65217590
_cell_angle_beta   64.69676208
_cell_angle_gamma   115.30323792
_symmetry_Int_Tables_number   1
_chemical_formula_structural   NaBC2
_chemical_formula_sum   'Na2 B2 C4'
_cell_volume   182.80852491
_cell_formula_units_Z   2
loop_
 _symmetry_equiv_pos_site_id
 _symmetry_equiv_pos_as_xyz
  1  'x, y, z'
loop_
 _atom_site_type_symbol
 _atom_site_label
 _atom_site_symmetry_multiplicity
 _atom_site_fract_x
 _atom_site_fract_y
 _atom_site_fract_z
 _atom_site_occupancy
  Na  Na0  1  -0.00000000  0.25000000  0.75000000  1
  Na  Na1  1  1.00000000  0.75000001  0.25000000  1
  B  B2  1  0.50000000  0.50000001  -0.00000001  1
  C  C3  1  0.50000000  0.37417800  0.87417801  1
  B  B4  1  0.75164400  0.12582200  0.37417801  1
  C  C5  1  0.24835599  0.87417801  0.62582198  1
  C  C6  1  0.50000000  0.62582201  0.12582199  1
  C  C7  1  0.50000000  0.00000000  0.50000002  1
