# generated using pymatgen
data_Nd3TiNi16
_symmetry_space_group_name_H-M   'P 1'
_cell_length_a   5.63401794
_cell_length_b   7.84993696
_cell_length_c   7.84993696
_cell_angle_alpha   75.12419891
_cell_angle_beta   68.96994781
_cell_angle_gamma   68.96994781
_symmetry_Int_Tables_number   1
_chemical_formula_structural   Nd3TiNi16
_chemical_formula_sum   'Nd3 Ti1 Ni16'
_cell_volume   299.18822833
_cell_formula_units_Z   1
loop_
 _symmetry_equiv_pos_site_id
 _symmetry_equiv_pos_as_xyz
  1  'x, y, z'
loop_
 _atom_site_type_symbol
 _atom_site_label
 _atom_site_symmetry_multiplicity
 _atom_site_fract_x
 _atom_site_fract_y
 _atom_site_fract_z
 _atom_site_occupancy
  Ti  Ti0  1  0.86860599  0.36772001  0.89506700  1
  Nd  Nd1  1  0.13139395  0.63228002  0.10493302  1
  Nd  Nd2  1  0.63139301  0.10493400  0.63227999  1
  Nd  Nd3  1  0.36860693  0.89506603  0.36772003  1
  Ni  Ni4  1  0.25000001  0.00000000  -0.00000001  1
  Ni  Ni5  1  0.75000002  0.00000000  -0.00000003  1
  Ni  Ni6  1  0.51702195  0.73297803  0.73297803  1
  Ni  Ni7  1  0.98297801  0.26702201  0.26702198  1
  Ni  Ni8  1  0.48297799  0.26702201  0.26702200  1
  Ni  Ni9  1  0.01702194  0.73297803  0.73297805  1
  Ni  Ni10  1  0.60716397  0.54593102  0.23974100  1
  Ni  Ni11  1  0.10716498  0.23974101  0.54593002  1
  Ni  Ni12  1  0.89283496  0.76025903  0.45407001  1
  Ni  Ni13  1  0.39283597  0.45406902  0.76025902  1
  Ni  Ni14  1  0.13458192  0.97786204  0.75297406  1
  Ni  Ni15  1  0.74999998  0.50000002  0.50000000  1
  Ni  Ni16  1  0.63458195  0.75297403  0.97786203  1
  Ni  Ni17  1  0.36541799  0.24702601  0.02213800  1
  Ni  Ni18  1  0.86541802  0.02213800  0.24702597  1
  Ni  Ni19  1  0.24999996  0.50000002  0.50000002  1
