# generated using pymatgen
data_NaCu3O4
_symmetry_space_group_name_H-M   'P 1'
_cell_length_a   4.99362898
_cell_length_b   4.99362898
_cell_length_c   4.99362898
_cell_angle_alpha   97.96154785
_cell_angle_beta   97.96154785
_cell_angle_gamma   97.96154022
_symmetry_Int_Tables_number   1
_chemical_formula_structural   NaCu3O4
_chemical_formula_sum   'Na1 Cu3 O4'
_cell_volume   120.54498521
_cell_formula_units_Z   1
loop_
 _symmetry_equiv_pos_site_id
 _symmetry_equiv_pos_as_xyz
  1  'x, y, z'
loop_
 _atom_site_type_symbol
 _atom_site_label
 _atom_site_symmetry_multiplicity
 _atom_site_fract_x
 _atom_site_fract_y
 _atom_site_fract_z
 _atom_site_occupancy
  Na  Na0  1  0.00000000  0.00000000  0.00000000  1
  Cu  Cu1  1  0.49999998  0.50000000  0.50000000  1
  Cu  Cu2  1  0.57643099  0.22923300  0.22923300  1
  Cu  Cu3  1  0.22923299  0.22923300  0.57643100  1
  O  O4  1  0.42356896  0.77076700  0.77076699  1
  O  O5  1  0.77076698  0.42356900  0.77076700  1
  O  O6  1  0.77076696  0.77076700  0.42356900  1
  O  O7  1  0.22923297  0.57643100  0.22923300  1
