# generated using pymatgen
data_TmURu4
_symmetry_space_group_name_H-M   'P 1'
_cell_length_a   5.34234142
_cell_length_b   5.34234142
_cell_length_c   5.34234142
_cell_angle_alpha   60.00000000
_cell_angle_beta   60.00000000
_cell_angle_gamma   60.00000000
_symmetry_Int_Tables_number   1
_chemical_formula_structural   TmURu4
_chemical_formula_sum   'Tm1 U1 Ru4'
_cell_volume   107.81518233
_cell_formula_units_Z   1
loop_
 _symmetry_equiv_pos_site_id
 _symmetry_equiv_pos_as_xyz
  1  'x, y, z'
loop_
 _atom_site_type_symbol
 _atom_site_label
 _atom_site_symmetry_multiplicity
 _atom_site_fract_x
 _atom_site_fract_y
 _atom_site_fract_z
 _atom_site_occupancy
  Tm  Tm0  1  0.75000003  0.75000003  0.75000003  1
  U  U1  1  0.00000000  0.00000000  0.00000000  1
  Ru  Ru2  1  0.37500002  0.37500002  0.37500002  1
  Ru  Ru3  1  0.37500002  0.87500004  0.37500002  1
  Ru  Ru4  1  0.37500002  0.37500002  0.87500004  1
  Ru  Ru5  1  0.87500004  0.37500002  0.37500002  1
