# generated using pymatgen
data_DyLu4Sn3
_symmetry_space_group_name_H-M   'P 1'
_cell_length_a   6.33921480
_cell_length_b   8.33368397
_cell_length_c   8.33368397
_cell_angle_alpha   120.00000000
_cell_angle_beta   90.00000000
_cell_angle_gamma   90.00000000
_symmetry_Int_Tables_number   1
_chemical_formula_structural   DyLu4Sn3
_chemical_formula_sum   'Dy2 Lu8 Sn6'
_cell_volume   381.27660119
_cell_formula_units_Z   2
loop_
 _symmetry_equiv_pos_site_id
 _symmetry_equiv_pos_as_xyz
  1  'x, y, z'
loop_
 _atom_site_type_symbol
 _atom_site_label
 _atom_site_symmetry_multiplicity
 _atom_site_fract_x
 _atom_site_fract_y
 _atom_site_fract_z
 _atom_site_occupancy
  Dy  Dy0  1  1.00000003  0.33333333  0.66666666  1
  Lu  Lu1  1  1.00000003  0.66666667  0.33333333  1
  Lu  Lu2  1  0.50000002  0.66666667  0.33333333  1
  Dy  Dy3  1  0.50000002  0.33333333  0.66666666  1
  Lu  Lu4  1  0.25000001  0.25501700  -0.00000000  1
  Lu  Lu5  1  0.25000001  0.74498300  0.74498300  1
  Lu  Lu6  1  0.25000001  0.00000000  0.25501700  1
  Lu  Lu7  1  0.75000002  0.74498300  -0.00000000  1
  Lu  Lu8  1  0.75000002  0.25501700  0.25501700  1
  Lu  Lu9  1  0.75000002  0.00000000  0.74498300  1
  Sn  Sn10  1  0.25000001  0.60735500  -0.00000000  1
  Sn  Sn11  1  0.25000001  0.39264500  0.39264500  1
  Sn  Sn12  1  0.25000001  0.00000000  0.60735500  1
  Sn  Sn13  1  0.75000002  0.39264500  1.00000000  1
  Sn  Sn14  1  0.75000002  0.60735500  0.60735500  1
  Sn  Sn15  1  0.75000002  0.00000000  0.39264500  1
