# generated using pymatgen
data_LiNbV2(NiO4)2
_symmetry_space_group_name_H-M   'P 1'
_cell_length_a   5.38152361
_cell_length_b   5.38152361
_cell_length_c   5.38152361
_cell_angle_alpha   101.19522858
_cell_angle_beta   101.19522858
_cell_angle_gamma   101.19523621
_symmetry_Int_Tables_number   1
_chemical_formula_structural   LiNbV2(NiO4)2
_chemical_formula_sum   'Li1 Nb1 V2 Ni2 O8'
_cell_volume   145.56029828
_cell_formula_units_Z   1
loop_
 _symmetry_equiv_pos_site_id
 _symmetry_equiv_pos_as_xyz
  1  'x, y, z'
loop_
 _atom_site_type_symbol
 _atom_site_label
 _atom_site_symmetry_multiplicity
 _atom_site_fract_x
 _atom_site_fract_y
 _atom_site_fract_z
 _atom_site_occupancy
  Li  Li0  1  0.49999998  0.49999999  0.50000003  1
  Nb  Nb1  1  0.65651700  0.00000000  0.34348302  1
  V  V2  1  -0.00000001  0.34348300  0.65651702  1
  V  V3  1  0.65651698  0.34348300  0.00000002  1
  Ni  Ni4  1  -0.00000002  0.65651699  0.34348302  1
  Ni  Ni5  1  0.34348300  0.00000000  0.65651702  1
  O  O6  1  0.34348298  0.65651699  0.00000001  1
  O  O7  1  0.00000000  0.00000000  0.00000000  1
  O  O8  1  0.72896299  0.08287900  0.72896303  1
  O  O9  1  0.72896297  0.72896299  0.08287902  1
  O  O10  1  0.27103697  0.91712099  0.27103702  1
  O  O11  1  0.27103699  0.27103700  0.91712103  1
  O  O12  1  0.91712099  0.27103700  0.27103703  1
  O  O13  1  0.08287897  0.72896299  0.72896303  1
