# generated using pymatgen
data_TmLuSn6
_symmetry_space_group_name_H-M   'P 1'
_cell_length_a   5.20594120
_cell_length_b   6.17402983
_cell_length_c   6.17403030
_cell_angle_alpha   60.00000000
_cell_angle_beta   90.00000000
_cell_angle_gamma   90.00000000
_symmetry_Int_Tables_number   1
_chemical_formula_structural   TmLuSn6
_chemical_formula_sum   'Tm1 Lu1 Sn6'
_cell_volume   171.85705698
_cell_formula_units_Z   1
loop_
 _symmetry_equiv_pos_site_id
 _symmetry_equiv_pos_as_xyz
  1  'x, y, z'
loop_
 _atom_site_type_symbol
 _atom_site_label
 _atom_site_symmetry_multiplicity
 _atom_site_fract_x
 _atom_site_fract_y
 _atom_site_fract_z
 _atom_site_occupancy
  Tm  Tm0  1  0.24999999  0.33333335  0.33333332  1
  Lu  Lu1  1  0.74999997  0.66666669  0.66666664  1
  Sn  Sn2  1  0.74999997  0.67983602  0.16008198  1
  Sn  Sn3  1  0.74999997  0.16008201  0.16008199  1
  Sn  Sn4  1  0.74999997  0.16008201  0.67983598  1
  Sn  Sn5  1  0.24999999  0.32016401  0.83991797  1
  Sn  Sn6  1  0.24999999  0.83991803  0.83991797  1
  Sn  Sn7  1  0.24999999  0.83991803  0.32016398  1
