# generated using pymatgen
data_Li2(FeCo)3
_symmetry_space_group_name_H-M   'P 1'
_cell_length_a   2.99387002
_cell_length_b   2.99387050
_cell_length_c   11.68566227
_cell_angle_alpha   90.00000000
_cell_angle_beta   90.00000000
_cell_angle_gamma   119.99999237
_symmetry_Int_Tables_number   1
_chemical_formula_structural   Li2(FeCo)3
_chemical_formula_sum   'Li2 Fe3 Co3'
_cell_volume   90.70890982
_cell_formula_units_Z   1
loop_
 _symmetry_equiv_pos_site_id
 _symmetry_equiv_pos_as_xyz
  1  'x, y, z'
loop_
 _atom_site_type_symbol
 _atom_site_label
 _atom_site_symmetry_multiplicity
 _atom_site_fract_x
 _atom_site_fract_y
 _atom_site_fract_z
 _atom_site_occupancy
  Li  Li0  1  0.00000000  0.00000000  0.00000000  1
  Li  Li1  1  0.00000000  0.00000000  0.49999999  1
  Fe  Fe2  1  0.66666664  0.33333332  0.24999999  1
  Fe  Fe3  1  0.33333330  0.66666664  0.74999998  1
  Fe  Fe4  1  0.66666664  0.33333332  0.63699099  1
  Co  Co5  1  0.33333330  0.66666664  0.13699100  1
  Co  Co6  1  0.66666664  0.33333332  0.86300898  1
  Co  Co7  1  0.33333330  0.66666664  0.36300899  1
