# generated using pymatgen
data_Li2NbO4
_symmetry_space_group_name_H-M   'P 1'
_cell_length_a   3.42311811
_cell_length_b   6.11209965
_cell_length_c   6.47963333
_cell_angle_alpha   117.72007751
_cell_angle_beta   105.31612396
_cell_angle_gamma   90.00000000
_symmetry_Int_Tables_number   1
_chemical_formula_structural   Li2NbO4
_chemical_formula_sum   'Li2 Nb1 O4'
_cell_volume   114.54327223
_cell_formula_units_Z   1
loop_
 _symmetry_equiv_pos_site_id
 _symmetry_equiv_pos_as_xyz
  1  'x, y, z'
loop_
 _atom_site_type_symbol
 _atom_site_label
 _atom_site_symmetry_multiplicity
 _atom_site_fract_x
 _atom_site_fract_y
 _atom_site_fract_z
 _atom_site_occupancy
  Li  Li0  1  0.00000000  0.00000000  0.00000000  1
  Li  Li1  1  0.25853901  0.27569099  0.51707800  1
  Nb  Nb2  1  0.74146102  0.72430897  0.48292200  1
  O  O3  1  0.12407302  0.44724798  0.24814599  1
  O  O4  1  0.87592701  0.55275198  0.75185401  1
  O  O5  1  0.36728899  0.02812600  0.73457800  1
  O  O6  1  0.63271103  0.97187396  0.26542200  1
