# generated using pymatgen
data_Sn2GeS3
_symmetry_space_group_name_H-M   'P 1'
_cell_length_a   3.95810699
_cell_length_b   5.33123207
_cell_length_c   8.11806202
_cell_angle_alpha   90.00000000
_cell_angle_beta   90.00000000
_cell_angle_gamma   90.00000000
_symmetry_Int_Tables_number   1
_chemical_formula_structural   Sn2GeS3
_chemical_formula_sum   'Sn2 Ge1 S3'
_cell_volume   171.30399157
_cell_formula_units_Z   1
loop_
 _symmetry_equiv_pos_site_id
 _symmetry_equiv_pos_as_xyz
  1  'x, y, z'
loop_
 _atom_site_type_symbol
 _atom_site_label
 _atom_site_symmetry_multiplicity
 _atom_site_fract_x
 _atom_site_fract_y
 _atom_site_fract_z
 _atom_site_occupancy
  Sn  Sn0  1  0.00000000  0.00000000  0.14166600  1
  Sn  Sn1  1  0.50000000  0.49999999  0.85833400  1
  Ge  Ge2  1  0.50000000  0.00000000  0.91040800  1
  S  S3  1  0.00000000  0.49999999  0.08959200  1
  S  S4  1  0.00000000  0.49999999  0.64145300  1
  S  S5  1  0.50000000  0.00000000  0.35854700  1
