# generated using pymatgen
data_Ti3Ni10
_symmetry_space_group_name_H-M   'P 1'
_cell_length_a   4.68213415
_cell_length_b   6.42235708
_cell_length_c   6.42235756
_cell_angle_alpha   81.91060638
_cell_angle_beta   68.62204742
_cell_angle_gamma   68.62206268
_symmetry_Int_Tables_number   1
_chemical_formula_structural   Ti3Ni10
_chemical_formula_sum   'Ti3 Ni10'
_cell_volume   167.45472305
_cell_formula_units_Z   1
loop_
 _symmetry_equiv_pos_site_id
 _symmetry_equiv_pos_as_xyz
  1  'x, y, z'
loop_
 _atom_site_type_symbol
 _atom_site_label
 _atom_site_symmetry_multiplicity
 _atom_site_fract_x
 _atom_site_fract_y
 _atom_site_fract_z
 _atom_site_occupancy
  Ti  Ti0  1  0.00000000  0.00000000  0.00000000  1
  Ti  Ti1  1  0.64148996  0.35851000  0.35851001  1
  Ti  Ti2  1  0.35850995  0.64148999  0.64149002  1
  Ni  Ni3  1  0.99999997  0.00000000  0.49999999  1
  Ni  Ni4  1  0.49999999  0.00000000  0.50000000  1
  Ni  Ni5  1  0.49999995  0.49999999  1.00000002  1
  Ni  Ni6  1  0.99999994  0.49999999  -0.00000000  1
  Ni  Ni7  1  0.49999993  0.77502699  0.22497301  1
  Ni  Ni8  1  0.49999997  0.22497300  0.77502701  1
  Ni  Ni9  1  0.72744393  0.77255599  0.77255602  1
  Ni  Ni10  1  0.27255598  0.22744400  0.22744401  1
  Ni  Ni11  1  0.99999995  0.35918800  0.64081200  1
  Ni  Ni12  1  0.99999993  0.64081199  0.35918801  1
