# generated using pymatgen
data_Li8CuO11
_symmetry_space_group_name_H-M   'P 1'
_cell_length_a   5.16780186
_cell_length_b   5.16780233
_cell_length_c   9.60760307
_cell_angle_alpha   90.00000000
_cell_angle_beta   90.00000000
_cell_angle_gamma   120.00000000
_symmetry_Int_Tables_number   1
_chemical_formula_structural   Li8CuO11
_chemical_formula_sum   'Li8 Cu1 O11'
_cell_volume   222.20684418
_cell_formula_units_Z   1
loop_
 _symmetry_equiv_pos_site_id
 _symmetry_equiv_pos_as_xyz
  1  'x, y, z'
loop_
 _atom_site_type_symbol
 _atom_site_label
 _atom_site_symmetry_multiplicity
 _atom_site_fract_x
 _atom_site_fract_y
 _atom_site_fract_z
 _atom_site_occupancy
  Li  Li0  1  0.66666669  0.33333333  0.02345200  1
  Li  Li1  1  0.66666669  0.33333333  0.74999999  1
  Li  Li2  1  0.00000000  0.00000000  0.00000000  1
  Li  Li3  1  0.00000000  0.00000000  0.50000000  1
  Li  Li4  1  0.66666669  0.33333333  0.47654800  1
  Li  Li5  1  0.33333336  0.66666665  0.25000000  1
  Li  Li6  1  0.33333336  0.66666665  0.97654799  1
  Li  Li7  1  0.33333336  0.66666665  0.52345200  1
  O  O8  1  0.97414304  0.64969798  0.88358299  1
  Cu  Cu9  1  0.02585701  0.67555598  0.38358300  1
  O  O10  1  0.97414303  0.32444399  0.61641700  1
  O  O11  1  0.02585701  0.35030199  0.11641700  1
  O  O12  1  0.67555502  0.02585600  0.88358299  1
  O  O13  1  0.64969904  0.97414398  0.38358300  1
  O  O14  1  0.67555503  0.64969798  0.61641700  1
  O  O15  1  0.64969903  0.67555598  0.11641700  1
  O  O16  1  0.35030101  0.02585600  0.61641700  1
  O  O17  1  0.32444503  0.97414398  0.11641700  1
  O  O18  1  0.35030102  0.32444399  0.88358299  1
  O  O19  1  0.32444502  0.35030199  0.38358300  1
