# generated using pymatgen
data_Ce4Ga9
_symmetry_space_group_name_H-M   'P 1'
_cell_length_a   6.01451588
_cell_length_b   7.83321857
_cell_length_c   7.83321857
_cell_angle_alpha   81.52443695
_cell_angle_beta   67.42385864
_cell_angle_gamma   67.42385864
_symmetry_Int_Tables_number   1
_chemical_formula_structural   Ce4Ga9
_chemical_formula_sum   'Ce4 Ga9'
_cell_volume   314.65369717
_cell_formula_units_Z   1
loop_
 _symmetry_equiv_pos_site_id
 _symmetry_equiv_pos_as_xyz
  1  'x, y, z'
loop_
 _atom_site_type_symbol
 _atom_site_label
 _atom_site_symmetry_multiplicity
 _atom_site_fract_x
 _atom_site_fract_y
 _atom_site_fract_z
 _atom_site_occupancy
  Ce  Ce0  1  0.00000000  0.00000000  0.00000000  1
  Ce  Ce1  1  0.28321702  0.21678299  0.21678301  1
  Ce  Ce2  1  0.00000006  0.64699396  0.35300598  1
  Ce  Ce3  1  0.35300606  0.64699396  0.64699399  1
  Ga  Ga4  1  0.64699403  0.35300598  0.35300602  1
  Ga  Ga5  1  0.50000007  0.78321696  0.21678301  1
  Ga  Ga6  1  0.00000000  0.00000000  0.49999999  1
  Ga  Ga7  1  0.71678307  0.78321696  0.78321700  1
  Ga  Ga8  1  0.00000005  0.49999997  -0.00000001  1
  Ga  Ga9  1  0.00000003  0.35300598  0.64699398  1
  Ga  Ga10  1  0.50000002  0.21678299  0.78321700  1
  Ga  Ga11  1  0.50000004  0.49999997  0.00000002  1
  Ga  Ga12  1  0.50000000  0.00000000  0.50000001  1
