# generated using pymatgen
data_Ce2Ga3Pd5
_symmetry_space_group_name_H-M   'P 1'
_cell_length_a   4.42576122
_cell_length_b   4.42576122
_cell_length_c   10.20785141
_cell_angle_alpha   90.00000000
_cell_angle_beta   90.00000000
_cell_angle_gamma   90.00000000
_symmetry_Int_Tables_number   1
_chemical_formula_structural   Ce2Ga3Pd5
_chemical_formula_sum   'Ce2 Ga3 Pd5'
_cell_volume   199.94488491
_cell_formula_units_Z   1
loop_
 _symmetry_equiv_pos_site_id
 _symmetry_equiv_pos_as_xyz
  1  'x, y, z'
loop_
 _atom_site_type_symbol
 _atom_site_label
 _atom_site_symmetry_multiplicity
 _atom_site_fract_x
 _atom_site_fract_y
 _atom_site_fract_z
 _atom_site_occupancy
  Ce  Ce0  1  0.49999997  0.00000000  0.25221899  1
  Ce  Ce1  1  -0.00000000  0.49999997  0.74778097  1
  Ga  Ga2  1  0.00000000  0.00000000  0.49999998  1
  Ga  Ga3  1  0.49999997  0.00000000  0.87872796  1
  Ga  Ga4  1  -0.00000000  0.49999997  0.12127200  1
  Pd  Pd5  1  0.49999997  0.49999997  0.49999998  1
  Pd  Pd6  1  0.49999997  0.49999997  -0.00000000  1
  Pd  Pd7  1  0.00000000  0.00000000  0.00000000  1
  Pd  Pd8  1  0.49999997  0.00000000  0.63210697  1
  Pd  Pd9  1  -0.00000000  0.49999997  0.36789299  1
