# generated using pymatgen
data_Li3Mn2Fe7
_symmetry_space_group_name_H-M   'P 1'
_cell_length_a   5.03593493
_cell_length_b   5.03593397
_cell_length_c   8.74619007
_cell_angle_alpha   73.26814270
_cell_angle_beta   73.26814270
_cell_angle_gamma   60.00000000
_symmetry_Int_Tables_number   1
_chemical_formula_structural   Li3Mn2Fe7
_chemical_formula_sum   'Li3 Mn2 Fe7'
_cell_volume   181.16748126
_cell_formula_units_Z   1
loop_
 _symmetry_equiv_pos_site_id
 _symmetry_equiv_pos_as_xyz
  1  'x, y, z'
loop_
 _atom_site_type_symbol
 _atom_site_label
 _atom_site_symmetry_multiplicity
 _atom_site_fract_x
 _atom_site_fract_y
 _atom_site_fract_z
 _atom_site_occupancy
  Li  Li0  1  0.13963500  0.13963501  0.58109597  1
  Li  Li1  1  0.86036500  0.86036505  0.41890397  1
  Li  Li2  1  0.00000000  0.00000000  0.00000000  1
  Mn  Mn3  1  0.58015800  0.58015803  0.75952596  1
  Mn  Mn4  1  0.58015801  0.08015800  0.75952596  1
  Fe  Fe5  1  0.08015799  0.58015803  0.75952596  1
  Fe  Fe6  1  0.41984200  0.41984202  0.24047398  1
  Fe  Fe7  1  0.41984199  0.91984205  0.24047398  1
  Fe  Fe8  1  0.91984201  0.41984202  0.24047398  1
  Fe  Fe9  1  0.33450500  0.33450502  0.99648595  1
  Fe  Fe10  1  0.66549500  0.66549504  0.00351399  1
  Fe  Fe11  1  0.50000000  0.50000003  0.49999997  1
