# generated using pymatgen
data_Ce2Sn3
_symmetry_space_group_name_H-M   'P 1'
_cell_length_a   3.96991897
_cell_length_b   8.04261494
_cell_length_c   8.04261494
_cell_angle_alpha   90.00000000
_cell_angle_beta   90.00000000
_cell_angle_gamma   90.00000000
_symmetry_Int_Tables_number   1
_chemical_formula_structural   Ce2Sn3
_chemical_formula_sum   'Ce4 Sn6'
_cell_volume   256.78886888
_cell_formula_units_Z   2
loop_
 _symmetry_equiv_pos_site_id
 _symmetry_equiv_pos_as_xyz
  1  'x, y, z'
loop_
 _atom_site_type_symbol
 _atom_site_label
 _atom_site_symmetry_multiplicity
 _atom_site_fract_x
 _atom_site_fract_y
 _atom_site_fract_z
 _atom_site_occupancy
  Ce  Ce0  1  0.50000000  0.67796901  0.17796900  1
  Ce  Ce1  1  0.50000000  0.17796900  0.32203100  1
  Ce  Ce2  1  0.50000000  0.82203101  0.67796901  1
  Ce  Ce3  1  0.50000000  0.32203100  0.82203101  1
  Sn  Sn4  1  0.00000000  0.37603400  0.12396600  1
  Sn  Sn5  1  0.00000000  0.12396600  0.62396600  1
  Sn  Sn6  1  0.00000000  0.62396600  0.87603401  1
  Sn  Sn7  1  0.00000000  0.87603401  0.37603400  1
  Sn  Sn8  1  0.00000000  0.00000000  0.00000000  1
  Sn  Sn9  1  0.00000000  0.50000000  0.50000000  1
