# generated using pymatgen
data_LaCe3O8
_symmetry_space_group_name_H-M   'P 1'
_cell_length_a   4.12153912
_cell_length_b   5.48030186
_cell_length_c   7.85104799
_cell_angle_alpha   90.00000000
_cell_angle_beta   90.00000000
_cell_angle_gamma   90.00000000
_symmetry_Int_Tables_number   1
_chemical_formula_structural   LaCe3O8
_chemical_formula_sum   'La1 Ce3 O8'
_cell_volume   177.33380730
_cell_formula_units_Z   1
loop_
 _symmetry_equiv_pos_site_id
 _symmetry_equiv_pos_as_xyz
  1  'x, y, z'
loop_
 _atom_site_type_symbol
 _atom_site_label
 _atom_site_symmetry_multiplicity
 _atom_site_fract_x
 _atom_site_fract_y
 _atom_site_fract_z
 _atom_site_occupancy
  Ce  Ce0  1  0.74999998  0.80323602  0.89529000  1
  Ce  Ce1  1  0.24999999  0.19676401  0.10471000  1
  Ce  Ce2  1  0.74999998  0.30323601  0.60471000  1
  La  La3  1  0.24999999  0.69676402  0.39529000  1
  O  O4  1  0.74999998  0.45924201  0.28865400  1
  O  O5  1  0.24999999  0.54075801  0.71134600  1
  O  O6  1  0.74999998  0.95924203  0.21134600  1
  O  O7  1  0.24999999  0.04075800  0.78865400  1
  O  O8  1  0.74999998  0.33425001  0.93304100  1
  O  O9  1  0.24999999  0.66575002  0.06695900  1
  O  O10  1  0.74999998  0.83425002  0.56695900  1
  O  O11  1  0.24999999  0.16575000  0.43304100  1
