# generated using pymatgen
data_Dy4Lu2Pd3
_symmetry_space_group_name_H-M   'P 1'
_cell_length_a   4.33438396
_cell_length_b   7.22309589
_cell_length_c   7.22309542
_cell_angle_alpha   120.00000000
_cell_angle_beta   90.00000000
_cell_angle_gamma   90.00000000
_symmetry_Int_Tables_number   1
_chemical_formula_structural   Dy4Lu2Pd3
_chemical_formula_sum   'Dy4 Lu2 Pd3'
_cell_volume   195.84150827
_cell_formula_units_Z   1
loop_
 _symmetry_equiv_pos_site_id
 _symmetry_equiv_pos_as_xyz
  1  'x, y, z'
loop_
 _atom_site_type_symbol
 _atom_site_label
 _atom_site_symmetry_multiplicity
 _atom_site_fract_x
 _atom_site_fract_y
 _atom_site_fract_z
 _atom_site_occupancy
  Dy  Dy0  1  0.50000000  0.76705899  0.76705896  1
  Dy  Dy1  1  0.50000000  0.23294100  0.99999999  1
  Dy  Dy2  1  0.50000000  0.00000000  0.23294100  1
  Lu  Lu3  1  -0.00000000  0.00000000  0.57949400  1
  Lu  Lu4  1  -0.00000000  0.42050600  0.42050598  1
  Dy  Dy5  1  -0.00000000  0.57949399  0.99999998  1
  Pd  Pd6  1  0.50000000  0.66666666  0.33333330  1
  Pd  Pd7  1  0.50000000  0.33333333  0.66666665  1
  Pd  Pd8  1  0.00000000  0.00000000  0.00000000  1
