# generated using pymatgen
data_Li7SbO6
_symmetry_space_group_name_H-M   'P 1'
_cell_length_a   3.74322701
_cell_length_b   3.74322701
_cell_length_c   13.01488781
_cell_angle_alpha   90.00000000
_cell_angle_beta   90.00000000
_cell_angle_gamma   90.00000000
_symmetry_Int_Tables_number   1
_chemical_formula_structural   Li7SbO6
_chemical_formula_sum   'Li7 Sb1 O6'
_cell_volume   182.36133359
_cell_formula_units_Z   1
loop_
 _symmetry_equiv_pos_site_id
 _symmetry_equiv_pos_as_xyz
  1  'x, y, z'
loop_
 _atom_site_type_symbol
 _atom_site_label
 _atom_site_symmetry_multiplicity
 _atom_site_fract_x
 _atom_site_fract_y
 _atom_site_fract_z
 _atom_site_occupancy
  Li  Li0  1  0.50000000  0.00000000  0.58270501  1
  Li  Li1  1  0.00000000  0.50000000  0.41729501  1
  Li  Li2  1  0.00000000  0.50000000  0.10680100  1
  Li  Li3  1  0.50000000  0.00000000  0.89319901  1
  Li  Li4  1  0.50000000  0.00000000  0.26841600  1
  Li  Li5  1  0.00000000  0.50000000  0.73158401  1
  Li  Li6  1  0.00000000  0.50000000  0.93210501  1
  Sb  Sb7  1  0.50000000  0.00000000  0.06789500  1
  O  O8  1  0.00000000  0.50000000  0.59561101  1
  O  O9  1  0.50000000  0.00000000  0.40438901  1
  O  O10  1  0.00000000  0.00000000  0.23027600  1
  O  O11  1  0.50000000  0.50000000  0.23027600  1
  O  O12  1  0.00000000  0.00000000  0.76972401  1
  O  O13  1  0.50000000  0.50000000  0.76972401  1
