# generated using pymatgen
data_Li5MnO2
_symmetry_space_group_name_H-M   'P 1'
_cell_length_a   4.00228310
_cell_length_b   4.00228310
_cell_length_c   10.66105938
_cell_angle_alpha   79.18107605
_cell_angle_beta   79.18107605
_cell_angle_gamma   60.00001526
_symmetry_Int_Tables_number   1
_chemical_formula_structural   Li5MnO2
_chemical_formula_sum   'Li5 Mn1 O2'
_cell_volume   144.37704486
_cell_formula_units_Z   1
loop_
 _symmetry_equiv_pos_site_id
 _symmetry_equiv_pos_as_xyz
  1  'x, y, z'
loop_
 _atom_site_type_symbol
 _atom_site_label
 _atom_site_symmetry_multiplicity
 _atom_site_fract_x
 _atom_site_fract_y
 _atom_site_fract_z
 _atom_site_occupancy
  Li  Li0  1  0.61869501  0.61869500  0.14391497  1
  Li  Li1  1  0.38130501  0.38130500  0.85608495  1
  Li  Li2  1  0.19612300  0.19612300  0.41163098  1
  Li  Li3  1  0.80387701  0.80387700  0.58836895  1
  Li  Li4  1  0.11418000  0.11418000  0.65745997  1
  Mn  Mn5  1  0.88582002  0.88582000  0.34253995  1
  O  O6  1  0.69493301  0.69493300  0.91520094  1
  O  O7  1  0.30506701  0.30506700  0.08479898  1
