# generated using pymatgen
data_Al
_symmetry_space_group_name_H-M   'P 1'
_cell_length_a   5.01699781
_cell_length_b   6.60887289
_cell_length_c   6.60887289
_cell_angle_alpha   81.83909607
_cell_angle_beta   67.69323730
_cell_angle_gamma   67.69323730
_symmetry_Int_Tables_number   1
_chemical_formula_structural   Al
_chemical_formula_sum   Al13
_cell_volume   187.55804639
_cell_formula_units_Z   13
loop_
 _symmetry_equiv_pos_site_id
 _symmetry_equiv_pos_as_xyz
  1  'x, y, z'
loop_
 _atom_site_type_symbol
 _atom_site_label
 _atom_site_symmetry_multiplicity
 _atom_site_fract_x
 _atom_site_fract_y
 _atom_site_fract_z
 _atom_site_occupancy
  Al  Al0  1  0.00482194  0.99517804  0.99517801  1
  Al  Al1  1  0.65981502  0.34018501  0.34018498  1
  Al  Al2  1  0.33930998  0.66069002  0.66068999  1
  Al  Al3  1  0.99164403  0.35105301  0.66565897  1
  Al  Al4  1  0.99164402  0.66565902  0.35105396  1
  Al  Al5  1  0.27463400  0.22536601  0.22536599  1
  Al  Al6  1  0.50446898  0.78403803  0.20702398  1
  Al  Al7  1  0.50446902  0.20702401  0.78403799  1
  Al  Al8  1  0.49610503  0.00208000  0.50104799  1
  Al  Al9  1  0.00076700  0.00208000  0.50104801  1
  Al  Al10  1  0.49610500  0.50104802  0.00207998  1
  Al  Al11  1  0.00076697  0.50104802  0.00208000  1
  Al  Al12  1  0.73544900  0.76455103  0.76455098  1
