# generated using pymatgen
data_VMoS3
_symmetry_space_group_name_H-M   'P 1'
_cell_length_a   2.52897811
_cell_length_b   2.52897811
_cell_length_c   10.25721836
_cell_angle_alpha   82.91867828
_cell_angle_beta   82.91867828
_cell_angle_gamma   59.99999619
_symmetry_Int_Tables_number   1
_chemical_formula_structural   VMoS3
_chemical_formula_sum   'V1 Mo1 S3'
_cell_volume   56.23478638
_cell_formula_units_Z   1
loop_
 _symmetry_equiv_pos_site_id
 _symmetry_equiv_pos_as_xyz
  1  'x, y, z'
loop_
 _atom_site_type_symbol
 _atom_site_label
 _atom_site_symmetry_multiplicity
 _atom_site_fract_x
 _atom_site_fract_y
 _atom_site_fract_z
 _atom_site_occupancy
  V  V0  1  0.00000000  0.00000000  0.00000000  1
  Mo  Mo1  1  0.59868602  0.59868601  0.20394198  1
  S  S2  1  0.19941801  0.19941800  0.40174598  1
  S  S3  1  0.80058202  0.80058201  0.59825396  1
  S  S4  1  0.40131401  0.40131401  0.79605797  1
