# generated using pymatgen
data_Ti5NiO14
_symmetry_space_group_name_H-M   'P 1'
_cell_length_a   7.22182798
_cell_length_b   7.22373104
_cell_length_c   7.22373104
_cell_angle_alpha   60.43076706
_cell_angle_beta   60.00871658
_cell_angle_gamma   60.00871658
_symmetry_Int_Tables_number   1
_chemical_formula_structural   Ti5NiO14
_chemical_formula_sum   'Ti5 Ni1 O14'
_cell_volume   267.36637909
_cell_formula_units_Z   1
loop_
 _symmetry_equiv_pos_site_id
 _symmetry_equiv_pos_as_xyz
  1  'x, y, z'
loop_
 _atom_site_type_symbol
 _atom_site_label
 _atom_site_symmetry_multiplicity
 _atom_site_fract_x
 _atom_site_fract_y
 _atom_site_fract_z
 _atom_site_occupancy
  Ti  Ti0  1  0.25000000  0.23053900  0.76946102  1
  Ti  Ti1  1  0.74999999  0.26946100  0.73053904  1
  Ti  Ti2  1  0.74486099  0.25000000  0.25000003  1
  Ti  Ti3  1  0.75513901  0.75000000  0.75000004  1
  Ni  Ni4  1  0.25000001  0.74838000  0.25162001  1
  Ti  Ti5  1  0.75000001  0.75162000  0.24838003  1
  O  O6  1  0.67418299  0.07581700  0.57581703  1
  O  O7  1  0.44952901  0.80047100  0.30047102  1
  O  O8  1  0.68740001  0.66255000  0.57810903  1
  O  O9  1  0.07194100  0.07810900  0.16255001  1
  O  O10  1  0.69227099  0.07310300  0.16792003  1
  O  O11  1  0.06670602  0.66792000  0.57310301  1
  O  O12  1  0.38703800  0.36296200  0.86296203  1
  O  O13  1  0.80772901  0.83208000  0.92689704  1
  O  O14  1  0.42805901  0.83745000  0.92189103  1
  O  O15  1  0.43329400  0.42689700  0.33208002  1
  O  O16  1  0.11296200  0.13703800  0.63703801  1
  O  O17  1  0.81260000  0.42189100  0.33745003  1
  O  O18  1  0.05047102  0.69952900  0.19952900  1
  O  O19  1  0.82581700  0.42418300  0.92418304  1
