# generated using pymatgen
data_K4MnBi2Sb3PbI5
_symmetry_space_group_name_H-M   'P 1'
_cell_length_a   5.82861185
_cell_length_b   8.02981472
_cell_length_c   13.35981560
_cell_angle_alpha   85.45909882
_cell_angle_beta   77.40020752
_cell_angle_gamma   68.71940613
_symmetry_Int_Tables_number   1
_chemical_formula_structural   K4MnBi2Sb3PbI5
_chemical_formula_sum   'K4 Mn1 Bi2 Sb3 Pb1 I5'
_cell_volume   568.60880441
_cell_formula_units_Z   1
loop_
 _symmetry_equiv_pos_site_id
 _symmetry_equiv_pos_as_xyz
  1  'x, y, z'
loop_
 _atom_site_type_symbol
 _atom_site_label
 _atom_site_symmetry_multiplicity
 _atom_site_fract_x
 _atom_site_fract_y
 _atom_site_fract_z
 _atom_site_occupancy
  K  K0  1  0.07223203  0.49999997  0.85553600  1
  K  K1  1  0.42776804  0.49999997  0.14446398  1
  K  K2  1  0.67776802  0.00000000  0.64446401  1
  K  K3  1  0.32223201  0.00000000  0.35553601  1
  Mn  Mn4  1  0.50000002  0.00000000  -0.00000001  1
  Sb  Sb5  1  0.25000004  0.49999997  0.49999999  1
  Sb  Sb6  1  0.75000005  0.49999997  0.49999998  1
  Sb  Sb7  1  0.00000000  0.00000000  0.00000000  1
  Bi  Bi8  1  0.70543903  0.18682899  0.89336901  1
  I  I9  1  0.78563707  0.81317095  0.10663096  1
  I  I10  1  0.10773201  0.18682899  0.10663099  1
  Bi  Bi11  1  0.40119206  0.81317095  0.89336899  1
  I  I12  1  0.64226804  0.31317098  0.39336899  1
  I  I13  1  0.34880805  0.68682896  0.60663098  1
  I  I14  1  0.96436307  0.68682896  0.39336897  1
  Pb  Pb15  1  0.04456102  0.31317098  0.60663100  1
