# generated using pymatgen
data_Ce4CuSnS12
_symmetry_space_group_name_H-M   'P 1'
_cell_length_a   7.51358557
_cell_length_b   7.51358557
_cell_length_c   7.51632023
_cell_angle_alpha   69.46222687
_cell_angle_beta   69.46222687
_cell_angle_gamma   69.30270386
_symmetry_Int_Tables_number   1
_chemical_formula_structural   Ce4CuSnS12
_chemical_formula_sum   'Ce4 Cu1 Sn1 S12'
_cell_volume   359.03348538
_cell_formula_units_Z   1
loop_
 _symmetry_equiv_pos_site_id
 _symmetry_equiv_pos_as_xyz
  1  'x, y, z'
loop_
 _atom_site_type_symbol
 _atom_site_label
 _atom_site_symmetry_multiplicity
 _atom_site_fract_x
 _atom_site_fract_y
 _atom_site_fract_z
 _atom_site_occupancy
  Ce  Ce0  1  0.88177901  0.88177901  0.46750892  1
  Ce  Ce1  1  0.11716700  0.53285600  0.11636897  1
  Ce  Ce2  1  0.53285600  0.11716700  0.11636897  1
  Ce  Ce3  1  0.11775700  0.11775700  0.53379000  1
  Cu  Cu4  1  0.29927300  0.81632701  0.29122495  1
  S  S5  1  0.81632701  0.29927300  0.29122495  1
  Sn  Sn6  1  0.29417600  0.29417600  0.81781299  1
  S  S7  1  0.70088601  0.18571500  0.70557997  1
  S  S8  1  0.18571500  0.70088601  0.70557997  1
  S  S9  1  0.70301701  0.70301701  0.18235593  1
  S  S10  1  0.50896000  0.82523201  0.51328194  1
  S  S11  1  0.82523201  0.50896000  0.51328194  1
  S  S12  1  0.51171900  0.51171900  0.82782997  1
  S  S13  1  0.49092000  0.17334200  0.49186698  1
  S  S14  1  0.17334200  0.49092000  0.49186698  1
  S  S15  1  0.49113900  0.49113900  0.17215095  1
  S  S16  1  0.92179501  0.92179501  0.92271892  1
  S  S17  1  0.07974000  0.07974000  0.07538199  1
