# generated using pymatgen
data_KTlSeO2
_symmetry_space_group_name_H-M   'P 1'
_cell_length_a   4.09424210
_cell_length_b   4.09424210
_cell_length_c   7.71022034
_cell_angle_alpha   105.39710999
_cell_angle_beta   105.39710999
_cell_angle_gamma   90.00000000
_symmetry_Int_Tables_number   1
_chemical_formula_structural   KTlSeO2
_chemical_formula_sum   'K1 Tl1 Se1 O2'
_cell_volume   119.78800410
_cell_formula_units_Z   1
loop_
 _symmetry_equiv_pos_site_id
 _symmetry_equiv_pos_as_xyz
  1  'x, y, z'
loop_
 _atom_site_type_symbol
 _atom_site_label
 _atom_site_symmetry_multiplicity
 _atom_site_fract_x
 _atom_site_fract_y
 _atom_site_fract_z
 _atom_site_occupancy
  K  K0  1  0.66585700  0.66585699  0.33171402  1
  Tl  Tl1  1  0.33414300  0.33414300  0.66828601  1
  Se  Se2  1  0.00000000  0.00000000  0.00000000  1
  O  O3  1  0.74999999  0.25000000  0.50000001  1
  O  O4  1  0.25000001  0.74999999  0.50000001  1
