# generated using pymatgen
data_Li
_symmetry_space_group_name_H-M   'P 1'
_cell_length_a   4.01747084
_cell_length_b   4.01747084
_cell_length_c   13.06449032
_cell_angle_alpha   81.15538025
_cell_angle_beta   81.15538025
_cell_angle_gamma   60.00000000
_symmetry_Int_Tables_number   1
_chemical_formula_structural   Li
_chemical_formula_sum   Li8
_cell_volume   179.71059511
_cell_formula_units_Z   8
loop_
 _symmetry_equiv_pos_site_id
 _symmetry_equiv_pos_as_xyz
  1  'x, y, z'
loop_
 _atom_site_type_symbol
 _atom_site_label
 _atom_site_symmetry_multiplicity
 _atom_site_fract_x
 _atom_site_fract_y
 _atom_site_fract_z
 _atom_site_occupancy
  Li  Li0  1  0.62433903  0.62434003  0.12698201  1
  Li  Li1  1  0.87283704  0.87283804  0.38148801  1
  Li  Li2  1  0.37566102  0.37566002  0.87301802  1
  Li  Li3  1  0.12716301  0.12716201  0.61851201  1
  Li  Li4  1  0.00000000  0.00000000  0.00000000  1
  Li  Li5  1  0.75274404  0.75274403  0.74176802  1
  Li  Li6  1  0.50000002  0.50000002  0.50000001  1
  Li  Li7  1  0.24725601  0.24725601  0.25823201  1
