# generated using pymatgen
data_Li4MgNiSn2O5
_symmetry_space_group_name_H-M   'P 1'
_cell_length_a   6.86785650
_cell_length_b   6.86785650
_cell_length_c   7.87076187
_cell_angle_alpha   64.13264465
_cell_angle_beta   64.13264465
_cell_angle_gamma   59.99999619
_symmetry_Int_Tables_number   1
_chemical_formula_structural   Li4MgNiSn2O5
_chemical_formula_sum   'Li4 Mg1 Ni1 Sn2 O5'
_cell_volume   277.72700757
_cell_formula_units_Z   1
loop_
 _symmetry_equiv_pos_site_id
 _symmetry_equiv_pos_as_xyz
  1  'x, y, z'
loop_
 _atom_site_type_symbol
 _atom_site_label
 _atom_site_symmetry_multiplicity
 _atom_site_fract_x
 _atom_site_fract_y
 _atom_site_fract_z
 _atom_site_occupancy
  Li  Li0  1  0.50000001  0.50000000  0.49999996  1
  Li  Li1  1  0.50000000  0.00000000  -0.00000002  1
  Li  Li2  1  0.00000001  0.50000000  -0.00000002  1
  Li  Li3  1  0.50000001  0.50000000  -0.00000004  1
  Mg  Mg4  1  0.00000000  0.00000000  0.00000000  1
  O  O5  1  0.76421901  0.25835100  0.21321096  1
  Ni  Ni6  1  0.23578101  0.23578100  0.78678898  1
  O  O7  1  0.23578102  0.74164899  0.78678896  1
  O  O8  1  0.74164901  0.23578100  0.78678896  1
  Sn  Sn9  1  0.26400101  0.26400100  0.20799698  1
  Sn  Sn10  1  0.73599902  0.73599899  0.79200294  1
  O  O11  1  0.25835102  0.76421899  0.21321096  1
  O  O12  1  0.76421902  0.76421899  0.21321094  1
