# generated using pymatgen
data_Dy4Y3Pd5
_symmetry_space_group_name_H-M   'P 1'
_cell_length_a   4.08008003
_cell_length_b   7.32530260
_cell_length_c   10.41967869
_cell_angle_alpha   98.30326080
_cell_angle_beta   101.29071808
_cell_angle_gamma   90.00000000
_symmetry_Int_Tables_number   1
_chemical_formula_structural   Dy4Y3Pd5
_chemical_formula_sum   'Dy4 Y3 Pd5'
_cell_volume   302.06477745
_cell_formula_units_Z   1
loop_
 _symmetry_equiv_pos_site_id
 _symmetry_equiv_pos_as_xyz
  1  'x, y, z'
loop_
 _atom_site_type_symbol
 _atom_site_label
 _atom_site_symmetry_multiplicity
 _atom_site_fract_x
 _atom_site_fract_y
 _atom_site_fract_z
 _atom_site_occupancy
  Dy  Dy0  1  0.64595200  0.05452900  0.29190400  1
  Dy  Dy1  1  0.35404801  0.94547100  0.70809598  1
  Dy  Dy2  1  0.71341401  0.42582600  0.42682800  1
  Y  Y3  1  0.28658601  0.57417400  0.57317198  1
  Dy  Dy4  1  0.04877700  0.14936500  0.09755400  1
  Y  Y5  1  0.95122301  0.85063500  0.90244598  1
  Pd  Pd6  1  0.75057601  0.78553800  0.50115199  1
  Y  Y7  1  0.91861200  0.17990600  0.83722399  1
  Pd  Pd8  1  0.58362000  0.36481700  0.16724000  1
  Pd  Pd9  1  0.24942400  0.21446200  0.49884799  1
  Pd  Pd10  1  0.41638001  0.63518300  0.83275997  1
  Pd  Pd11  1  0.08138801  0.82009400  0.16277599  1
