# generated using pymatgen
data_GaFe
_symmetry_space_group_name_H-M   'P 1'
_cell_length_a   2.49993396
_cell_length_b   2.49993372
_cell_length_c   4.14376116
_cell_angle_alpha   90.00000000
_cell_angle_beta   90.00000000
_cell_angle_gamma   120.00000763
_symmetry_Int_Tables_number   1
_chemical_formula_structural   GaFe
_chemical_formula_sum   'Ga1 Fe1'
_cell_volume   22.42757635
_cell_formula_units_Z   1
loop_
 _symmetry_equiv_pos_site_id
 _symmetry_equiv_pos_as_xyz
  1  'x, y, z'
loop_
 _atom_site_type_symbol
 _atom_site_label
 _atom_site_symmetry_multiplicity
 _atom_site_fract_x
 _atom_site_fract_y
 _atom_site_fract_z
 _atom_site_occupancy
  Ga  Ga0  1  0.66666670  0.33333334  0.49999998  1
  Fe  Fe1  1  0.00000000  0.00000000  0.00000000  1
