# generated using pymatgen
data_Li7CoO8
_symmetry_space_group_name_H-M   'P 1'
_cell_length_a   6.06630898
_cell_length_b   6.10604525
_cell_length_c   6.11026287
_cell_angle_alpha   90.04313660
_cell_angle_beta   119.75861359
_cell_angle_gamma   119.77665710
_symmetry_Int_Tables_number   1
_chemical_formula_structural   Li7CoO8
_chemical_formula_sum   'Li7 Co1 O8'
_cell_volume   161.09887454
_cell_formula_units_Z   1
loop_
 _symmetry_equiv_pos_site_id
 _symmetry_equiv_pos_as_xyz
  1  'x, y, z'
loop_
 _atom_site_type_symbol
 _atom_site_label
 _atom_site_symmetry_multiplicity
 _atom_site_fract_x
 _atom_site_fract_y
 _atom_site_fract_z
 _atom_site_occupancy
  Li  Li0  1  0.49996599  0.00001400  0.49997899  1
  Li  Li1  1  0.99996797  0.00001500  0.49997899  1
  Li  Li2  1  0.49996199  0.00001200  0.99997997  1
  Li  Li3  1  0.99996297  0.00001300  0.99997797  1
  Li  Li4  1  0.99996702  0.50000903  0.49999002  1
  Li  Li5  1  0.49996404  0.50000903  0.49998402  1
  Li  Li6  1  0.49995204  0.50002003  0.99997401  1
  Co  Co7  1  0.99995302  0.50001103  0.99997301  1
  O  O8  1  0.99966705  0.74152804  0.24081805  1
  O  O9  1  0.48237006  0.74128304  0.24067505  1
  O  O10  1  0.51755101  0.25874301  0.75928000  1
  O  O11  1  0.00025503  0.25849801  0.75913700  1
  O  O12  1  0.49887501  0.24691601  0.25105401  1
  O  O13  1  0.99899600  0.25855201  0.23938501  1
  O  O14  1  0.00092308  0.74147704  0.76057003  1
  O  O15  1  0.50104306  0.75311204  0.74890204  1
