# generated using pymatgen
data_Ca3NdNiSn2AsO4
_symmetry_space_group_name_H-M   'P 1'
_cell_length_a   3.70076799
_cell_length_b   3.70076799
_cell_length_c   20.51449966
_cell_angle_alpha   90.00000000
_cell_angle_beta   90.00000000
_cell_angle_gamma   120.00000000
_symmetry_Int_Tables_number   1
_chemical_formula_structural   Ca3NdNiSn2AsO4
_chemical_formula_sum   'Ca3 Nd1 Ni1 Sn2 As1 O4'
_cell_volume   243.31858369
_cell_formula_units_Z   1
loop_
 _symmetry_equiv_pos_site_id
 _symmetry_equiv_pos_as_xyz
  1  'x, y, z'
loop_
 _atom_site_type_symbol
 _atom_site_label
 _atom_site_symmetry_multiplicity
 _atom_site_fract_x
 _atom_site_fract_y
 _atom_site_fract_z
 _atom_site_occupancy
  Nd  Nd0  1  0.33333332  0.66666665  0.89717797  1
  Ca  Ca1  1  0.66666666  0.33333332  0.55937798  1
  Ca  Ca2  1  0.00000000  0.00000000  0.22244099  1
  Ca  Ca3  1  0.00000000  0.00000000  0.77755897  1
  Sn  Sn4  1  0.33333332  0.66666665  0.44062199  1
  Ni  Ni5  1  0.66666666  0.33333332  0.10282200  1
  As  As6  1  0.33333332  0.66666665  0.66809198  1
  Sn  Sn7  1  0.66666666  0.33333332  0.33190799  1
  O  O8  1  0.66666666  0.33333332  0.83732097  1
  O  O9  1  0.00000000  0.00000000  0.49999998  1
  O  O10  1  0.33333332  0.66666665  0.16267899  1
  O  O11  1  0.00000000  0.00000000  0.00000000  1
