# generated using pymatgen
data_Na5Ti2Sn2O5
_symmetry_space_group_name_H-M   'P 1'
_cell_length_a   3.25596809
_cell_length_b   8.53970337
_cell_length_c   8.93633938
_cell_angle_alpha   104.42604828
_cell_angle_beta   100.49651337
_cell_angle_gamma   90.00000000
_symmetry_Int_Tables_number   1
_chemical_formula_structural   Na5Ti2Sn2O5
_chemical_formula_sum   'Na5 Ti2 Sn2 O5'
_cell_volume   236.34474665
_cell_formula_units_Z   1
loop_
 _symmetry_equiv_pos_site_id
 _symmetry_equiv_pos_as_xyz
  1  'x, y, z'
loop_
 _atom_site_type_symbol
 _atom_site_label
 _atom_site_symmetry_multiplicity
 _atom_site_fract_x
 _atom_site_fract_y
 _atom_site_fract_z
 _atom_site_occupancy
  Na  Na0  1  0.49999998  0.00000000  -0.00000000  1
  Na  Na1  1  -0.00000002  0.50000001  -0.00000003  1
  Na  Na2  1  0.71134895  0.85856001  0.42269797  1
  Na  Na3  1  0.28865099  0.14144000  0.57730202  1
  Na  Na4  1  0.64791396  0.49563401  0.29582798  1
  Ti  Ti5  1  0.35208597  0.50436601  0.70417200  1
  Ti  Ti6  1  0.83941597  0.00010100  0.67883203  1
  O  O7  1  0.16058396  0.99989902  0.32116796  1
  Sn  Sn8  1  0.75873196  0.34015901  0.51746400  1
  Sn  Sn9  1  0.24126797  0.65984101  0.48253599  1
  O  O10  1  0.91549695  0.68116401  0.83099400  1
  O  O11  1  0.08450299  0.31883600  0.16900599  1
  O  O12  1  0.57448696  0.67910701  0.14897397  1
  O  O13  1  0.42551298  0.32089300  0.85102602  1
