# generated using pymatgen
data_DyAl2
_symmetry_space_group_name_H-M   'P 1'
_cell_length_a   5.47187233
_cell_length_b   5.48295784
_cell_length_c   8.71880531
_cell_angle_alpha   90.00000000
_cell_angle_beta   90.00000000
_cell_angle_gamma   119.92832947
_symmetry_Int_Tables_number   1
_chemical_formula_structural   DyAl2
_chemical_formula_sum   'Dy4 Al8'
_cell_volume   226.70007759
_cell_formula_units_Z   4
loop_
 _symmetry_equiv_pos_site_id
 _symmetry_equiv_pos_as_xyz
  1  'x, y, z'
loop_
 _atom_site_type_symbol
 _atom_site_label
 _atom_site_symmetry_multiplicity
 _atom_site_fract_x
 _atom_site_fract_y
 _atom_site_fract_z
 _atom_site_occupancy
  Dy  Dy0  1  0.33280798  0.66550101  0.56350098  1
  Dy  Dy1  1  0.66243500  0.32495200  0.44956398  1
  Dy  Dy2  1  0.66243500  0.32495200  0.05043600  1
  Dy  Dy3  1  0.33280798  0.66550101  0.93649897  1
  Al  Al4  1  0.83928499  0.67848101  0.74999997  1
  Al  Al5  1  0.16198297  0.83677301  0.24999999  1
  Al  Al6  1  0.67478898  0.83675901  0.24999999  1
  Al  Al7  1  0.16272399  0.32544500  0.24999999  1
  Al  Al8  1  0.00719100  0.01445200  0.51227998  1
  Al  Al9  1  0.00719100  0.01445200  0.98771996  1
  Al  Al10  1  0.83721401  0.15640100  0.74999997  1
  Al  Al11  1  0.31913700  0.15633200  0.74999997  1
