# generated using pymatgen
data_Li2VSbO3
_symmetry_space_group_name_H-M   'P 1'
_cell_length_a   3.63152003
_cell_length_b   6.16464710
_cell_length_c   6.26434040
_cell_angle_alpha   118.68858337
_cell_angle_beta   106.84936523
_cell_angle_gamma   90.00000000
_symmetry_Int_Tables_number   1
_chemical_formula_structural   Li2VSbO3
_chemical_formula_sum   'Li2 V1 Sb1 O3'
_cell_volume   116.11472215
_cell_formula_units_Z   1
loop_
 _symmetry_equiv_pos_site_id
 _symmetry_equiv_pos_as_xyz
  1  'x, y, z'
loop_
 _atom_site_type_symbol
 _atom_site_label
 _atom_site_symmetry_multiplicity
 _atom_site_fract_x
 _atom_site_fract_y
 _atom_site_fract_z
 _atom_site_occupancy
  Li  Li0  1  0.25991399  0.27857999  0.51982801  1
  Li  Li1  1  0.99799898  0.00244100  0.99599799  1
  V  V2  1  0.74030598  0.72227098  0.48061201  1
  Sb  Sb3  1  0.12334999  0.45376699  0.24670001  1
  O  O4  1  0.87776798  0.53597199  0.75553600  1
  O  O5  1  0.36421499  0.02626500  0.72843000  1
  O  O6  1  0.63644798  0.98070498  0.27289602  1
