# generated using pymatgen
data_Ce2AlSi2
_symmetry_space_group_name_H-M   'P 1'
_cell_length_a   3.58166599
_cell_length_b   7.64221191
_cell_length_c   7.64221191
_cell_angle_alpha   90.00000000
_cell_angle_beta   90.00000000
_cell_angle_gamma   90.00000000
_symmetry_Int_Tables_number   1
_chemical_formula_structural   Ce2AlSi2
_chemical_formula_sum   'Ce4 Al2 Si4'
_cell_volume   209.18148217
_cell_formula_units_Z   2
loop_
 _symmetry_equiv_pos_site_id
 _symmetry_equiv_pos_as_xyz
  1  'x, y, z'
loop_
 _atom_site_type_symbol
 _atom_site_label
 _atom_site_symmetry_multiplicity
 _atom_site_fract_x
 _atom_site_fract_y
 _atom_site_fract_z
 _atom_site_occupancy
  Ce  Ce0  1  0.50000000  0.17460700  0.67460701  1
  Ce  Ce1  1  0.50000000  0.82539301  0.32539300  1
  Ce  Ce2  1  0.50000000  0.32539300  0.17460700  1
  Ce  Ce3  1  0.50000000  0.67460701  0.82539301  1
  Al  Al4  1  0.00000000  0.00000000  0.00000000  1
  Al  Al5  1  0.00000000  0.50000001  0.50000001  1
  Si  Si6  1  0.00000000  0.61915301  0.11915300  1
  Si  Si7  1  0.00000000  0.38084700  0.88084701  1
  Si  Si8  1  0.00000000  0.88084701  0.61915301  1
  Si  Si9  1  0.00000000  0.11915300  0.38084700  1
