# generated using pymatgen
data_LiMnAlPd2
_symmetry_space_group_name_H-M   'P 1'
_cell_length_a   4.04823780
_cell_length_b   4.04823780
_cell_length_c   6.04483509
_cell_angle_alpha   90.00000000
_cell_angle_beta   90.00000000
_cell_angle_gamma   90.00000000
_symmetry_Int_Tables_number   1
_chemical_formula_structural   LiMnAlPd2
_chemical_formula_sum   'Li1 Mn1 Al1 Pd2'
_cell_volume   99.06414349
_cell_formula_units_Z   1
loop_
 _symmetry_equiv_pos_site_id
 _symmetry_equiv_pos_as_xyz
  1  'x, y, z'
loop_
 _atom_site_type_symbol
 _atom_site_label
 _atom_site_symmetry_multiplicity
 _atom_site_fract_x
 _atom_site_fract_y
 _atom_site_fract_z
 _atom_site_occupancy
  Li  Li0  1  0.50000002  0.00000000  0.99228099  1
  Mn  Mn1  1  0.00000000  0.50000002  0.99228099  1
  Al  Al2  1  0.00000000  0.00000000  0.27298700  1
  Pd  Pd3  1  0.00000000  0.00000000  0.71877599  1
  Pd  Pd4  1  0.50000002  0.50000002  0.29367400  1
