# generated using pymatgen
data_FeMo
_symmetry_space_group_name_H-M   'P 1'
_cell_length_a   4.64685202
_cell_length_b   5.87879848
_cell_length_c   5.87879848
_cell_angle_alpha   81.01361084
_cell_angle_beta   66.72023010
_cell_angle_gamma   66.72023010
_symmetry_Int_Tables_number   1
_chemical_formula_structural   FeMo
_chemical_formula_sum   'Fe5 Mo5'
_cell_volume   135.51133334
_cell_formula_units_Z   5
loop_
 _symmetry_equiv_pos_site_id
 _symmetry_equiv_pos_as_xyz
  1  'x, y, z'
loop_
 _atom_site_type_symbol
 _atom_site_label
 _atom_site_symmetry_multiplicity
 _atom_site_fract_x
 _atom_site_fract_y
 _atom_site_fract_z
 _atom_site_occupancy
  Fe  Fe0  1  0.60084704  0.59829796  0.20000801  1
  Fe  Fe1  1  0.39915303  0.40170198  0.79999198  1
  Fe  Fe2  1  0.19914501  0.20000799  0.40170199  1
  Fe  Fe3  1  0.80085505  0.79999195  0.59829801  1
  Fe  Fe4  1  0.00000000  0.00000000  0.00000000  1
  Mo  Mo5  1  0.50000008  0.99999994  0.00000001  1
  Mo  Mo6  1  0.92355300  0.32911498  0.82377901  1
  Mo  Mo7  1  0.07644706  0.67088496  0.17622098  1
  Mo  Mo8  1  0.25266807  0.82377895  0.67088497  1
  Mo  Mo9  1  0.74733199  0.17622099  0.32911503  1
