# generated using pymatgen
data_Li4MnO5
_symmetry_space_group_name_H-M   'P 1'
_cell_length_a   5.18323708
_cell_length_b   5.90307808
_cell_length_c   6.36475563
_cell_angle_alpha   117.62816620
_cell_angle_beta   90.00000000
_cell_angle_gamma   90.00000000
_symmetry_Int_Tables_number   1
_chemical_formula_structural   Li4MnO5
_chemical_formula_sum   'Li4 Mn1 O5'
_cell_volume   172.53736249
_cell_formula_units_Z   1
loop_
 _symmetry_equiv_pos_site_id
 _symmetry_equiv_pos_as_xyz
  1  'x, y, z'
loop_
 _atom_site_type_symbol
 _atom_site_label
 _atom_site_symmetry_multiplicity
 _atom_site_fract_x
 _atom_site_fract_y
 _atom_site_fract_z
 _atom_site_occupancy
  Li  Li0  1  0.83371999  0.33381900  0.36784902  1
  Li  Li1  1  0.83371999  0.96596999  0.63215104  1
  Li  Li2  1  0.33372000  0.66618099  0.63215103  1
  Li  Li3  1  0.33372000  0.03403000  0.36784901  1
  O  O4  1  0.67402699  0.28980200  1.00000004  1
  Mn  Mn5  1  0.17402700  0.71019799  1.00000004  1
  O  O6  1  0.18126700  0.34673400  0.43729302  1
  O  O7  1  0.18126700  0.90943999  0.56270703  1
  O  O8  1  0.68126699  0.65326599  0.56270703  1
  O  O9  1  0.68126699  0.09056000  0.43729301  1
