# generated using pymatgen
data_NbVMo6
_symmetry_space_group_name_H-M   'P 1'
_cell_length_a   5.37338924
_cell_length_b   5.37338924
_cell_length_c   5.42401171
_cell_angle_alpha   118.19305420
_cell_angle_beta   118.19305420
_cell_angle_gamma   92.64860535
_symmetry_Int_Tables_number   1
_chemical_formula_structural   NbVMo6
_chemical_formula_sum   'Nb1 V1 Mo6'
_cell_volume   114.10238511
_cell_formula_units_Z   1
loop_
 _symmetry_equiv_pos_site_id
 _symmetry_equiv_pos_as_xyz
  1  'x, y, z'
loop_
 _atom_site_type_symbol
 _atom_site_label
 _atom_site_symmetry_multiplicity
 _atom_site_fract_x
 _atom_site_fract_y
 _atom_site_fract_z
 _atom_site_occupancy
  V  V0  1  0.79861799  0.20138200  0.00000001  1
  Nb  Nb1  1  0.20138205  0.79861800  1.00000003  1
  Mo  Mo2  1  0.76735503  0.76735500  0.53471003  1
  Mo  Mo3  1  0.23264501  0.23264500  0.46529001  1
  Mo  Mo4  1  0.30204001  0.30204000  1.00000001  1
  Mo  Mo5  1  0.75000000  0.25000000  0.50000001  1
  Mo  Mo6  1  0.69796003  0.69796000  0.00000002  1
  Mo  Mo7  1  0.25000004  0.75000000  0.50000003  1
