# generated using pymatgen
data_Nd6SnPt6O
_symmetry_space_group_name_H-M   'P 1'
_cell_length_a   7.52216673
_cell_length_b   7.52216673
_cell_length_c   7.52216673
_cell_angle_alpha   109.47122192
_cell_angle_beta   109.47122192
_cell_angle_gamma   109.47122192
_symmetry_Int_Tables_number   1
_chemical_formula_structural   Nd6SnPt6O
_chemical_formula_sum   'Nd6 Sn1 Pt6 O1'
_cell_volume   327.64757240
_cell_formula_units_Z   1
loop_
 _symmetry_equiv_pos_site_id
 _symmetry_equiv_pos_as_xyz
  1  'x, y, z'
loop_
 _atom_site_type_symbol
 _atom_site_label
 _atom_site_symmetry_multiplicity
 _atom_site_fract_x
 _atom_site_fract_y
 _atom_site_fract_z
 _atom_site_occupancy
  Nd  Nd0  1  0.12500002  0.25000001  0.37500002  1
  Nd  Nd1  1  0.75000005  0.62500003  0.87500006  1
  Nd  Nd2  1  0.37500005  0.75000003  0.12500005  1
  Nd  Nd3  1  0.87500002  0.12500001  0.75000003  1
  Nd  Nd4  1  0.62500003  0.37500002  0.25000004  1
  Nd  Nd5  1  0.25000006  0.87500004  0.62500006  1
  Pt  Pt6  1  0.35678803  0.35678802  0.85678803  1
  Pt  Pt7  1  0.50000001  0.14321201  0.50000002  1
  Pt  Pt8  1  0.00000003  0.50000002  0.64321203  1
  Sn  Sn9  1  0.50000005  0.64321203  0.50000005  1
  Pt  Pt10  1  0.14321200  0.00000000  0.00000000  1
  Pt  Pt11  1  0.64321201  0.00000000  0.00000002  1
  Pt  Pt12  1  0.00000003  0.50000002  0.14321203  1
  O  O13  1  0.85678806  0.85678804  0.35678807  1
