# generated using pymatgen
data_Nd2MgAl2Pd3
_symmetry_space_group_name_H-M   'P 1'
_cell_length_a   4.37490988
_cell_length_b   5.63990688
_cell_length_c   7.68946218
_cell_angle_alpha   90.00000000
_cell_angle_beta   90.00000000
_cell_angle_gamma   112.82097626
_symmetry_Int_Tables_number   1
_chemical_formula_structural   Nd2MgAl2Pd3
_chemical_formula_sum   'Nd2 Mg1 Al2 Pd3'
_cell_volume   174.87857090
_cell_formula_units_Z   1
loop_
 _symmetry_equiv_pos_site_id
 _symmetry_equiv_pos_as_xyz
  1  'x, y, z'
loop_
 _atom_site_type_symbol
 _atom_site_label
 _atom_site_symmetry_multiplicity
 _atom_site_fract_x
 _atom_site_fract_y
 _atom_site_fract_z
 _atom_site_occupancy
  Nd  Nd0  1  0.43623105  0.87246203  0.74999998  1
  Nd  Nd1  1  0.56376902  0.12753800  0.24999999  1
  Mg  Mg2  1  0.14859102  0.29718201  0.55287299  1
  Al  Al3  1  0.85140906  0.70281802  0.44712699  1
  Al  Al4  1  0.14859102  0.29718201  0.94712698  1
  Pd  Pd5  1  0.85140906  0.70281802  0.05287300  1
  Pd  Pd6  1  0.71860104  0.43720201  0.74999998  1
  Pd  Pd7  1  0.28139903  0.56279802  0.24999999  1
