# generated using pymatgen
data_CeGaGePd2
_symmetry_space_group_name_H-M   'P 1'
_cell_length_a   4.28276014
_cell_length_b   4.28276014
_cell_length_c   6.17231512
_cell_angle_alpha   110.29984283
_cell_angle_beta   110.29984283
_cell_angle_gamma   90.00000000
_symmetry_Int_Tables_number   1
_chemical_formula_structural   CeGaGePd2
_chemical_formula_sum   'Ce1 Ga1 Ge1 Pd2'
_cell_volume   98.64955040
_cell_formula_units_Z   1
loop_
 _symmetry_equiv_pos_site_id
 _symmetry_equiv_pos_as_xyz
  1  'x, y, z'
loop_
 _atom_site_type_symbol
 _atom_site_label
 _atom_site_symmetry_multiplicity
 _atom_site_fract_x
 _atom_site_fract_y
 _atom_site_fract_z
 _atom_site_occupancy
  Ce  Ce0  1  0.00000000  0.00000000  0.00000000  1
  Ga  Ga1  1  0.74999999  0.25000000  0.50000002  1
  Ge  Ge2  1  0.38447801  0.38447799  0.76895600  1
  Pd  Pd3  1  0.61552201  0.61552199  0.23104403  1
  Pd  Pd4  1  0.25000002  0.74999999  0.50000002  1
