# generated using pymatgen
data_CeGe2
_symmetry_space_group_name_H-M   'P 1'
_cell_length_a   4.36384106
_cell_length_b   6.98141003
_cell_length_c   7.61977482
_cell_angle_alpha   90.00000000
_cell_angle_beta   90.00000000
_cell_angle_gamma   90.00000000
_symmetry_Int_Tables_number   1
_chemical_formula_structural   CeGe2
_chemical_formula_sum   'Ce4 Ge8'
_cell_volume   232.14225913
_cell_formula_units_Z   4
loop_
 _symmetry_equiv_pos_site_id
 _symmetry_equiv_pos_as_xyz
  1  'x, y, z'
loop_
 _atom_site_type_symbol
 _atom_site_label
 _atom_site_symmetry_multiplicity
 _atom_site_fract_x
 _atom_site_fract_y
 _atom_site_fract_z
 _atom_site_occupancy
  Ce  Ce0  1  0.25000000  0.00059400  0.30693801  1
  Ce  Ce1  1  0.25000000  0.50059400  0.19306200  1
  Ce  Ce2  1  0.74999999  0.99940600  0.69306202  1
  Ce  Ce3  1  0.74999999  0.49940600  0.80693802  1
  Ge  Ge4  1  0.25000000  0.29444600  0.60536401  1
  Ge  Ge5  1  0.25000000  0.79444600  0.89463602  1
  Ge  Ge6  1  0.74999999  0.70555400  0.39463601  1
  Ge  Ge7  1  0.74999999  0.20555400  0.10536400  1
  Ge  Ge8  1  0.25000000  0.16125200  0.93033402  1
  Ge  Ge9  1  0.25000000  0.66125200  0.56966601  1
  Ge  Ge10  1  0.74999999  0.83874800  0.06966600  1
  Ge  Ge11  1  0.74999999  0.33874800  0.43033401  1
