# generated using pymatgen
data_TlS
_symmetry_space_group_name_H-M   'P 1'
_cell_length_a   4.34651804
_cell_length_b   4.34712219
_cell_length_c   13.19940853
_cell_angle_alpha   90.00000000
_cell_angle_beta   99.47679901
_cell_angle_gamma   90.00000000
_symmetry_Int_Tables_number   1
_chemical_formula_structural   TlS
_chemical_formula_sum   'Tl4 S4'
_cell_volume   245.99704515
_cell_formula_units_Z   4
loop_
 _symmetry_equiv_pos_site_id
 _symmetry_equiv_pos_as_xyz
  1  'x, y, z'
loop_
 _atom_site_type_symbol
 _atom_site_label
 _atom_site_symmetry_multiplicity
 _atom_site_fract_x
 _atom_site_fract_y
 _atom_site_fract_z
 _atom_site_occupancy
  Tl  Tl0  1  0.16966900  0.74999997  0.33933801  1
  Tl  Tl1  1  0.83033099  0.24999999  0.66066202  1
  Tl  Tl2  1  0.92560199  0.74999997  0.85120402  1
  Tl  Tl3  1  0.07439800  0.24999999  0.14879600  1
  S  S4  1  0.57450400  0.74999997  0.14900800  1
  S  S5  1  0.42549600  0.24999999  0.85099202  1
  S  S6  1  0.29348200  0.74999997  0.58696401  1
  S  S7  1  0.70651799  0.24999999  0.41303601  1
