# generated using pymatgen
data_ScTi3Ni8
_symmetry_space_group_name_H-M   'P 1'
_cell_length_a   3.72535205
_cell_length_b   6.21610689
_cell_length_c   7.17358923
_cell_angle_alpha   90.00000000
_cell_angle_beta   90.00000000
_cell_angle_gamma   90.00000000
_symmetry_Int_Tables_number   1
_chemical_formula_structural   ScTi3Ni8
_chemical_formula_sum   'Sc1 Ti3 Ni8'
_cell_volume   166.12014398
_cell_formula_units_Z   1
loop_
 _symmetry_equiv_pos_site_id
 _symmetry_equiv_pos_as_xyz
  1  'x, y, z'
loop_
 _atom_site_type_symbol
 _atom_site_label
 _atom_site_symmetry_multiplicity
 _atom_site_fract_x
 _atom_site_fract_y
 _atom_site_fract_z
 _atom_site_occupancy
  Ti  Ti0  1  0.74999999  0.47826401  0.32096899  1
  Sc  Sc1  1  0.25000000  0.02173600  0.82096897  1
  Ti  Ti2  1  0.74999999  0.97826402  0.17903099  1
  Ti  Ti3  1  0.25000000  0.52173601  0.67903098  1
  Ni  Ni4  1  0.25000000  0.65028701  0.06471600  1
  Ni  Ni5  1  0.25000000  0.15028700  0.43528399  1
  Ni  Ni6  1  0.74999999  0.84971301  0.56471598  1
  Ni  Ni7  1  0.74999999  0.34971301  0.93528397  1
  Ni  Ni8  1  0.25000000  0.26570600  0.12159700  1
  Ni  Ni9  1  0.25000000  0.76570601  0.37840299  1
  Ni  Ni10  1  0.74999999  0.73429401  0.87840297  1
  Ni  Ni11  1  0.74999999  0.23429400  0.62159698  1
