# generated using pymatgen
data_SrTlS3
_symmetry_space_group_name_H-M   'P 1'
_cell_length_a   3.65629768
_cell_length_b   3.65629768
_cell_length_c   10.15733337
_cell_angle_alpha   79.63121796
_cell_angle_beta   79.63121796
_cell_angle_gamma   60.00000763
_symmetry_Int_Tables_number   1
_chemical_formula_structural   SrTlS3
_chemical_formula_sum   'Sr1 Tl1 S3'
_cell_volume   115.02861152
_cell_formula_units_Z   1
loop_
 _symmetry_equiv_pos_site_id
 _symmetry_equiv_pos_as_xyz
  1  'x, y, z'
loop_
 _atom_site_type_symbol
 _atom_site_label
 _atom_site_symmetry_multiplicity
 _atom_site_fract_x
 _atom_site_fract_y
 _atom_site_fract_z
 _atom_site_occupancy
  Sr  Sr0  1  0.37773899  0.37773899  0.86678304  1
  Tl  Tl1  1  0.62226098  0.62226098  0.13321701  1
  S  S2  1  0.77196997  0.77196998  0.68409004  1
  S  S3  1  0.22802999  0.22802999  0.31591001  1
  S  S4  1  0.00000000  0.00000000  0.00000000  1
