# generated using pymatgen
data_SrCa7Ge4
_symmetry_space_group_name_H-M   'P 1'
_cell_length_a   5.82730818
_cell_length_b   6.97191000
_cell_length_c   9.29227638
_cell_angle_alpha   90.00000000
_cell_angle_beta   90.00000000
_cell_angle_gamma   90.00000000
_symmetry_Int_Tables_number   1
_chemical_formula_structural   SrCa7Ge4
_chemical_formula_sum   'Sr1 Ca7 Ge4'
_cell_volume   377.52166284
_cell_formula_units_Z   1
loop_
 _symmetry_equiv_pos_site_id
 _symmetry_equiv_pos_as_xyz
  1  'x, y, z'
loop_
 _atom_site_type_symbol
 _atom_site_label
 _atom_site_symmetry_multiplicity
 _atom_site_fract_x
 _atom_site_fract_y
 _atom_site_fract_z
 _atom_site_occupancy
  Ca  Ca0  1  0.24999999  0.50000000  0.63234597  1
  Ca  Ca1  1  0.24999999  0.00000000  0.86889996  1
  Sr  Sr2  1  0.74999998  0.00000000  0.13109999  1
  Ca  Ca3  1  0.74999998  0.50000000  0.36765398  1
  Ca  Ca4  1  0.74999998  0.50000000  0.92576696  1
  Ca  Ca5  1  0.24999999  0.50000000  0.07423300  1
  Ca  Ca6  1  0.00000000  0.00000000  0.49999998  1
  Ca  Ca7  1  0.49999998  0.00000000  0.49999998  1
  Ge  Ge8  1  0.74999998  0.20746000  0.71585797  1
  Ge  Ge9  1  0.74999998  0.79254000  0.71585797  1
  Ge  Ge10  1  0.24999999  0.20746000  0.28414199  1
  Ge  Ge11  1  0.24999999  0.79254000  0.28414199  1
