# generated using pymatgen
data_CePd2
_symmetry_space_group_name_H-M   'P 1'
_cell_length_a   4.31523418
_cell_length_b   7.02064514
_cell_length_c   7.46906281
_cell_angle_alpha   90.00000000
_cell_angle_beta   90.00000000
_cell_angle_gamma   90.00000000
_symmetry_Int_Tables_number   1
_chemical_formula_structural   CePd2
_chemical_formula_sum   'Ce4 Pd8'
_cell_volume   226.28069449
_cell_formula_units_Z   4
loop_
 _symmetry_equiv_pos_site_id
 _symmetry_equiv_pos_as_xyz
  1  'x, y, z'
loop_
 _atom_site_type_symbol
 _atom_site_label
 _atom_site_symmetry_multiplicity
 _atom_site_fract_x
 _atom_site_fract_y
 _atom_site_fract_z
 _atom_site_occupancy
  Ce  Ce0  1  0.24999999  0.99773298  0.29812001  1
  Ce  Ce1  1  0.24999999  0.49773299  0.20188001  1
  Ce  Ce2  1  0.74999997  0.00226700  0.70188002  1
  Ce  Ce3  1  0.74999997  0.50226699  0.79812002  1
  Pd  Pd4  1  0.24999999  0.31345899  0.58741302  1
  Pd  Pd5  1  0.24999999  0.81345898  0.91258702  1
  Pd  Pd6  1  0.74999997  0.68654099  0.41258701  1
  Pd  Pd7  1  0.74999997  0.18654100  0.08741300  1
  Pd  Pd8  1  0.24999999  0.19922500  0.91506702  1
  Pd  Pd9  1  0.24999999  0.69922499  0.58493302  1
  Pd  Pd10  1  0.74999997  0.80077498  0.08493300  1
  Pd  Pd11  1  0.74999997  0.30077499  0.41506701  1
