# generated using pymatgen
data_Mg11Ga2Ni3
_symmetry_space_group_name_H-M   'P 1'
_cell_length_a   4.59197378
_cell_length_b   4.59197474
_cell_length_c   20.94852638
_cell_angle_alpha   90.00000000
_cell_angle_beta   90.00000000
_cell_angle_gamma   119.99999237
_symmetry_Int_Tables_number   1
_chemical_formula_structural   Mg11Ga2Ni3
_chemical_formula_sum   'Mg11 Ga2 Ni3'
_cell_volume   382.54544296
_cell_formula_units_Z   1
loop_
 _symmetry_equiv_pos_site_id
 _symmetry_equiv_pos_as_xyz
  1  'x, y, z'
loop_
 _atom_site_type_symbol
 _atom_site_label
 _atom_site_symmetry_multiplicity
 _atom_site_fract_x
 _atom_site_fract_y
 _atom_site_fract_z
 _atom_site_occupancy
  Mg  Mg0  1  0.33333332  0.66666665  0.28756799  1
  Mg  Mg1  1  0.66666668  0.33333333  0.78756799  1
  Mg  Mg2  1  0.00000000  0.00000000  0.20417000  1
  Mg  Mg3  1  0.00000000  0.00000000  0.70416999  1
  Mg  Mg4  1  0.00000000  0.00000000  0.47089599  1
  Mg  Mg5  1  0.00000000  0.00000000  0.97089598  1
  Mg  Mg6  1  0.33333332  0.66666665  0.87473998  1
  Mg  Mg7  1  0.66666668  0.33333333  0.37473999  1
  Mg  Mg8  1  0.33333332  0.66666665  0.59258199  1
  Mg  Mg9  1  0.66666668  0.33333333  0.09258200  1
  Ni  Ni10  1  0.33333332  0.66666665  0.15529400  1
  Mg  Mg11  1  0.66666668  0.33333333  0.65529399  1
  Ga  Ga12  1  0.33333332  0.66666665  0.01545500  1
  Ga  Ga13  1  0.66666668  0.33333333  0.51545499  1
  Ni  Ni14  1  0.00000000  0.00000000  0.33506599  1
  Ni  Ni15  1  0.00000000  0.00000000  0.83506598  1
