# generated using pymatgen
data_Li5Mn2O11
_symmetry_space_group_name_H-M   'P 1'
_cell_length_a   4.55515623
_cell_length_b   4.55672979
_cell_length_c   9.02897263
_cell_angle_alpha   90.00000000
_cell_angle_beta   90.00000000
_cell_angle_gamma   90.00000000
_symmetry_Int_Tables_number   1
_chemical_formula_structural   Li5Mn2O11
_chemical_formula_sum   'Li5 Mn2 O11'
_cell_volume   187.41091868
_cell_formula_units_Z   1
loop_
 _symmetry_equiv_pos_site_id
 _symmetry_equiv_pos_as_xyz
  1  'x, y, z'
loop_
 _atom_site_type_symbol
 _atom_site_label
 _atom_site_symmetry_multiplicity
 _atom_site_fract_x
 _atom_site_fract_y
 _atom_site_fract_z
 _atom_site_occupancy
  Li  Li0  1  0.01008100  0.74588103  0.67410903  1
  Li  Li1  1  0.98022495  0.73038903  0.00000000  1
  Li  Li2  1  0.01008100  0.74588103  0.32589101  1
  Li  Li3  1  0.48022498  0.26961101  0.50000002  1
  Li  Li4  1  0.51008097  0.25411901  0.82589103  1
  Mn  Mn5  1  0.51008097  0.25411901  0.17410901  1
  O  O6  1  0.19641699  0.55373003  0.83610103  1
  Mn  Mn7  1  0.19641699  0.55373003  0.16389901  1
  O  O8  1  0.18947599  0.56181203  0.50000002  1
  O  O9  1  0.69641696  0.44627002  0.66389903  1
  O  O10  1  0.68947597  0.43818802  0.00000000  1
  O  O11  1  0.69641696  0.44627002  0.33610101  1
  O  O12  1  0.30795398  0.05911100  0.66526203  1
  O  O13  1  0.30795398  0.05911100  0.33473801  1
  O  O14  1  0.80795396  0.94088904  0.83473803  1
  O  O15  1  0.80795396  0.94088904  0.16526201  1
  O  O16  1  0.30140198  0.04961400  0.00000000  1
  O  O17  1  0.80140196  0.95038604  0.50000002  1
