# generated using pymatgen
data_LiCa2U2BeReTcHC7
_symmetry_space_group_name_H-M   'P 1'
_cell_length_a   4.50076389
_cell_length_b   6.66091299
_cell_length_c   6.81245708
_cell_angle_alpha   104.12656403
_cell_angle_beta   109.28900909
_cell_angle_gamma   90.00000000
_symmetry_Int_Tables_number   1
_chemical_formula_structural   LiCa2U2BeReTcHC7
_chemical_formula_sum   'Li1 Ca2 U2 Be1 Re1 Tc1 H1 C7'
_cell_volume   186.21123589
_cell_formula_units_Z   1
loop_
 _symmetry_equiv_pos_site_id
 _symmetry_equiv_pos_as_xyz
  1  'x, y, z'
loop_
 _atom_site_type_symbol
 _atom_site_label
 _atom_site_symmetry_multiplicity
 _atom_site_fract_x
 _atom_site_fract_y
 _atom_site_fract_z
 _atom_site_occupancy
  Li  Li0  1  0.50000001  1.00000001  0.00000004  1
  Ca  Ca1  1  0.50000001  0.50000001  0.00000001  1
  Ca  Ca2  1  0.81109201  0.90752501  0.62218400  1
  U  U3  1  0.18890800  0.09247500  0.37781599  1
  U  U4  1  0.80939101  0.40598200  0.61878198  1
  Be  Be5  1  0.19060901  0.59401801  0.38121802  1
  Re  Re6  1  0.00027801  0.73825001  0.00055604  1
  Tc  Tc7  1  0.99972201  0.26175000  0.99944395  1
  H  H8  1  0.21213001  0.68540001  0.74283001  1
  C  C9  1  0.53070001  0.68540001  0.74283000  1
  C  C10  1  0.78787001  0.31460000  0.25716998  1
  C  C11  1  0.46930000  0.31460000  0.25716999  1
  C  C12  1  0.47066801  0.81442001  0.25900202  1
  C  C13  1  0.78833401  0.81442001  0.25900201  1
  C  C14  1  0.52933200  0.18558000  0.74099797  1
  C  C15  1  0.21166600  0.18558000  0.74099798  1
