# generated using pymatgen
data_Li2CoO4
_symmetry_space_group_name_H-M   'P 1'
_cell_length_a   5.89510012
_cell_length_b   5.95727205
_cell_length_c   5.97691488
_cell_angle_alpha   119.47952271
_cell_angle_beta   118.94831848
_cell_angle_gamma   90.45869446
_symmetry_Int_Tables_number   1
_chemical_formula_structural   Li2CoO4
_chemical_formula_sum   'Li4 Co2 O8'
_cell_volume   151.31437432
_cell_formula_units_Z   2
loop_
 _symmetry_equiv_pos_site_id
 _symmetry_equiv_pos_as_xyz
  1  'x, y, z'
loop_
 _atom_site_type_symbol
 _atom_site_label
 _atom_site_symmetry_multiplicity
 _atom_site_fract_x
 _atom_site_fract_y
 _atom_site_fract_z
 _atom_site_occupancy
  Li  Li0  1  0.00122801  0.50033698  0.00190598  1
  Li  Li1  1  0.49959900  0.50065798  0.49993900  1
  Li  Li2  1  0.00050701  0.50102198  0.50090900  1
  Li  Li3  1  0.00029501  0.99889095  0.99897599  1
  Co  Co4  1  0.62417300  0.88017196  0.24999698  1
  Co  Co5  1  0.37976000  0.12857899  0.74903102  1
  O  O6  1  0.23743001  0.71888797  0.47278599  1
  O  O7  1  0.24630400  0.26336999  0.02772999  1
  O  O8  1  0.78675500  0.26170099  0.03432800  1
  O  O9  1  0.76427100  0.28710499  0.53562701  1
  O  O10  1  0.76275100  0.74590996  0.52595800  1
  O  O11  1  0.75100200  0.72980496  0.96763801  1
  O  O12  1  0.22897100  0.25065399  0.46532801  1
  O  O13  1  0.21695201  0.73290796  0.96984600  1
