# generated using pymatgen
data_SmErNi3
_symmetry_space_group_name_H-M   'P 1'
_cell_length_a   4.24457216
_cell_length_b   5.45767879
_cell_length_c   5.45767879
_cell_angle_alpha   63.13954926
_cell_angle_beta   67.11626434
_cell_angle_gamma   67.11626434
_symmetry_Int_Tables_number   1
_chemical_formula_structural   SmErNi3
_chemical_formula_sum   'Sm1 Er1 Ni3'
_cell_volume   100.35655554
_cell_formula_units_Z   1
loop_
 _symmetry_equiv_pos_site_id
 _symmetry_equiv_pos_as_xyz
  1  'x, y, z'
loop_
 _atom_site_type_symbol
 _atom_site_label
 _atom_site_symmetry_multiplicity
 _atom_site_fract_x
 _atom_site_fract_y
 _atom_site_fract_z
 _atom_site_occupancy
  Er  Er0  1  0.20197598  0.29802399  0.29802400  1
  Sm  Sm1  1  0.79802395  0.70197598  0.70197598  1
  Ni  Ni2  1  0.49999995  0.70863198  0.29136801  1
  Ni  Ni3  1  0.49999997  0.29136799  0.70863197  1
  Ni  Ni4  1  0.00000000  0.00000000  0.00000000  1
