# generated using pymatgen
data_ScTl2Sn5(S3O)3
_symmetry_space_group_name_H-M   'P 1'
_cell_length_a   3.89272690
_cell_length_b   9.54115677
_cell_length_c   13.50801277
_cell_angle_alpha   90.00000000
_cell_angle_beta   90.00000000
_cell_angle_gamma   90.00000000
_symmetry_Int_Tables_number   1
_chemical_formula_structural   ScTl2Sn5(S3O)3
_chemical_formula_sum   'Sc1 Tl2 Sn5 S9 O3'
_cell_volume   501.70269081
_cell_formula_units_Z   1
loop_
 _symmetry_equiv_pos_site_id
 _symmetry_equiv_pos_as_xyz
  1  'x, y, z'
loop_
 _atom_site_type_symbol
 _atom_site_label
 _atom_site_symmetry_multiplicity
 _atom_site_fract_x
 _atom_site_fract_y
 _atom_site_fract_z
 _atom_site_occupancy
  Tl  Tl0  1  0.75000002  0.85160302  0.04424400  1
  Tl  Tl1  1  0.25000001  0.14839700  0.95575602  1
  Sc  Sc2  1  0.75000002  0.35160301  0.45575601  1
  Sn  Sn3  1  0.25000001  0.64839702  0.54424401  1
  Sn  Sn4  1  0.75000002  0.47266601  0.85826601  1
  Sn  Sn5  1  0.25000001  0.52733401  0.14173400  1
  Sn  Sn6  1  0.75000002  0.97266602  0.64173401  1
  Sn  Sn7  1  0.25000001  0.02733400  0.35826601  1
  S  S8  1  0.25000001  0.81297402  0.70081301  1
  S  S9  1  0.75000002  0.18702600  0.29918701  1
  S  S10  1  0.25000001  0.31297401  0.79918701  1
  O  O11  1  0.75000002  0.68702602  0.20081300  1
  S  S12  1  0.25000001  0.15924900  0.52020301  1
  S  S13  1  0.75000002  0.84075102  0.47979701  1
  S  S14  1  0.25000001  0.65924902  0.97979702  1
  S  S15  1  0.75000002  0.34075101  0.02020300  1
  O  O16  1  0.75000002  0.99963202  0.88391401  1
  O  O17  1  0.25000001  0.00036800  0.11608600  1
  S  S18  1  0.75000002  0.49963201  0.61608601  1
  S  S19  1  0.25000001  0.50036801  0.38391401  1
