# generated using pymatgen
data_Hf5Ga3
_symmetry_space_group_name_H-M   'P 1'
_cell_length_a   5.57493210
_cell_length_b   8.01803398
_cell_length_c   8.01803303
_cell_angle_alpha   120.00000763
_cell_angle_beta   90.00000000
_cell_angle_gamma   90.00000000
_symmetry_Int_Tables_number   1
_chemical_formula_structural   Hf5Ga3
_chemical_formula_sum   'Hf10 Ga6'
_cell_volume   310.38870845
_cell_formula_units_Z   2
loop_
 _symmetry_equiv_pos_site_id
 _symmetry_equiv_pos_as_xyz
  1  'x, y, z'
loop_
 _atom_site_type_symbol
 _atom_site_label
 _atom_site_symmetry_multiplicity
 _atom_site_fract_x
 _atom_site_fract_y
 _atom_site_fract_z
 _atom_site_occupancy
  Hf  Hf0  1  0.74999999  0.25252801  0.00000002  1
  Hf  Hf1  1  0.74999999  1.00000004  0.25252807  1
  Hf  Hf2  1  0.25000000  0.25252801  0.25252802  1
  Hf  Hf3  1  0.49999999  0.66666669  0.33333338  1
  Hf  Hf4  1  0.74999999  0.74747203  0.74747205  1
  Hf  Hf5  1  0.49999999  0.33333335  0.66666669  1
  Hf  Hf6  1  0.25000000  1.00000004  0.74747207  1
  Hf  Hf7  1  -0.00000000  0.66666669  0.33333338  1
  Hf  Hf8  1  0.25000000  0.74747203  1.00000005  1
  Hf  Hf9  1  0.99999998  0.33333335  0.66666669  1
  Ga  Ga10  1  0.25000000  0.38951401  1.00000003  1
  Ga  Ga11  1  0.25000000  0.61048602  0.61048604  1
  Ga  Ga12  1  0.74999999  0.38951401  0.38951403  1
  Ga  Ga13  1  0.25000000  1.00000004  0.38951407  1
  Ga  Ga14  1  0.74999999  0.61048602  1.00000004  1
  Ga  Ga15  1  0.74999999  1.00000004  0.61048607  1
