# generated using pymatgen
data_NaLiFe3BN4
_symmetry_space_group_name_H-M   'P 1'
_cell_length_a   5.59163189
_cell_length_b   5.59163189
_cell_length_c   6.15216970
_cell_angle_alpha   105.18857574
_cell_angle_beta   105.18857574
_cell_angle_gamma   115.05438995
_symmetry_Int_Tables_number   1
_chemical_formula_structural   NaLiFe3BN4
_chemical_formula_sum   'Na1 Li1 Fe3 B1 N4'
_cell_volume   152.10039635
_cell_formula_units_Z   1
loop_
 _symmetry_equiv_pos_site_id
 _symmetry_equiv_pos_as_xyz
  1  'x, y, z'
loop_
 _atom_site_type_symbol
 _atom_site_label
 _atom_site_symmetry_multiplicity
 _atom_site_fract_x
 _atom_site_fract_y
 _atom_site_fract_z
 _atom_site_occupancy
  Li  Li0  1  0.50000005  0.50000003  0.00000005  1
  Na  Na1  1  0.75000004  0.25000002  0.50000005  1
  Fe  Fe2  1  0.17787507  0.82212505  1.00000008  1
  Fe  Fe3  1  0.07212507  0.92787506  0.50000007  1
  B  B4  1  0.82212503  0.17787501  1.00000006  1
  Fe  Fe5  1  0.42787505  0.57212504  0.50000006  1
  N  N6  1  0.87060909  0.87060905  0.74121810  1
  N  N7  1  0.12939101  0.12939101  0.25878202  1
  N  N8  1  0.37939108  0.87939106  0.75878208  1
  N  N9  1  0.12060905  0.62060904  0.24121805  1
