# generated using pymatgen
data_Na3Cu2
_symmetry_space_group_name_H-M   'P 1'
_cell_length_a   4.20449591
_cell_length_b   4.20449638
_cell_length_c   7.17580318
_cell_angle_alpha   90.00000000
_cell_angle_beta   90.00000000
_cell_angle_gamma   119.99999237
_symmetry_Int_Tables_number   1
_chemical_formula_structural   Na3Cu2
_chemical_formula_sum   'Na3 Cu2'
_cell_volume   109.85734550
_cell_formula_units_Z   1
loop_
 _symmetry_equiv_pos_site_id
 _symmetry_equiv_pos_as_xyz
  1  'x, y, z'
loop_
 _atom_site_type_symbol
 _atom_site_label
 _atom_site_symmetry_multiplicity
 _atom_site_fract_x
 _atom_site_fract_y
 _atom_site_fract_z
 _atom_site_occupancy
  Na  Na0  1  0.00000000  0.00000000  0.00000000  1
  Na  Na1  1  0.33333330  0.66666667  0.62848598  1
  Na  Na2  1  0.66666666  0.33333334  0.37151399  1
  Cu  Cu3  1  0.66666666  0.33333334  0.74062598  1
  Cu  Cu4  1  0.33333330  0.66666667  0.25937399  1
