# generated using pymatgen
data_KLaCrO5
_symmetry_space_group_name_H-M   'P 1'
_cell_length_a   5.64412642
_cell_length_b   5.64412642
_cell_length_c   5.64412642
_cell_angle_alpha   60.00000000
_cell_angle_beta   60.00000000
_cell_angle_gamma   60.00000000
_symmetry_Int_Tables_number   1
_chemical_formula_structural   KLaCrO5
_chemical_formula_sum   'K1 La1 Cr1 O5'
_cell_volume   127.13794848
_cell_formula_units_Z   1
loop_
 _symmetry_equiv_pos_site_id
 _symmetry_equiv_pos_as_xyz
  1  'x, y, z'
loop_
 _atom_site_type_symbol
 _atom_site_label
 _atom_site_symmetry_multiplicity
 _atom_site_fract_x
 _atom_site_fract_y
 _atom_site_fract_z
 _atom_site_occupancy
  K  K0  1  0.49999999  0.49999999  0.49999999  1
  La  La1  1  0.00000000  0.00000000  0.00000000  1
  Cr  Cr2  1  0.24103100  0.75896899  0.24103100  1
  O  O3  1  0.75896899  0.24103100  0.75896899  1
  O  O4  1  0.24103100  0.75896899  0.75896899  1
  O  O5  1  0.75896899  0.24103100  0.24103100  1
  O  O6  1  0.24103100  0.24103100  0.75896899  1
  O  O7  1  0.75896899  0.75896899  0.24103100  1
