# generated using pymatgen
data_Ba2LaSbO3
_symmetry_space_group_name_H-M   'P 1'
_cell_length_a   5.11032200
_cell_length_b   5.11032200
_cell_length_c   8.91200924
_cell_angle_alpha   106.66107941
_cell_angle_beta   106.66107941
_cell_angle_gamma   90.00000000
_symmetry_Int_Tables_number   1
_chemical_formula_structural   Ba2LaSbO3
_chemical_formula_sum   'Ba2 La1 Sb1 O3'
_cell_volume   212.75024418
_cell_formula_units_Z   1
loop_
 _symmetry_equiv_pos_site_id
 _symmetry_equiv_pos_as_xyz
  1  'x, y, z'
loop_
 _atom_site_type_symbol
 _atom_site_label
 _atom_site_symmetry_multiplicity
 _atom_site_fract_x
 _atom_site_fract_y
 _atom_site_fract_z
 _atom_site_occupancy
  Ba  Ba0  1  0.35791198  0.35791199  0.71582396  1
  Ba  Ba1  1  0.64208796  0.64208799  0.28417595  1
  La  La2  1  0.00000000  0.00000000  0.00000000  1
  Sb  Sb3  1  0.84447795  0.84447798  0.68895592  1
  O  O4  1  0.15552199  0.15552200  0.31104398  1
  O  O5  1  0.49999999  0.00000000  -0.00000002  1
  O  O6  1  -0.00000002  0.49999999  -0.00000002  1
