# generated using pymatgen
data_B2(CN2)3
_symmetry_space_group_name_H-M   'P 1'
_cell_length_a   4.27702379
_cell_length_b   4.27702379
_cell_length_c   5.36588287
_cell_angle_alpha   90.00000000
_cell_angle_beta   90.00000000
_cell_angle_gamma   120.00000000
_symmetry_Int_Tables_number   1
_chemical_formula_structural   B2(CN2)3
_chemical_formula_sum   'B2 C3 N6'
_cell_volume   85.00709063
_cell_formula_units_Z   1
loop_
 _symmetry_equiv_pos_site_id
 _symmetry_equiv_pos_as_xyz
  1  'x, y, z'
loop_
 _atom_site_type_symbol
 _atom_site_label
 _atom_site_symmetry_multiplicity
 _atom_site_fract_x
 _atom_site_fract_y
 _atom_site_fract_z
 _atom_site_occupancy
  B  B0  1  0.00000000  0.00000000  0.00000000  1
  B  B1  1  0.33333331  0.66666662  0.20436700  1
  C  C2  1  0.66666668  0.33333331  0.79563302  1
  C  C3  1  0.63874598  0.81937294  0.29123501  1
  N  N4  1  0.18062696  0.81937294  0.29123501  1
  C  C5  1  0.18062699  0.36125397  0.29123501  1
  N  N6  1  0.36125401  0.18062699  0.70876502  1
  N  N7  1  0.81937303  0.18062699  0.70876502  1
  N  N8  1  0.81937300  0.63874596  0.70876502  1
  N  N9  1  0.33333331  0.66666662  0.97703502  1
  N  N10  1  0.66666668  0.33333331  0.02296500  1
