# generated using pymatgen
data_TbDy2YIn3Bi8Pb5
_symmetry_space_group_name_H-M   'P 1'
_cell_length_a   5.03129292
_cell_length_b   10.94689178
_cell_length_c   10.94689178
_cell_angle_alpha   90.00000000
_cell_angle_beta   90.00000000
_cell_angle_gamma   90.00000000
_symmetry_Int_Tables_number   1
_chemical_formula_structural   TbDy2YIn3Bi8Pb5
_chemical_formula_sum   'Tb1 Dy2 Y1 In3 Bi8 Pb5'
_cell_volume   602.92216770
_cell_formula_units_Z   1
loop_
 _symmetry_equiv_pos_site_id
 _symmetry_equiv_pos_as_xyz
  1  'x, y, z'
loop_
 _atom_site_type_symbol
 _atom_site_label
 _atom_site_symmetry_multiplicity
 _atom_site_fract_x
 _atom_site_fract_y
 _atom_site_fract_z
 _atom_site_occupancy
  Dy  Dy0  1  0.00000000  0.35350701  0.35350701  1
  Y  Y1  1  0.00000000  0.64649301  0.64649301  1
  Tb  Tb2  1  0.50000001  0.85350702  0.14649300  1
  Dy  Dy3  1  0.50000001  0.14649300  0.85350702  1
  In  In4  1  0.00000000  0.64331401  0.02808400  1
  In  In5  1  0.00000000  0.35668601  0.97191602  1
  In  In6  1  0.50000001  0.52808401  0.85668602  1
  Bi  Bi7  1  0.50000001  0.14331400  0.47191601  1
  Bi  Bi8  1  0.50000001  0.47191601  0.14331400  1
  Bi  Bi9  1  0.50000001  0.85668602  0.52808401  1
  Pb  Pb10  1  0.00000000  0.02808400  0.64331401  1
  Pb  Pb11  1  0.00000000  0.97191602  0.35668601  1
  Bi  Bi12  1  0.00000000  0.68895001  0.31105001  1
  Bi  Bi13  1  -0.00000000  0.31105001  0.68895001  1
  Pb  Pb14  1  0.50000001  0.81105002  0.81105002  1
  Bi  Bi15  1  0.50000001  0.18895000  0.18895000  1
  Pb  Pb16  1  0.00000000  0.09431300  0.09431300  1
  Pb  Pb17  1  1.00000002  0.90568702  0.90568702  1
  Bi  Bi18  1  0.50000001  0.59431301  0.40568701  1
  Bi  Bi19  1  0.50000001  0.40568701  0.59431301  1
