# generated using pymatgen
data_Li3VO8
_symmetry_space_group_name_H-M   'P 1'
_cell_length_a   5.14675760
_cell_length_b   5.35030699
_cell_length_c   6.61424780
_cell_angle_alpha   112.11756134
_cell_angle_beta   111.10116577
_cell_angle_gamma   94.11886597
_symmetry_Int_Tables_number   1
_chemical_formula_structural   Li3VO8
_chemical_formula_sum   'Li3 V1 O8'
_cell_volume   152.81958625
_cell_formula_units_Z   1
loop_
 _symmetry_equiv_pos_site_id
 _symmetry_equiv_pos_as_xyz
  1  'x, y, z'
loop_
 _atom_site_type_symbol
 _atom_site_label
 _atom_site_symmetry_multiplicity
 _atom_site_fract_x
 _atom_site_fract_y
 _atom_site_fract_z
 _atom_site_occupancy
  Li  Li0  1  0.62169902  0.37169901  0.74339803  1
  Li  Li1  1  0.37830105  0.62830102  0.25660205  1
  Li  Li2  1  0.14198408  0.89198403  0.78396807  1
  V  V3  1  0.85801599  0.10801600  0.21603201  1
  O  O4  1  0.70881599  0.05006600  0.42018301  1
  O  O5  1  0.21136703  0.37011701  0.42018303  1
  O  O6  1  0.29118408  0.94993403  0.57981708  1
  O  O7  1  0.78863304  0.62988302  0.57981705  1
  O  O8  1  0.01378702  0.21746701  0.93448102  1
  O  O9  1  0.42069406  0.71701402  0.93448106  1
  O  O10  1  0.98621305  0.78253303  0.06551906  1
  O  O11  1  0.57930601  0.28298601  0.06551902  1
