# generated using pymatgen
data_PrNdSn4
_symmetry_space_group_name_H-M   'P 1'
_cell_length_a   5.05577898
_cell_length_b   5.81842184
_cell_length_c   5.81842184
_cell_angle_alpha   120.00000000
_cell_angle_beta   90.00000000
_cell_angle_gamma   90.00000000
_symmetry_Int_Tables_number   1
_chemical_formula_structural   PrNdSn4
_chemical_formula_sum   'Pr1 Nd1 Sn4'
_cell_volume   148.22761514
_cell_formula_units_Z   1
loop_
 _symmetry_equiv_pos_site_id
 _symmetry_equiv_pos_as_xyz
  1  'x, y, z'
loop_
 _atom_site_type_symbol
 _atom_site_label
 _atom_site_symmetry_multiplicity
 _atom_site_fract_x
 _atom_site_fract_y
 _atom_site_fract_z
 _atom_site_occupancy
  Pr  Pr0  1  1.00000000  0.00000000  0.34663600  1
  Nd  Nd1  1  -0.00000000  0.34663600  0.99999998  1
  Sn  Sn2  1  -0.00000000  0.65336401  0.65336398  1
  Sn  Sn3  1  0.50000000  0.33333334  0.66666665  1
  Sn  Sn4  1  0.50000000  0.66666668  0.33333331  1
  Sn  Sn5  1  0.50000000  0.00000000  -0.00000000  1
