# generated using pymatgen
data_UAlGe
_symmetry_space_group_name_H-M   'P 1'
_cell_length_a   3.61365390
_cell_length_b   7.19904423
_cell_length_c   7.19904470
_cell_angle_alpha   119.99999237
_cell_angle_beta   90.00000000
_cell_angle_gamma   90.00000000
_symmetry_Int_Tables_number   1
_chemical_formula_structural   UAlGe
_chemical_formula_sum   'U3 Al3 Ge3'
_cell_volume   162.19106756
_cell_formula_units_Z   3
loop_
 _symmetry_equiv_pos_site_id
 _symmetry_equiv_pos_as_xyz
  1  'x, y, z'
loop_
 _atom_site_type_symbol
 _atom_site_label
 _atom_site_symmetry_multiplicity
 _atom_site_fract_x
 _atom_site_fract_y
 _atom_site_fract_z
 _atom_site_occupancy
  U  U0  1  0.50000001  0.60270696  -0.00000004  1
  U  U1  1  0.50000001  0.39729297  0.39729298  1
  U  U2  1  0.50000001  0.00000000  0.60270701  1
  Al  Al3  1  -0.00000000  0.26371798  -0.00000002  1
  Al  Al4  1  1.00000003  0.73628195  0.73628196  1
  Al  Al5  1  0.00000000  0.00000000  0.26371801  1
  Ge  Ge6  1  -0.00000000  0.33333331  0.66666666  1
  Ge  Ge7  1  -0.00000000  0.66666662  0.33333329  1
  Ge  Ge8  1  0.50000001  0.00000000  -0.00000000  1
