# generated using pymatgen
data_CeSn
_symmetry_space_group_name_H-M   'P 1'
_cell_length_a   4.61334801
_cell_length_b   4.61334801
_cell_length_c   12.83283710
_cell_angle_alpha   100.35507202
_cell_angle_beta   100.35507202
_cell_angle_gamma   90.00000000
_symmetry_Int_Tables_number   1
_chemical_formula_structural   CeSn
_chemical_formula_sum   'Ce4 Sn4'
_cell_volume   264.14931450
_cell_formula_units_Z   4
loop_
 _symmetry_equiv_pos_site_id
 _symmetry_equiv_pos_as_xyz
  1  'x, y, z'
loop_
 _atom_site_type_symbol
 _atom_site_label
 _atom_site_symmetry_multiplicity
 _atom_site_fract_x
 _atom_site_fract_y
 _atom_site_fract_z
 _atom_site_occupancy
  Ce  Ce0  1  0.88776602  0.88776601  0.77553203  1
  Ce  Ce1  1  0.11223400  0.11223400  0.22446800  1
  Ce  Ce2  1  0.25000002  0.75000001  0.50000002  1
  Ce  Ce3  1  0.75000001  0.25000000  0.50000002  1
  Sn  Sn4  1  0.67436702  0.67436701  0.34873403  1
  Sn  Sn5  1  0.32563301  0.32563300  0.65126601  1
  Sn  Sn6  1  0.00000001  0.50000000  0.00000001  1
  Sn  Sn7  1  0.50000000  0.00000000  0.00000001  1
