# generated using pymatgen
data_Li2VFeO6
_symmetry_space_group_name_H-M   'P 1'
_cell_length_a   5.41716194
_cell_length_b   5.48091555
_cell_length_c   5.41716194
_cell_angle_alpha   60.38404083
_cell_angle_beta   90.00000000
_cell_angle_gamma   119.61595917
_symmetry_Int_Tables_number   1
_chemical_formula_structural   Li2VFeO6
_chemical_formula_sum   'Li2 V1 Fe1 O6'
_cell_volume   115.03946464
_cell_formula_units_Z   1
loop_
 _symmetry_equiv_pos_site_id
 _symmetry_equiv_pos_as_xyz
  1  'x, y, z'
loop_
 _atom_site_type_symbol
 _atom_site_label
 _atom_site_symmetry_multiplicity
 _atom_site_fract_x
 _atom_site_fract_y
 _atom_site_fract_z
 _atom_site_occupancy
  Li  Li0  1  0.25000001  0.50000003  0.24999999  1
  Li  Li1  1  0.75000002  0.50000003  0.75000000  1
  V  V2  1  0.50000000  0.00000000  0.50000001  1
  Fe  Fe3  1  0.00000000  0.00000000  0.00000000  1
  O  O4  1  0.80886701  0.00000000  0.30886700  1
  O  O5  1  0.30886700  0.00000000  0.19113300  1
  O  O6  1  0.69113301  0.00000000  0.80886701  1
  O  O7  1  0.19113300  0.00000000  0.69113301  1
  O  O8  1  0.75000002  0.50000003  0.24999999  1
  O  O9  1  0.25000001  0.50000003  0.75000000  1
