# generated using pymatgen
data_Ba3Y5Sn3Ge
_symmetry_space_group_name_H-M   'P 1'
_cell_length_a   7.25076580
_cell_length_b   7.25076580
_cell_length_c   10.00061798
_cell_angle_alpha   111.25478363
_cell_angle_beta   111.25478363
_cell_angle_gamma   90.00000000
_symmetry_Int_Tables_number   1
_chemical_formula_structural   Ba3Y5Sn3Ge
_chemical_formula_sum   'Ba3 Y5 Sn3 Ge1'
_cell_volume   451.41585029
_cell_formula_units_Z   1
loop_
 _symmetry_equiv_pos_site_id
 _symmetry_equiv_pos_as_xyz
  1  'x, y, z'
loop_
 _atom_site_type_symbol
 _atom_site_label
 _atom_site_symmetry_multiplicity
 _atom_site_fract_x
 _atom_site_fract_y
 _atom_site_fract_z
 _atom_site_occupancy
  Ba  Ba0  1  0.00000000  0.00000000  0.00000000  1
  Ba  Ba1  1  0.62762100  0.12762100  0.25524198  1
  Ba  Ba2  1  0.87237900  0.37237900  0.74475797  1
  Y  Y3  1  0.49999999  0.50000000  -0.00000004  1
  Y  Y4  1  0.30565298  0.60876500  0.21752997  1
  Y  Y5  1  0.39123498  0.69434700  0.78246998  1
  Y  Y6  1  0.39123500  0.08812300  0.78247000  1
  Y  Y7  1  0.91187699  0.60876500  0.21752995  1
  Ge  Ge8  1  0.57245898  0.77916000  0.55831996  1
  Sn  Sn9  1  0.22083999  0.42754100  0.44167998  1
  Sn  Sn10  1  0.22084000  0.01413900  0.44168000  1
  Sn  Sn11  1  0.98586098  0.77916000  0.55831995  1
