# generated using pymatgen
data_Nd4HfZrNi11
_symmetry_space_group_name_H-M   'P 1'
_cell_length_a   7.92955017
_cell_length_b   7.92955017
_cell_length_c   7.92955017
_cell_angle_alpha   109.47122192
_cell_angle_beta   109.47122192
_cell_angle_gamma   109.47122192
_symmetry_Int_Tables_number   1
_chemical_formula_structural   Nd4HfZrNi11
_chemical_formula_sum   'Nd4 Hf1 Zr1 Ni11'
_cell_volume   383.81658972
_cell_formula_units_Z   1
loop_
 _symmetry_equiv_pos_site_id
 _symmetry_equiv_pos_as_xyz
  1  'x, y, z'
loop_
 _atom_site_type_symbol
 _atom_site_label
 _atom_site_symmetry_multiplicity
 _atom_site_fract_x
 _atom_site_fract_y
 _atom_site_fract_z
 _atom_site_occupancy
  Nd  Nd0  1  0.00000000  0.00000000  0.00000000  1
  Nd  Nd1  1  1.00000009  1.00000006  0.50000009  1
  Nd  Nd2  1  0.50000004  0.50000003  0.50000005  1
  Nd  Nd3  1  1.00000006  0.50000003  1.00000007  1
  Zr  Zr4  1  0.50000008  1.00000006  1.00000008  1
  Hf  Hf5  1  0.33368202  0.16308001  0.49676303  1
  Ni  Ni6  1  0.66631807  0.83692005  0.50323707  1
  Ni  Ni7  1  0.66631803  0.16308101  0.82939904  1
  Ni  Ni8  1  0.33368206  0.83691905  0.17060106  1
  Ni  Ni9  1  0.17060203  0.33368302  0.83692004  1
  Ni  Ni10  1  0.82939806  0.66631704  0.16308006  1
  Ni  Ni11  1  0.50323705  0.66631804  0.83691906  1
  Ni  Ni12  1  0.49676303  0.33368202  0.16308103  1
  Ni  Ni13  1  0.83691905  0.50323703  0.66631706  1
  Ni  Ni14  1  0.16308104  0.49676303  0.33368304  1
  Ni  Ni15  1  0.83691903  0.17060101  0.33368203  1
  Ni  Ni16  1  0.16308106  0.82939905  0.66631806  1
