# generated using pymatgen
data_Li4Fe2WO12
_symmetry_space_group_name_H-M   'P 1'
_cell_length_a   5.37929201
_cell_length_b   5.53661919
_cell_length_c   7.72428370
_cell_angle_alpha   89.98173523
_cell_angle_beta   89.98625183
_cell_angle_gamma   89.55050659
_symmetry_Int_Tables_number   1
_chemical_formula_structural   Li4Fe2WO12
_chemical_formula_sum   'Li4 Fe2 W1 O12'
_cell_volume   230.04594939
_cell_formula_units_Z   1
loop_
 _symmetry_equiv_pos_site_id
 _symmetry_equiv_pos_as_xyz
  1  'x, y, z'
loop_
 _atom_site_type_symbol
 _atom_site_label
 _atom_site_symmetry_multiplicity
 _atom_site_fract_x
 _atom_site_fract_y
 _atom_site_fract_z
 _atom_site_occupancy
  Li  Li0  1  0.01549998  0.94263203  0.75288900  1
  Li  Li1  1  0.49002699  0.44899002  0.74936298  1
  Li  Li2  1  0.51086499  0.55320402  0.25248098  1
  Li  Li3  1  0.00006499  0.48952302  0.00403301  1
  Fe  Fe4  1  0.50330200  0.00067700  0.49609797  1
  Fe  Fe5  1  0.50416600  0.00267700  0.00881598  1
  W  W6  1  0.99751299  0.49248702  0.49222096  1
  O  O7  1  0.08183899  0.47564702  0.25755900  1
  O  O8  1  0.42477498  0.98397203  0.24178599  1
  O  O9  1  0.91911499  0.52226802  0.74450596  1
  O  O10  1  0.58908700  0.02172100  0.75618497  1
  O  O11  1  0.78122498  0.79586203  0.03655398  1
  O  O12  1  0.70371899  0.30534901  0.46465197  1
  O  O13  1  0.21921300  0.20233401  0.94914598  1
  O  O14  1  0.28850199  0.69732702  0.53953499  1
  O  O15  1  0.30204999  0.71569403  0.95631898  1
  O  O16  1  0.19929100  0.21823901  0.55249399  1
  O  O17  1  0.79737298  0.77430903  0.45976597  1
  O  O18  1  0.68652399  0.29591901  0.03799997  1
