# generated using pymatgen
data_MnTlS4
_symmetry_space_group_name_H-M   'P 1'
_cell_length_a   5.93938780
_cell_length_b   6.92908287
_cell_length_c   10.22052097
_cell_angle_alpha   100.23310852
_cell_angle_beta   90.00000000
_cell_angle_gamma   115.37773132
_symmetry_Int_Tables_number   1
_chemical_formula_structural   MnTlS4
_chemical_formula_sum   'Mn2 Tl2 S8'
_cell_volume   372.61258484
_cell_formula_units_Z   2
loop_
 _symmetry_equiv_pos_site_id
 _symmetry_equiv_pos_as_xyz
  1  'x, y, z'
loop_
 _atom_site_type_symbol
 _atom_site_label
 _atom_site_symmetry_multiplicity
 _atom_site_fract_x
 _atom_site_fract_y
 _atom_site_fract_z
 _atom_site_occupancy
  Tl  Tl0  1  0.77296903  0.00000000  0.74999997  1
  Tl  Tl1  1  0.22703104  1.00000003  0.24999997  1
  Mn  Mn2  1  0.50000003  0.50000001  -0.00000001  1
  Mn  Mn3  1  1.00000005  0.50000001  0.49999997  1
  S  S4  1  0.80581205  0.53360201  0.85190096  1
  S  S5  1  0.27221002  0.46639801  0.64809897  1
  S  S6  1  0.19418802  0.46639801  0.14809898  1
  S  S7  1  0.72779004  0.53360201  0.35190097  1
  S  S8  1  0.80262503  0.12425800  0.43209298  1
  S  S9  1  0.67836705  0.87574202  0.06790698  1
  S  S10  1  0.19737504  0.87574202  0.56790696  1
  S  S11  1  0.32163302  0.12425800  0.93209296  1
