# generated using pymatgen
data_KBePC7
_symmetry_space_group_name_H-M   'P 1'
_cell_length_a   4.58013678
_cell_length_b   5.40390301
_cell_length_c   6.98229265
_cell_angle_alpha   90.00000000
_cell_angle_beta   107.35786438
_cell_angle_gamma   90.00000000
_symmetry_Int_Tables_number   1
_chemical_formula_structural   KBePC7
_chemical_formula_sum   'K1 Be1 P1 C7'
_cell_volume   164.94599193
_cell_formula_units_Z   1
loop_
 _symmetry_equiv_pos_site_id
 _symmetry_equiv_pos_as_xyz
  1  'x, y, z'
loop_
 _atom_site_type_symbol
 _atom_site_label
 _atom_site_symmetry_multiplicity
 _atom_site_fract_x
 _atom_site_fract_y
 _atom_site_fract_z
 _atom_site_occupancy
  P  P0  1  0.67836903  0.73419100  0.77218500  1
  K  K1  1  0.32163101  0.23419100  0.22781500  1
  Be  Be2  1  0.26518401  0.23052700  0.75142001  1
  C  C3  1  0.73481603  0.73052700  0.24858000  1
  C  C4  1  0.18364301  0.44616900  0.80083001  1
  C  C5  1  0.19186301  0.03029700  0.83104701  1
  C  C6  1  0.43580602  0.21481700  0.63242500  1
  C  C7  1  0.56419403  0.71481700  0.36757500  1
  C  C8  1  0.81635704  0.94616900  0.19917000  1
  C  C9  1  0.80813704  0.53029700  0.16895300  1
