# generated using pymatgen
data_Ba2Sr2Bi3Pb5
_symmetry_space_group_name_H-M   'P 1'
_cell_length_a   5.14692402
_cell_length_b   8.46901035
_cell_length_c   10.02205467
_cell_angle_alpha   90.00000000
_cell_angle_beta   90.00000000
_cell_angle_gamma   90.00000000
_symmetry_Int_Tables_number   1
_chemical_formula_structural   Ba2Sr2Bi3Pb5
_chemical_formula_sum   'Ba2 Sr2 Bi3 Pb5'
_cell_volume   436.85487691
_cell_formula_units_Z   1
loop_
 _symmetry_equiv_pos_site_id
 _symmetry_equiv_pos_as_xyz
  1  'x, y, z'
loop_
 _atom_site_type_symbol
 _atom_site_label
 _atom_site_symmetry_multiplicity
 _atom_site_fract_x
 _atom_site_fract_y
 _atom_site_fract_z
 _atom_site_occupancy
  Ba  Ba0  1  0.25000000  0.01986400  0.83102703  1
  Sr  Sr1  1  0.25000000  0.51986398  0.66897302  1
  Ba  Ba2  1  0.75000000  0.98013596  0.16897301  1
  Sr  Sr3  1  0.75000000  0.48013598  0.33102701  1
  Bi  Bi4  1  0.25000000  0.14574299  0.42608601  1
  Bi  Bi5  1  0.25000000  0.64574297  0.07391400  1
  Pb  Pb6  1  0.75000000  0.85425696  0.57391402  1
  Pb  Pb7  1  0.75000000  0.35425699  0.92608603  1
  Bi  Bi8  1  0.25000000  0.25185399  0.11066400  1
  Pb  Pb9  1  0.25000000  0.75185397  0.38933601  1
  Pb  Pb10  1  0.75000000  0.74814597  0.88933603  1
  Pb  Pb11  1  0.75000000  0.24814599  0.61066402  1
