# generated using pymatgen
data_NdSn
_symmetry_space_group_name_H-M   'P 1'
_cell_length_a   7.95563316
_cell_length_b   7.95563316
_cell_length_c   7.95563316
_cell_angle_alpha   109.47122192
_cell_angle_beta   109.47122192
_cell_angle_gamma   109.47122192
_symmetry_Int_Tables_number   1
_chemical_formula_structural   NdSn
_chemical_formula_sum   'Nd7 Sn7'
_cell_volume   387.61657245
_cell_formula_units_Z   7
loop_
 _symmetry_equiv_pos_site_id
 _symmetry_equiv_pos_as_xyz
  1  'x, y, z'
loop_
 _atom_site_type_symbol
 _atom_site_label
 _atom_site_symmetry_multiplicity
 _atom_site_fract_x
 _atom_site_fract_y
 _atom_site_fract_z
 _atom_site_occupancy
  Nd  Nd0  1  0.63570105  0.63570103  0.13570105  1
  Nd  Nd1  1  0.36429901  0.00000000  0.00000001  1
  Nd  Nd2  1  0.50000006  0.86429904  0.50000007  1
  Nd  Nd3  1  0.00000003  0.50000003  0.36429903  1
  Nd  Nd4  1  0.50000003  0.36429902  0.50000004  1
  Nd  Nd5  1  0.00000003  0.50000003  0.86429904  1
  Nd  Nd6  1  0.13570101  0.13570101  0.63570102  1
  Sn  Sn7  1  0.86429902  0.00000000  0.00000002  1
  Sn  Sn8  1  0.25000003  0.37500002  0.12500003  1
  Sn  Sn9  1  0.37500005  0.62500003  0.75000005  1
  Sn  Sn10  1  0.12500006  0.87500004  0.25000005  1
  Sn  Sn11  1  0.87500006  0.75000004  0.62500007  1
  Sn  Sn12  1  0.62500003  0.25000001  0.87500004  1
  Sn  Sn13  1  0.75000002  0.12500001  0.37500003  1
