# generated using pymatgen
data_Nd2Ge3
_symmetry_space_group_name_H-M   'P 1'
_cell_length_a   5.77216196
_cell_length_b   5.88471651
_cell_length_c   8.23659801
_cell_angle_alpha   102.82209778
_cell_angle_beta   90.00000000
_cell_angle_gamma   119.36928558
_symmetry_Int_Tables_number   1
_chemical_formula_structural   Nd2Ge3
_chemical_formula_sum   'Nd4 Ge6'
_cell_volume   235.78099370
_cell_formula_units_Z   2
loop_
 _symmetry_equiv_pos_site_id
 _symmetry_equiv_pos_as_xyz
  1  'x, y, z'
loop_
 _atom_site_type_symbol
 _atom_site_label
 _atom_site_symmetry_multiplicity
 _atom_site_fract_x
 _atom_site_fract_y
 _atom_site_fract_z
 _atom_site_occupancy
  Nd  Nd0  1  0.49551795  0.70127798  0.35040200  1
  Nd  Nd1  1  0.79423998  0.29872199  0.14959800  1
  Nd  Nd2  1  0.50448198  0.29872199  0.64959800  1
  Nd  Nd3  1  0.20575995  0.70127798  0.85040200  1
  Ge  Ge4  1  0.15232200  0.00000000  0.25000000  1
  Ge  Ge5  1  0.84767801  0.00000000  0.75000000  1
  Ge  Ge6  1  0.27173798  0.26786999  0.00279100  1
  Ge  Ge7  1  0.00386795  0.73212998  0.49720900  1
  Ge  Ge8  1  0.72826195  0.73212998  0.99720900  1
  Ge  Ge9  1  0.99613199  0.26786999  0.50279100  1
