# generated using pymatgen
data_HfZr(NiRu)2
_symmetry_space_group_name_H-M   'P 1'
_cell_length_a   4.99951744
_cell_length_b   4.99951744
_cell_length_c   5.16272640
_cell_angle_alpha   61.04036331
_cell_angle_beta   61.04036331
_cell_angle_gamma   60.00000381
_symmetry_Int_Tables_number   1
_chemical_formula_structural   HfZr(NiRu)2
_chemical_formula_sum   'Hf1 Zr1 Ni2 Ru2'
_cell_volume   92.65600192
_cell_formula_units_Z   1
loop_
 _symmetry_equiv_pos_site_id
 _symmetry_equiv_pos_as_xyz
  1  'x, y, z'
loop_
 _atom_site_type_symbol
 _atom_site_label
 _atom_site_symmetry_multiplicity
 _atom_site_fract_x
 _atom_site_fract_y
 _atom_site_fract_z
 _atom_site_occupancy
  Hf  Hf0  1  0.12175100  0.12175101  0.63474701  1
  Zr  Zr1  1  0.87824903  0.87824904  0.36525298  1
  Ni  Ni2  1  -0.00000001  0.50000002  -0.00000001  1
  Ru  Ru3  1  0.50000002  0.00000000  -0.00000001  1
  Ni  Ni4  1  0.50000001  0.50000002  -0.00000002  1
  Ru  Ru5  1  0.50000001  0.50000002  0.49999999  1
