# generated using pymatgen
data_Li5Ca
_symmetry_space_group_name_H-M   'P 1'
_cell_length_a   3.34462404
_cell_length_b   3.34462380
_cell_length_c   17.69102287
_cell_angle_alpha   90.00000000
_cell_angle_beta   90.00000000
_cell_angle_gamma   120.00000000
_symmetry_Int_Tables_number   1
_chemical_formula_structural   Li5Ca
_chemical_formula_sum   'Li5 Ca1'
_cell_volume   171.38711150
_cell_formula_units_Z   1
loop_
 _symmetry_equiv_pos_site_id
 _symmetry_equiv_pos_as_xyz
  1  'x, y, z'
loop_
 _atom_site_type_symbol
 _atom_site_label
 _atom_site_symmetry_multiplicity
 _atom_site_fract_x
 _atom_site_fract_y
 _atom_site_fract_z
 _atom_site_occupancy
  Ca  Ca0  1  0.66666664  0.33333331  0.24999999  1
  Li  Li1  1  0.33333329  0.66666663  0.74999996  1
  Li  Li2  1  0.00000000  0.00000000  0.16165699  1
  Li  Li3  1  0.00000000  0.00000000  0.33834298  1
  Li  Li4  1  0.00000000  0.00000000  0.66165697  1
  Li  Li5  1  0.00000000  0.00000000  0.83834296  1
