# generated using pymatgen
data_TiNi2
_symmetry_space_group_name_H-M   'P 1'
_cell_length_a   3.55223608
_cell_length_b   5.96122408
_cell_length_c   6.83050394
_cell_angle_alpha   90.00000000
_cell_angle_beta   90.00000000
_cell_angle_gamma   90.00000000
_symmetry_Int_Tables_number   1
_chemical_formula_structural   TiNi2
_chemical_formula_sum   'Ti4 Ni8'
_cell_volume   144.64053328
_cell_formula_units_Z   4
loop_
 _symmetry_equiv_pos_site_id
 _symmetry_equiv_pos_as_xyz
  1  'x, y, z'
loop_
 _atom_site_type_symbol
 _atom_site_label
 _atom_site_symmetry_multiplicity
 _atom_site_fract_x
 _atom_site_fract_y
 _atom_site_fract_z
 _atom_site_occupancy
  Ti  Ti0  1  0.74999998  0.47496599  0.67798901  1
  Ti  Ti1  1  0.24999999  0.02503400  0.17798900  1
  Ti  Ti2  1  0.74999998  0.97496599  0.82201101  1
  Ti  Ti3  1  0.24999999  0.52503399  0.32201100  1
  Ni  Ni4  1  0.24999999  0.64283599  0.93896601  1
  Ni  Ni5  1  0.24999999  0.14283600  0.56103400  1
  Ni  Ni6  1  0.74999998  0.85716399  0.43896600  1
  Ni  Ni7  1  0.74999998  0.35716400  0.06103400  1
  Ni  Ni8  1  0.24999999  0.76690299  0.62384101  1
  Ni  Ni9  1  0.24999999  0.26690300  0.87615901  1
  Ni  Ni10  1  0.74999998  0.23309700  0.37615900  1
  Ni  Ni11  1  0.74999998  0.73309699  0.12384100  1
