# generated using pymatgen
data_Nb3Fe2C3
_symmetry_space_group_name_H-M   'P 1'
_cell_length_a   3.06317902
_cell_length_b   5.33456421
_cell_length_c   5.94818878
_cell_angle_alpha   90.00000000
_cell_angle_beta   90.00000000
_cell_angle_gamma   90.00000000
_symmetry_Int_Tables_number   1
_chemical_formula_structural   Nb3Fe2C3
_chemical_formula_sum   'Nb3 Fe2 C3'
_cell_volume   97.19771799
_cell_formula_units_Z   1
loop_
 _symmetry_equiv_pos_site_id
 _symmetry_equiv_pos_as_xyz
  1  'x, y, z'
loop_
 _atom_site_type_symbol
 _atom_site_label
 _atom_site_symmetry_multiplicity
 _atom_site_fract_x
 _atom_site_fract_y
 _atom_site_fract_z
 _atom_site_occupancy
  Fe  Fe0  1  0.25000000  0.50885298  0.69007703  1
  Nb  Nb1  1  0.75000000  0.49114698  0.30992301  1
  Nb  Nb2  1  0.25000000  0.00885300  0.80992303  1
  Nb  Nb3  1  0.75000000  0.99114696  0.19007701  1
  Fe  Fe4  1  0.25000000  0.68268297  0.06444600  1
  C  C5  1  0.75000000  0.31731699  0.93555403  1
  C  C6  1  0.25000000  0.18268299  0.43555402  1
  C  C7  1  0.75000000  0.81731697  0.56444602  1
