# generated using pymatgen
data_Nd2AlFeC6
_symmetry_space_group_name_H-M   'P 1'
_cell_length_a   5.98131800
_cell_length_b   5.99669075
_cell_length_c   5.98131800
_cell_angle_alpha   119.91523743
_cell_angle_beta   90.00000000
_cell_angle_gamma   119.91523743
_symmetry_Int_Tables_number   1
_chemical_formula_structural   Nd2AlFeC6
_chemical_formula_sum   'Nd2 Al1 Fe1 C6'
_cell_volume   152.08958486
_cell_formula_units_Z   1
loop_
 _symmetry_equiv_pos_site_id
 _symmetry_equiv_pos_as_xyz
  1  'x, y, z'
loop_
 _atom_site_type_symbol
 _atom_site_label
 _atom_site_symmetry_multiplicity
 _atom_site_fract_x
 _atom_site_fract_y
 _atom_site_fract_z
 _atom_site_occupancy
  Nd  Nd0  1  0.25000003  0.50000003  0.75000003  1
  Nd  Nd1  1  0.75000003  0.50000003  0.25000003  1
  Al  Al2  1  0.50000000  0.00000000  0.50000000  1
  Fe  Fe3  1  0.00000000  0.00000000  0.00000000  1
  C  C4  1  0.25050000  0.00000000  0.79330900  1
  C  C5  1  0.20669100  0.00000000  0.25050000  1
  C  C6  1  0.79330907  1.00000006  0.74950007  1
  C  C7  1  0.74950000  0.00000000  0.20669100  1
  C  C8  1  0.77086604  0.54173203  0.77086604  1
  C  C9  1  0.22913403  0.45826803  0.22913403  1
