# generated using pymatgen
data_CsNa2TeO4
_symmetry_space_group_name_H-M   'P 1'
_cell_length_a   3.32301593
_cell_length_b   3.32301664
_cell_length_c   14.90740299
_cell_angle_alpha   90.00000000
_cell_angle_beta   90.00000000
_cell_angle_gamma   119.99999237
_symmetry_Int_Tables_number   1
_chemical_formula_structural   CsNa2TeO4
_chemical_formula_sum   'Cs1 Na2 Te1 O4'
_cell_volume   142.55997038
_cell_formula_units_Z   1
loop_
 _symmetry_equiv_pos_site_id
 _symmetry_equiv_pos_as_xyz
  1  'x, y, z'
loop_
 _atom_site_type_symbol
 _atom_site_label
 _atom_site_symmetry_multiplicity
 _atom_site_fract_x
 _atom_site_fract_y
 _atom_site_fract_z
 _atom_site_occupancy
  Na  Na0  1  0.66666667  0.33333333  0.91829100  1
  Cs  Cs1  1  0.33333332  0.66666665  0.41829100  1
  Na  Na2  1  0.33333332  0.66666665  0.08170900  1
  Te  Te3  1  0.66666667  0.33333333  0.58170900  1
  O  O4  1  0.66666667  0.33333333  0.25000000  1
  O  O5  1  0.33333332  0.66666665  0.75000000  1
  O  O6  1  0.00000000  0.00000000  0.00000000  1
  O  O7  1  0.00000000  0.00000000  0.50000000  1
