# generated using pymatgen
data_SrCa5BiO13
_symmetry_space_group_name_H-M   'P 1'
_cell_length_a   4.36870098
_cell_length_b   4.36870098
_cell_length_c   17.54154968
_cell_angle_alpha   90.00000000
_cell_angle_beta   90.00000000
_cell_angle_gamma   90.00000000
_symmetry_Int_Tables_number   1
_chemical_formula_structural   SrCa5BiO13
_chemical_formula_sum   'Sr1 Ca5 Bi1 O13'
_cell_volume   334.79009307
_cell_formula_units_Z   1
loop_
 _symmetry_equiv_pos_site_id
 _symmetry_equiv_pos_as_xyz
  1  'x, y, z'
loop_
 _atom_site_type_symbol
 _atom_site_label
 _atom_site_symmetry_multiplicity
 _atom_site_fract_x
 _atom_site_fract_y
 _atom_site_fract_z
 _atom_site_occupancy
  Ca  Ca0  1  0.50000000  0.50000000  0.86941102  1
  Ca  Ca1  1  0.50000000  0.50000000  0.62348401  1
  Sr  Sr2  1  0.50000000  0.50000000  0.37651601  1
  Ca  Ca3  1  0.50000000  0.50000000  0.13058900  1
  Ca  Ca4  1  0.00000000  0.00000000  0.00000000  1
  Ca  Ca5  1  0.00000000  0.00000000  0.74888801  1
  Bi  Bi6  1  0.00000000  0.00000000  0.50000001  1
  O  O7  1  0.00000000  0.00000000  0.25111200  1
  O  O8  1  0.00000000  0.50000000  0.75312301  1
  O  O9  1  0.00000000  0.50000000  0.50000001  1
  O  O10  1  0.00000000  0.50000000  0.24687700  1
  O  O11  1  0.00000000  0.50000000  0.00000000  1
  O  O12  1  0.50000000  0.00000000  0.75312301  1
  O  O13  1  0.50000000  0.00000000  0.50000001  1
  O  O14  1  0.50000000  0.00000000  0.24687700  1
  O  O15  1  0.50000000  0.00000000  0.00000000  1
  O  O16  1  0.00000000  0.00000000  0.87620702  1
  O  O17  1  0.00000000  0.00000000  0.62543001  1
  O  O18  1  0.00000000  0.00000000  0.37457001  1
  O  O19  1  0.00000000  0.00000000  0.12379300  1
