# generated using pymatgen
data_LiNi4
_symmetry_space_group_name_H-M   'P 1'
_cell_length_a   5.61053991
_cell_length_b   5.61053991
_cell_length_c   6.16040897
_cell_angle_alpha   105.29660034
_cell_angle_beta   105.29660034
_cell_angle_gamma   114.87609100
_symmetry_Int_Tables_number   1
_chemical_formula_structural   LiNi4
_chemical_formula_sum   'Li2 Ni8'
_cell_volume   153.34212569
_cell_formula_units_Z   2
loop_
 _symmetry_equiv_pos_site_id
 _symmetry_equiv_pos_as_xyz
  1  'x, y, z'
loop_
 _atom_site_type_symbol
 _atom_site_label
 _atom_site_symmetry_multiplicity
 _atom_site_fract_x
 _atom_site_fract_y
 _atom_site_fract_z
 _atom_site_occupancy
  Li  Li0  1  0.50000010  0.50000006  0.00000008  1
  Li  Li1  1  0.75000007  0.25000003  0.50000005  1
  Ni  Ni2  1  0.17740613  0.82259410  0.00000010  1
  Ni  Ni3  1  0.07259414  0.92740611  0.50000009  1
  Ni  Ni4  1  0.82259406  0.17740602  0.00000006  1
  Ni  Ni5  1  0.42740610  0.57259407  0.50000007  1
  Ni  Ni6  1  0.87067117  0.87067111  0.74134212  1
  Ni  Ni7  1  0.12932903  0.12932902  0.25865801  1
  Ni  Ni8  1  0.37932915  0.87932911  0.75865809  1
  Ni  Ni9  1  0.12067110  0.62067108  0.24134207  1
