# generated using pymatgen
data_BaNa3Cd2(NiO3)3
_symmetry_space_group_name_H-M   'P 1'
_cell_length_a   5.72299290
_cell_length_b   5.72299290
_cell_length_c   8.30706882
_cell_angle_alpha   90.00000000
_cell_angle_beta   90.00000000
_cell_angle_gamma   90.00000000
_symmetry_Int_Tables_number   1
_chemical_formula_structural   BaNa3Cd2(NiO3)3
_chemical_formula_sum   'Ba1 Na3 Cd2 Ni3 O9'
_cell_volume   272.07849863
_cell_formula_units_Z   1
loop_
 _symmetry_equiv_pos_site_id
 _symmetry_equiv_pos_as_xyz
  1  'x, y, z'
loop_
 _atom_site_type_symbol
 _atom_site_label
 _atom_site_symmetry_multiplicity
 _atom_site_fract_x
 _atom_site_fract_y
 _atom_site_fract_z
 _atom_site_occupancy
  Na  Na0  1  0.00000000  0.00000000  0.00000000  1
  Na  Na1  1  0.50000001  0.50000001  0.00000000  1
  Ba  Ba2  1  0.00000000  0.50000001  0.24093301  1
  Na  Na3  1  0.50000001  0.00000000  0.75906702  1
  Cd  Cd4  1  0.00000000  0.00000000  0.50000001  1
  Cd  Cd5  1  0.50000001  0.50000001  0.50000001  1
  Ni  Ni6  1  0.50000001  0.00000000  0.26076201  1
  Ni  Ni7  1  0.00000000  0.50000001  0.73923802  1
  O  O8  1  0.50000001  0.00000000  0.03679900  1
  O  O9  1  0.26822700  0.76822701  0.33292001  1
  O  O10  1  0.73177301  0.76822701  0.33292001  1
  Ni  Ni11  1  0.26822700  0.23177300  0.33292001  1
  O  O12  1  0.73177301  0.23177300  0.33292001  1
  O  O13  1  0.76822701  0.26822700  0.66708001  1
  O  O14  1  0.23177300  0.26822700  0.66708001  1
  O  O15  1  0.76822701  0.73177301  0.66708001  1
  O  O16  1  0.23177300  0.73177301  0.66708001  1
  O  O17  1  0.00000000  0.50000001  0.96320102  1
