# generated using pymatgen
data_Hf5Ga3
_symmetry_space_group_name_H-M   'P 1'
_cell_length_a   5.44312000
_cell_length_b   8.08043194
_cell_length_c   8.08043194
_cell_angle_alpha   120.00000000
_cell_angle_beta   90.00000000
_cell_angle_gamma   90.00000000
_symmetry_Int_Tables_number   1
_chemical_formula_structural   Hf5Ga3
_chemical_formula_sum   'Hf10 Ga6'
_cell_volume   307.78517251
_cell_formula_units_Z   2
loop_
 _symmetry_equiv_pos_site_id
 _symmetry_equiv_pos_as_xyz
  1  'x, y, z'
loop_
 _atom_site_type_symbol
 _atom_site_label
 _atom_site_symmetry_multiplicity
 _atom_site_fract_x
 _atom_site_fract_y
 _atom_site_fract_z
 _atom_site_occupancy
  Hf  Hf0  1  0.75000000  0.75715100  0.75715095  1
  Hf  Hf1  1  0.25000000  0.75715100  -0.00000002  1
  Hf  Hf2  1  0.25000000  0.00000000  0.75715097  1
  Hf  Hf3  1  0.75000000  0.99999999  0.24284896  1
  Hf  Hf4  1  0.75000000  0.24284900  -0.00000001  1
  Hf  Hf5  1  0.25000000  0.24284900  0.24284899  1
  Hf  Hf6  1  -0.00000000  0.66666666  0.33333330  1
  Hf  Hf7  1  0.50000000  0.33333333  0.66666664  1
  Hf  Hf8  1  -0.00000000  0.33333333  0.66666664  1
  Hf  Hf9  1  0.50000000  0.66666666  0.33333330  1
  Ga  Ga10  1  0.75000000  0.39129300  0.39129298  1
  Ga  Ga11  1  0.25000000  0.39129300  -0.00000001  1
  Ga  Ga12  1  0.25000000  0.99999999  0.39129296  1
  Ga  Ga13  1  0.75000000  0.00000000  0.60870698  1
  Ga  Ga14  1  0.75000000  0.60870700  -0.00000002  1
  Ga  Ga15  1  0.25000000  0.60870700  0.60870696  1
