# generated using pymatgen
data_BaUSbCN
_symmetry_space_group_name_H-M   'P 1'
_cell_length_a   4.07424402
_cell_length_b   4.07424402
_cell_length_c   7.11081743
_cell_angle_alpha   106.64746094
_cell_angle_beta   106.64746094
_cell_angle_gamma   90.00000000
_symmetry_Int_Tables_number   1
_chemical_formula_structural   BaUSbCN
_chemical_formula_sum   'Ba1 U1 Sb1 C1 N1'
_cell_volume   107.91438482
_cell_formula_units_Z   1
loop_
 _symmetry_equiv_pos_site_id
 _symmetry_equiv_pos_as_xyz
  1  'x, y, z'
loop_
 _atom_site_type_symbol
 _atom_site_label
 _atom_site_symmetry_multiplicity
 _atom_site_fract_x
 _atom_site_fract_y
 _atom_site_fract_z
 _atom_site_occupancy
  Ba  Ba0  1  0.66013298  0.66013299  0.32026597  1
  U  U1  1  0.33986699  0.33986699  0.67973397  1
  Sb  Sb2  1  0.00000000  0.00000000  0.00000000  1
  C  C3  1  0.74999999  0.25000000  0.49999997  1
  N  N4  1  0.24999998  0.74999999  0.49999996  1
