# generated using pymatgen
data_Ce4Al3Ge5
_symmetry_space_group_name_H-M   'P 1'
_cell_length_a   4.61727190
_cell_length_b   7.34651613
_cell_length_c   8.86574841
_cell_angle_alpha   90.00000000
_cell_angle_beta   105.09376526
_cell_angle_gamma   90.00000000
_symmetry_Int_Tables_number   1
_chemical_formula_structural   Ce4Al3Ge5
_chemical_formula_sum   'Ce4 Al3 Ge5'
_cell_volume   290.35880785
_cell_formula_units_Z   1
loop_
 _symmetry_equiv_pos_site_id
 _symmetry_equiv_pos_as_xyz
  1  'x, y, z'
loop_
 _atom_site_type_symbol
 _atom_site_label
 _atom_site_symmetry_multiplicity
 _atom_site_fract_x
 _atom_site_fract_y
 _atom_site_fract_z
 _atom_site_occupancy
  Ce  Ce0  1  0.38230401  0.74999999  0.76460803  1
  Ce  Ce1  1  0.61769601  0.25000000  0.23539201  1
  Ce  Ce2  1  0.00000000  0.49999999  -0.00000000  1
  Ce  Ce3  1  0.81735602  0.45356599  0.63471202  1
  Ge  Ge4  1  0.81735602  0.04643400  0.63471202  1
  Al  Al5  1  0.43193301  0.25000000  0.86386603  1
  Al  Al6  1  0.18264400  0.95356598  0.36528801  1
  Al  Al7  1  0.18264400  0.54643399  0.36528801  1
  Ge  Ge8  1  0.00000000  0.00000000  0.00000000  1
  Ge  Ge9  1  0.56806701  0.74999999  0.13613401  1
  Ge  Ge10  1  0.27551601  0.25000000  0.55103202  1
  Ge  Ge11  1  0.72448402  0.74999999  0.44896802  1
