# generated using pymatgen
data_U3Ge2MoRu3
_symmetry_space_group_name_H-M   'P 1'
_cell_length_a   3.72020102
_cell_length_b   6.66464186
_cell_length_c   6.66464186
_cell_angle_alpha   120.00000000
_cell_angle_beta   90.00000000
_cell_angle_gamma   90.00000000
_symmetry_Int_Tables_number   1
_chemical_formula_structural   U3Ge2MoRu3
_chemical_formula_sum   'U3 Ge2 Mo1 Ru3'
_cell_volume   143.10363695
_cell_formula_units_Z   1
loop_
 _symmetry_equiv_pos_site_id
 _symmetry_equiv_pos_as_xyz
  1  'x, y, z'
loop_
 _atom_site_type_symbol
 _atom_site_label
 _atom_site_symmetry_multiplicity
 _atom_site_fract_x
 _atom_site_fract_y
 _atom_site_fract_z
 _atom_site_occupancy
  U  U0  1  -0.00000000  0.58891101  -0.00000001  1
  U  U1  1  -0.00000000  0.41108900  0.41108898  1
  U  U2  1  0.00000000  0.00000000  0.58891099  1
  Ge  Ge3  1  0.50000000  0.33333334  0.66666665  1
  Ge  Ge4  1  0.00000000  0.00000000  0.00000000  1
  Mo  Mo5  1  0.50000000  0.66666667  0.33333331  1
  Ru  Ru6  1  0.50000000  0.00000000  0.25997600  1
  Ru  Ru7  1  0.50000000  0.25997600  -0.00000001  1
  Ru  Ru8  1  0.50000000  0.74002401  0.74002397  1
