# generated using pymatgen
data_LiTi2Cu3S8
_symmetry_space_group_name_H-M   'P 1'
_cell_length_a   7.27563810
_cell_length_b   7.44823408
_cell_length_c   7.44823408
_cell_angle_alpha   62.53171921
_cell_angle_beta   61.01121140
_cell_angle_gamma   61.01121140
_symmetry_Int_Tables_number   1
_chemical_formula_structural   LiTi2Cu3S8
_chemical_formula_sum   'Li1 Ti2 Cu3 S8'
_cell_volume   294.99631310
_cell_formula_units_Z   1
loop_
 _symmetry_equiv_pos_site_id
 _symmetry_equiv_pos_as_xyz
  1  'x, y, z'
loop_
 _atom_site_type_symbol
 _atom_site_label
 _atom_site_symmetry_multiplicity
 _atom_site_fract_x
 _atom_site_fract_y
 _atom_site_fract_z
 _atom_site_occupancy
  Li  Li0  1  -0.00000000  0.49999999  0.00000002  1
  Ti  Ti1  1  0.99999997  0.00000000  0.50000001  1
  Ti  Ti2  1  0.49999998  0.49999999  0.50000002  1
  Cu  Cu3  1  0.49999998  0.49999999  0.00000002  1
  Cu  Cu4  1  0.99999997  0.49999999  0.50000002  1
  Cu  Cu5  1  0.49999999  0.00000000  0.50000000  1
  S  S6  1  0.74647198  0.71714099  0.30077503  1
  S  S7  1  0.27317299  0.73823899  0.73823903  1
  S  S8  1  0.74647198  0.30077500  0.71714102  1
  S  S9  1  0.26947099  0.23946600  0.23946601  1
  S  S10  1  0.25352799  0.69922499  0.28285902  1
  S  S11  1  0.72682698  0.26176100  0.26176101  1
  S  S12  1  0.73052898  0.76053399  0.76053403  1
  S  S13  1  0.25352799  0.28285900  0.69922501  1
