# generated using pymatgen
data_TlAg3
_symmetry_space_group_name_H-M   'P 1'
_cell_length_a   4.40329790
_cell_length_b   4.40329790
_cell_length_c   5.67855597
_cell_angle_alpha   112.81225586
_cell_angle_beta   112.81225586
_cell_angle_gamma   90.00000000
_symmetry_Int_Tables_number   1
_chemical_formula_structural   TlAg3
_chemical_formula_sum   'Tl1 Ag3'
_cell_volume   92.07541856
_cell_formula_units_Z   1
loop_
 _symmetry_equiv_pos_site_id
 _symmetry_equiv_pos_as_xyz
  1  'x, y, z'
loop_
 _atom_site_type_symbol
 _atom_site_label
 _atom_site_symmetry_multiplicity
 _atom_site_fract_x
 _atom_site_fract_y
 _atom_site_fract_z
 _atom_site_occupancy
  Tl  Tl0  1  0.74999998  0.25000000  0.49999994  1
  Ag  Ag1  1  0.24999995  0.74999999  0.49999993  1
  Ag  Ag2  1  0.49999996  0.49999999  -0.00000007  1
  Ag  Ag3  1  0.00000000  0.00000000  0.00000000  1
