# generated using pymatgen
data_Li5Mg5Cu6
_symmetry_space_group_name_H-M   'P 1'
_cell_length_a   5.37687588
_cell_length_b   7.71845818
_cell_length_c   7.77010632
_cell_angle_alpha   119.78035736
_cell_angle_beta   90.00000000
_cell_angle_gamma   90.00000000
_symmetry_Int_Tables_number   1
_chemical_formula_structural   Li5Mg5Cu6
_chemical_formula_sum   'Li5 Mg5 Cu6'
_cell_volume   279.88209707
_cell_formula_units_Z   1
loop_
 _symmetry_equiv_pos_site_id
 _symmetry_equiv_pos_as_xyz
  1  'x, y, z'
loop_
 _atom_site_type_symbol
 _atom_site_label
 _atom_site_symmetry_multiplicity
 _atom_site_fract_x
 _atom_site_fract_y
 _atom_site_fract_z
 _atom_site_occupancy
  Li  Li0  1  0.50000001  0.24592299  -0.00000001  1
  Li  Li1  1  0.50000001  0.74883196  0.74875495  1
  Li  Li2  1  0.50000001  0.00007700  0.25124500  1
  Li  Li3  1  1.00000002  0.74861796  -0.00000004  1
  Li  Li4  1  -0.00000000  0.26360499  0.26363598  1
  Mg  Mg5  1  -0.00000000  0.99996895  0.73636393  1
  Mg  Mg6  1  0.74899902  0.33257098  0.66660297  1
  Mg  Mg7  1  0.74899902  0.66596797  0.33339696  1
  Mg  Mg8  1  0.25100101  0.66596797  0.33339696  1
  Mg  Mg9  1  0.25100101  0.33257098  0.66660297  1
  Cu  Cu10  1  0.50000001  0.60421197  0.99999995  1
  Cu  Cu11  1  0.50000001  0.39414398  0.39399197  1
  Cu  Cu12  1  0.50000001  0.00015200  0.60600799  1
  Cu  Cu13  1  -0.00000000  0.38768598  -0.00000002  1
  Cu  Cu14  1  -0.00000000  0.60915197  0.60859396  1
  Cu  Cu15  1  -0.00000000  0.00055800  0.39140599  1
