# generated using pymatgen
data_Fe
_symmetry_space_group_name_H-M   'P 1'
_cell_length_a   4.76188183
_cell_length_b   4.76188183
_cell_length_c   4.76188183
_cell_angle_alpha   90.00000000
_cell_angle_beta   90.00000000
_cell_angle_gamma   90.00000000
_symmetry_Int_Tables_number   1
_chemical_formula_structural   Fe
_chemical_formula_sum   Fe8
_cell_volume   107.97813972
_cell_formula_units_Z   8
loop_
 _symmetry_equiv_pos_site_id
 _symmetry_equiv_pos_as_xyz
  1  'x, y, z'
loop_
 _atom_site_type_symbol
 _atom_site_label
 _atom_site_symmetry_multiplicity
 _atom_site_fract_x
 _atom_site_fract_y
 _atom_site_fract_z
 _atom_site_occupancy
  Fe  Fe0  1  0.63708602  0.13708600  0.36291401  1
  Fe  Fe1  1  0.13708600  0.36291401  0.63708602  1
  Fe  Fe2  1  0.36291401  0.63708602  0.13708600  1
  Fe  Fe3  1  0.86291403  0.86291403  0.86291403  1
  Fe  Fe4  1  0.34291801  0.84291803  0.65708202  1
  Fe  Fe5  1  0.84291803  0.65708202  0.34291801  1
  Fe  Fe6  1  0.65708202  0.34291801  0.84291803  1
  Fe  Fe7  1  0.15708201  0.15708201  0.15708201  1
