# generated using pymatgen
data_Fe
_symmetry_space_group_name_H-M   'P 1'
_cell_length_a   4.69956303
_cell_length_b   6.46463060
_cell_length_c   6.46463013
_cell_angle_alpha   82.67633057
_cell_angle_beta   68.68576813
_cell_angle_gamma   68.68576050
_symmetry_Int_Tables_number   1
_chemical_formula_structural   Fe
_chemical_formula_sum   Fe13
_cell_volume   170.45058425
_cell_formula_units_Z   13
loop_
 _symmetry_equiv_pos_site_id
 _symmetry_equiv_pos_as_xyz
  1  'x, y, z'
loop_
 _atom_site_type_symbol
 _atom_site_label
 _atom_site_symmetry_multiplicity
 _atom_site_fract_x
 _atom_site_fract_y
 _atom_site_fract_z
 _atom_site_occupancy
  Fe  Fe0  1  1.00000006  0.99341798  0.00658197  1
  Fe  Fe1  1  0.50000005  0.77051398  0.22948597  1
  Fe  Fe2  1  0.50000001  0.22741799  0.77258200  1
  Fe  Fe3  1  0.72274005  0.77885998  0.77565898  1
  Fe  Fe4  1  0.27725901  0.22434099  0.22114000  1
  Fe  Fe5  1  0.00069507  0.99800198  0.49989395  1
  Fe  Fe6  1  0.50140907  0.99800198  0.49989396  1
  Fe  Fe7  1  0.49859103  0.50010599  0.00199798  1
  Fe  Fe8  1  0.99930502  0.50010599  0.00199799  1
  Fe  Fe9  1  0.00000005  0.64133398  0.35866597  1
  Fe  Fe10  1  0.64143002  0.35926399  0.35787700  1
  Fe  Fe11  1  0.35857104  0.64212298  0.64073598  1
  Fe  Fe12  1  0.00000003  0.36651299  0.63348699  1
