# generated using pymatgen
data_Li4MnO6
_symmetry_space_group_name_H-M   'P 1'
_cell_length_a   3.31923604
_cell_length_b   5.74315786
_cell_length_c   8.79874039
_cell_angle_alpha   102.17628479
_cell_angle_beta   90.00000000
_cell_angle_gamma   90.00000000
_symmetry_Int_Tables_number   1
_chemical_formula_structural   Li4MnO6
_chemical_formula_sum   'Li4 Mn1 O6'
_cell_volume   163.95611475
_cell_formula_units_Z   1
loop_
 _symmetry_equiv_pos_site_id
 _symmetry_equiv_pos_as_xyz
  1  'x, y, z'
loop_
 _atom_site_type_symbol
 _atom_site_label
 _atom_site_symmetry_multiplicity
 _atom_site_fract_x
 _atom_site_fract_y
 _atom_site_fract_z
 _atom_site_occupancy
  Li  Li0  1  0.49999999  0.37441901  0.63491203  1
  Li  Li1  1  0.99999999  0.88076603  0.63338105  1
  Li  Li2  1  0.49999999  0.62558102  0.36508803  1
  Li  Li3  1  0.99999999  0.11923400  0.36661902  1
  Mn  Mn4  1  0.00000000  0.00000000  0.00000000  1
  O  O5  1  -0.00000000  0.50000002  0.50000003  1
  O  O6  1  0.49999999  0.00000000  0.50000002  1
  O  O7  1  0.49999999  0.22718101  0.16783901  1
  O  O8  1  -0.00000000  0.72403802  0.16966402  1
  O  O9  1  0.49999999  0.77281902  0.83216105  1
  O  O10  1  -0.00000000  0.27596201  0.83033604  1
