# generated using pymatgen
data_UGePd
_symmetry_space_group_name_H-M   'P 1'
_cell_length_a   3.35807300
_cell_length_b   7.95176220
_cell_length_c   7.95176220
_cell_angle_alpha   120.00000000
_cell_angle_beta   90.00000000
_cell_angle_gamma   90.00000000
_symmetry_Int_Tables_number   1
_chemical_formula_structural   UGePd
_chemical_formula_sum   'U3 Ge3 Pd3'
_cell_volume   183.88551980
_cell_formula_units_Z   3
loop_
 _symmetry_equiv_pos_site_id
 _symmetry_equiv_pos_as_xyz
  1  'x, y, z'
loop_
 _atom_site_type_symbol
 _atom_site_label
 _atom_site_symmetry_multiplicity
 _atom_site_fract_x
 _atom_site_fract_y
 _atom_site_fract_z
 _atom_site_occupancy
  U  U0  1  -0.00000000  0.74503698  0.74503700  1
  U  U1  1  -0.00000000  0.25496299  0.00000000  1
  U  U2  1  0.00000000  0.00000000  0.25496300  1
  Ge  Ge3  1  0.50000000  0.40182199  0.40182200  1
  Ge  Ge4  1  0.50000000  0.59817799  0.00000000  1
  Ge  Ge5  1  0.50000000  0.00000000  0.59817799  1
  Pd  Pd6  1  -0.00000000  0.33333333  0.66666666  1
  Pd  Pd7  1  -0.00000000  0.66666665  0.33333333  1
  Pd  Pd8  1  0.50000000  0.00000000  -0.00000000  1
