# generated using pymatgen
data_Mn2TlCrBr6
_symmetry_space_group_name_H-M   'P 1'
_cell_length_a   3.97188807
_cell_length_b   8.91396141
_cell_length_c   14.46718025
_cell_angle_alpha   90.00000000
_cell_angle_beta   90.00000000
_cell_angle_gamma   90.00000000
_symmetry_Int_Tables_number   1
_chemical_formula_structural   Mn2TlCrBr6
_chemical_formula_sum   'Mn4 Tl2 Cr2 Br12'
_cell_volume   512.21423404
_cell_formula_units_Z   2
loop_
 _symmetry_equiv_pos_site_id
 _symmetry_equiv_pos_as_xyz
  1  'x, y, z'
loop_
 _atom_site_type_symbol
 _atom_site_label
 _atom_site_symmetry_multiplicity
 _atom_site_fract_x
 _atom_site_fract_y
 _atom_site_fract_z
 _atom_site_occupancy
  Tl  Tl0  1  0.25000000  0.43732298  0.32220499  1
  Tl  Tl1  1  0.25000000  0.93732296  0.17779500  1
  Mn  Mn2  1  0.74999999  0.56267697  0.67779499  1
  Mn  Mn3  1  0.74999999  0.06267700  0.82220499  1
  Mn  Mn4  1  0.25000000  0.17024599  0.55658599  1
  Mn  Mn5  1  0.25000000  0.67024597  0.94341398  1
  Cr  Cr6  1  0.74999999  0.82975396  0.44341399  1
  Cr  Cr7  1  0.74999999  0.32975398  0.05658600  1
  Br  Br8  1  0.25000000  0.02123800  0.38980599  1
  Br  Br9  1  0.25000000  0.52123798  0.11019400  1
  Br  Br10  1  0.74999999  0.97876195  0.61019399  1
  Br  Br11  1  0.74999999  0.47876198  0.88980598  1
  Br  Br12  1  0.25000000  0.15694499  0.98531098  1
  Br  Br13  1  0.25000000  0.65694497  0.51468899  1
  Br  Br14  1  0.74999999  0.84305496  0.01468900  1
  Br  Br15  1  0.74999999  0.34305498  0.48531099  1
  Br  Br16  1  0.25000000  0.29396499  0.72056699  1
  Br  Br17  1  0.25000000  0.79396496  0.77943299  1
  Br  Br18  1  0.74999999  0.70603497  0.27943300  1
  Br  Br19  1  0.74999999  0.20603499  0.22056700  1
