# generated using pymatgen
data_HfTi3Ni8
_symmetry_space_group_name_H-M   'P 1'
_cell_length_a   3.87544608
_cell_length_b   6.05524397
_cell_length_c   7.23784208
_cell_angle_alpha   90.00000000
_cell_angle_beta   90.00000000
_cell_angle_gamma   90.00000000
_symmetry_Int_Tables_number   1
_chemical_formula_structural   HfTi3Ni8
_chemical_formula_sum   'Hf1 Ti3 Ni8'
_cell_volume   169.84878639
_cell_formula_units_Z   1
loop_
 _symmetry_equiv_pos_site_id
 _symmetry_equiv_pos_as_xyz
  1  'x, y, z'
loop_
 _atom_site_type_symbol
 _atom_site_label
 _atom_site_symmetry_multiplicity
 _atom_site_fract_x
 _atom_site_fract_y
 _atom_site_fract_z
 _atom_site_occupancy
  Ti  Ti0  1  0.74999998  0.96867600  0.18028100  1
  Hf  Hf1  1  0.24999999  0.03132400  0.81971899  1
  Ti  Ti2  1  0.74999998  0.46867600  0.31971900  1
  Ti  Ti3  1  0.24999999  0.53132400  0.68028099  1
  Ni  Ni4  1  0.24999999  0.26747200  0.12333700  1
  Ni  Ni5  1  0.74999998  0.73252800  0.87666299  1
  Ni  Ni6  1  0.24999999  0.76747200  0.37666300  1
  Ni  Ni7  1  0.74999998  0.23252800  0.62333699  1
  Ni  Ni8  1  0.24999999  0.66359300  0.06243800  1
  Ni  Ni9  1  0.74999998  0.33640700  0.93756199  1
  Ni  Ni10  1  0.24999999  0.16359300  0.43756199  1
  Ni  Ni11  1  0.74999998  0.83640700  0.56243799  1
