# generated using pymatgen
data_Li3MnO5
_symmetry_space_group_name_H-M   'P 1'
_cell_length_a   5.59326410
_cell_length_b   5.59543133
_cell_length_c   7.37805843
_cell_angle_alpha   71.54890442
_cell_angle_beta   71.65473175
_cell_angle_gamma   70.86345673
_symmetry_Int_Tables_number   1
_chemical_formula_structural   Li3MnO5
_chemical_formula_sum   'Li6 Mn2 O10'
_cell_volume   201.11809261
_cell_formula_units_Z   2
loop_
 _symmetry_equiv_pos_site_id
 _symmetry_equiv_pos_as_xyz
  1  'x, y, z'
loop_
 _atom_site_type_symbol
 _atom_site_label
 _atom_site_symmetry_multiplicity
 _atom_site_fract_x
 _atom_site_fract_y
 _atom_site_fract_z
 _atom_site_occupancy
  Li  Li0  1  0.67847998  0.70086601  0.84101397  1
  Li  Li1  1  0.32809199  0.34281201  0.67235399  1
  Li  Li2  1  0.64656799  0.64969001  0.32084596  1
  Li  Li3  1  0.31957299  0.33028701  0.16882498  1
  Li  Li4  1  0.99946900  0.00173000  0.49561396  1
  Li  Li5  1  0.03031798  0.98370702  0.00027299  1
  O  O6  1  0.02290098  0.64668701  0.66978000  1
  Mn  Mn7  1  0.36747498  0.95406502  0.33427497  1
  O  O8  1  0.22987300  0.22927800  0.96524800  1
  O  O9  1  0.76948298  0.76863001  0.03586195  1
  Mn  Mn10  1  0.42764499  0.43128501  0.37304998  1
  O  O11  1  0.32158198  0.68737801  0.99153699  1
  O  O12  1  0.63843300  0.03359900  0.67189098  1
  O  O13  1  0.94452899  0.37211201  0.33505095  1
  O  O14  1  0.57149899  0.57473201  0.63278797  1
  O  O15  1  0.89384898  0.89016502  0.29923395  1
  O  O16  1  0.10358100  0.10287600  0.69901000  1
  O  O17  1  0.70664799  0.30010101  0.99335198  1
