# generated using pymatgen
data_Li5Te2O
_symmetry_space_group_name_H-M   'P 1'
_cell_length_a   4.27610826
_cell_length_b   4.27610826
_cell_length_c   10.79187775
_cell_angle_alpha   78.57313538
_cell_angle_beta   78.57313538
_cell_angle_gamma   59.99999237
_symmetry_Int_Tables_number   1
_chemical_formula_structural   Li5Te2O
_chemical_formula_sum   'Li5 Te2 O1'
_cell_volume   166.36145287
_cell_formula_units_Z   1
loop_
 _symmetry_equiv_pos_site_id
 _symmetry_equiv_pos_as_xyz
  1  'x, y, z'
loop_
 _atom_site_type_symbol
 _atom_site_label
 _atom_site_symmetry_multiplicity
 _atom_site_fract_x
 _atom_site_fract_y
 _atom_site_fract_z
 _atom_site_occupancy
  Li  Li0  1  0.50000000  0.50000002  0.50000001  1
  Li  Li1  1  0.91721700  0.91721704  0.24834900  1
  Li  Li2  1  0.69187700  0.69187703  0.92436903  1
  Li  Li3  1  0.08278300  0.08278300  0.75165103  1
  Li  Li4  1  0.30812300  0.30812301  0.07563100  1
  Te  Te5  1  0.77555400  0.77555404  0.67333802  1
  O  O6  1  0.22444600  0.22444601  0.32666201  1
  Te  Te7  1  0.00000000  0.00000000  0.00000000  1
