# generated using pymatgen
data_Nd2Hf2Ni15
_symmetry_space_group_name_H-M   'P 1'
_cell_length_a   6.55423832
_cell_length_b   6.55423832
_cell_length_c   6.55423784
_cell_angle_alpha   83.31954193
_cell_angle_beta   83.31954193
_cell_angle_gamma   83.31953430
_symmetry_Int_Tables_number   1
_chemical_formula_structural   Nd2Hf2Ni15
_chemical_formula_sum   'Nd2 Hf2 Ni15'
_cell_volume   276.23463764
_cell_formula_units_Z   1
loop_
 _symmetry_equiv_pos_site_id
 _symmetry_equiv_pos_as_xyz
  1  'x, y, z'
loop_
 _atom_site_type_symbol
 _atom_site_label
 _atom_site_symmetry_multiplicity
 _atom_site_fract_x
 _atom_site_fract_y
 _atom_site_fract_z
 _atom_site_occupancy
  Nd  Nd0  1  0.34699499  0.34699500  0.34699503  1
  Nd  Nd1  1  0.65300498  0.65300500  0.65300505  1
  Hf  Hf2  1  0.00000000  0.00000000  0.49999999  1
  Hf  Hf3  1  -0.00000002  0.50000000  0.00000003  1
  Ni  Ni4  1  0.50000000  0.00000000  0.00000003  1
  Ni  Ni5  1  0.09993700  0.09993700  0.09993701  1
  Ni  Ni6  1  0.90006297  0.90006300  0.90006307  1
  Ni  Ni7  1  0.68814399  0.31185600  0.00000005  1
  Ni  Ni8  1  0.31185600  0.00000000  0.68814400  1
  Ni  Ni9  1  -0.00000002  0.68814400  0.31185603  1
  Ni  Ni10  1  0.68814397  1.00000001  0.31185608  1
  Ni  Ni11  1  -0.00000001  0.31185600  0.68814400  1
  Ni  Ni12  1  0.31185598  0.68814400  0.00000005  1
  Ni  Ni13  1  0.16438498  0.65234500  0.65234503  1
  Ni  Ni14  1  0.65234498  0.65234500  0.16438507  1
  Ni  Ni15  1  0.65234500  0.16438500  0.65234503  1
  Ni  Ni16  1  0.83561499  0.34765500  0.34765505  1
  Ni  Ni17  1  0.34765499  0.34765500  0.83561502  1
  Ni  Ni18  1  0.34765497  0.83561500  0.34765506  1
