# generated using pymatgen
data_Ca4NiAsO12
_symmetry_space_group_name_H-M   'P 1'
_cell_length_a   3.78554702
_cell_length_b   5.35035610
_cell_length_c   10.31448364
_cell_angle_alpha   89.99657440
_cell_angle_beta   90.00002289
_cell_angle_gamma   89.99997711
_symmetry_Int_Tables_number   1
_chemical_formula_structural   Ca4NiAsO12
_chemical_formula_sum   'Ca4 Ni1 As1 O12'
_cell_volume   208.90980493
_cell_formula_units_Z   1
loop_
 _symmetry_equiv_pos_site_id
 _symmetry_equiv_pos_as_xyz
  1  'x, y, z'
loop_
 _atom_site_type_symbol
 _atom_site_label
 _atom_site_symmetry_multiplicity
 _atom_site_fract_x
 _atom_site_fract_y
 _atom_site_fract_z
 _atom_site_occupancy
  Ca  Ca0  1  0.49999901  0.19546200  0.12949999  1
  Ca  Ca1  1  0.49999906  0.80459998  0.87057200  1
  Ca  Ca2  1  0.49999905  0.69534799  0.37040498  1
  Ca  Ca3  1  0.49999902  0.30458699  0.62951400  1
  Ni  Ni4  1  0.00000102  0.22852700  0.37413201  1
  As  As5  1  0.99999805  0.77149099  0.62586798  1
  O  O6  1  1.00000001  0.27137399  0.87408300  1
  O  O7  1  1.00000005  0.72860599  0.12590296  1
  O  O8  1  0.99999903  0.49997299  0.50001898  1
  O  O9  1  0.00000001  0.08002900  0.71183902  1
  O  O10  1  1.00000004  0.58003199  0.78818799  1
  O  O11  1  0.00000003  0.41995099  0.21186200  1
  O  O12  1  0.50000002  0.29020899  0.89910501  1
  O  O13  1  0.50000005  0.70963699  0.10086597  1
  O  O14  1  0.99999906  0.91995198  0.28818896  1
  O  O15  1  0.50000001  0.20981800  0.39914500  1
  O  O16  1  0.99999900  0.00008900  0.00001298  1
  O  O17  1  0.49999906  0.79031398  0.60079699  1
