# generated using pymatgen
data_SrCa3AsP
_symmetry_space_group_name_H-M   'P 1'
_cell_length_a   4.21611786
_cell_length_b   4.21611786
_cell_length_c   12.16475773
_cell_angle_alpha   90.00000000
_cell_angle_beta   90.00000000
_cell_angle_gamma   120.00000000
_symmetry_Int_Tables_number   1
_chemical_formula_structural   SrCa3AsP
_chemical_formula_sum   'Sr1 Ca3 As1 P1'
_cell_volume   187.26627909
_cell_formula_units_Z   1
loop_
 _symmetry_equiv_pos_site_id
 _symmetry_equiv_pos_as_xyz
  1  'x, y, z'
loop_
 _atom_site_type_symbol
 _atom_site_label
 _atom_site_symmetry_multiplicity
 _atom_site_fract_x
 _atom_site_fract_y
 _atom_site_fract_z
 _atom_site_occupancy
  Ca  Ca0  1  0.00000000  0.00000000  0.82950302  1
  Sr  Sr1  1  0.00000000  0.00000000  0.17049700  1
  Ca  Ca2  1  0.66666668  0.33333332  0.99332702  1
  Ca  Ca3  1  0.33333332  0.66666664  0.00667300  1
  As  As4  1  0.66666668  0.33333332  0.35067501  1
  P  P5  1  0.33333332  0.66666664  0.64932501  1
