# generated using pymatgen
data_Li3V(FeO5)2
_symmetry_space_group_name_H-M   'P 1'
_cell_length_a   3.88330388
_cell_length_b   5.34135675
_cell_length_c   9.79763031
_cell_angle_alpha   90.00000000
_cell_angle_beta   90.00000000
_cell_angle_gamma   111.31609344
_symmetry_Int_Tables_number   1
_chemical_formula_structural   Li3V(FeO5)2
_chemical_formula_sum   'Li3 V1 Fe2 O10'
_cell_volume   189.32084633
_cell_formula_units_Z   1
loop_
 _symmetry_equiv_pos_site_id
 _symmetry_equiv_pos_as_xyz
  1  'x, y, z'
loop_
 _atom_site_type_symbol
 _atom_site_label
 _atom_site_symmetry_multiplicity
 _atom_site_fract_x
 _atom_site_fract_y
 _atom_site_fract_z
 _atom_site_occupancy
  Li  Li0  1  0.36897904  0.73795799  0.93035497  1
  Li  Li1  1  0.36897904  0.73795799  0.56964498  1
  V  V2  1  0.63102103  0.26204200  0.43035499  1
  Li  Li3  1  0.63102103  0.26204200  0.06964500  1
  Fe  Fe4  1  0.30751303  0.61502599  0.24999999  1
  Fe  Fe5  1  0.69248703  0.38497400  0.74999998  1
  O  O6  1  0.44100204  0.88200399  0.38542899  1
  O  O7  1  0.44100204  0.88200399  0.11457100  1
  O  O8  1  0.22301502  0.44603000  0.74999998  1
  O  O9  1  0.18131202  0.36262400  0.39787599  1
  O  O10  1  0.18131202  0.36262400  0.10212400  1
  O  O11  1  0.81868805  0.63737599  0.89787597  1
  O  O12  1  0.81868805  0.63737599  0.60212398  1
  O  O13  1  0.77698504  0.55396999  0.24999999  1
  O  O14  1  0.55899802  0.11799600  0.88542897  1
  O  O15  1  0.55899802  0.11799600  0.61457098  1
