# generated using pymatgen
data_Fe4BC3
_symmetry_space_group_name_H-M   'P 1'
_cell_length_a   3.02678704
_cell_length_b   4.32040882
_cell_length_c   5.71109009
_cell_angle_alpha   90.00000000
_cell_angle_beta   90.00000000
_cell_angle_gamma   90.00000000
_symmetry_Int_Tables_number   1
_chemical_formula_structural   Fe4BC3
_chemical_formula_sum   'Fe4 B1 C3'
_cell_volume   74.68368201
_cell_formula_units_Z   1
loop_
 _symmetry_equiv_pos_site_id
 _symmetry_equiv_pos_as_xyz
  1  'x, y, z'
loop_
 _atom_site_type_symbol
 _atom_site_label
 _atom_site_symmetry_multiplicity
 _atom_site_fract_x
 _atom_site_fract_y
 _atom_site_fract_z
 _atom_site_occupancy
  Fe  Fe0  1  0.00000000  0.13164301  0.68357899  1
  Fe  Fe1  1  -0.00000000  0.86835704  0.18357900  1
  Fe  Fe2  1  0.49999999  0.36655902  0.32250900  1
  Fe  Fe3  1  0.49999999  0.63344103  0.82250899  1
  B  B4  1  0.00000000  0.66019103  0.53043199  1
  C  C5  1  0.00000000  0.33980901  0.03043200  1
  C  C6  1  0.49999999  0.87656104  0.46347999  1
  C  C7  1  0.49999999  0.12343901  0.96347999  1
