# generated using pymatgen
data_Ba7NiTeO11
_symmetry_space_group_name_H-M   'P 1'
_cell_length_a   8.56121540
_cell_length_b   8.56121540
_cell_length_c   8.56121540
_cell_angle_alpha   109.47122192
_cell_angle_beta   109.47122192
_cell_angle_gamma   109.47122192
_symmetry_Int_Tables_number   1
_chemical_formula_structural   Ba7NiTeO11
_chemical_formula_sum   'Ba7 Ni1 Te1 O11'
_cell_volume   483.04140702
_cell_formula_units_Z   1
loop_
 _symmetry_equiv_pos_site_id
 _symmetry_equiv_pos_as_xyz
  1  'x, y, z'
loop_
 _atom_site_type_symbol
 _atom_site_label
 _atom_site_symmetry_multiplicity
 _atom_site_fract_x
 _atom_site_fract_y
 _atom_site_fract_z
 _atom_site_occupancy
  Ba  Ba0  1  0.60176007  1.00000004  1.00000007  1
  Ba  Ba1  1  1.00000004  0.50000002  0.10176005  1
  Ba  Ba2  1  0.50000004  0.60176002  0.50000004  1
  Ba  Ba3  1  0.10176000  0.00000000  0.00000000  1
  Ba  Ba4  1  0.89824006  0.89824003  0.39824007  1
  Ba  Ba5  1  1.00000004  0.50000002  0.60176005  1
  Ba  Ba6  1  0.39824003  0.39824001  0.89824003  1
  Ni  Ni7  1  0.50000001  0.10176000  0.50000002  1
  O  O8  1  0.75000005  0.69574603  0.94574605  1
  Te  Te9  1  0.25000005  0.80425403  0.55425405  1
  O  O10  1  0.80425401  0.05425400  0.75000002  1
  O  O11  1  0.55425402  0.30425401  0.25000003  1
  O  O12  1  0.69574603  0.44574602  0.25000004  1
  O  O13  1  0.94574602  0.19574601  0.75000003  1
  O  O14  1  0.05425402  0.25000001  0.30425401  1
  O  O15  1  0.25000006  0.94574603  0.69574606  1
  O  O16  1  0.44574605  0.75000003  0.19574605  1
  O  O17  1  0.75000004  0.55425402  0.80425405  1
  O  O18  1  0.30425405  0.75000003  0.05425405  1
  O  O19  1  0.19574602  0.25000001  0.44574602  1
