# generated using pymatgen
data_NaLiCu4
_symmetry_space_group_name_H-M   'P 1'
_cell_length_a   3.98131609
_cell_length_b   5.41524696
_cell_length_c   5.61193895
_cell_angle_alpha   90.00000000
_cell_angle_beta   90.00000000
_cell_angle_gamma   111.56782532
_symmetry_Int_Tables_number   1
_chemical_formula_structural   NaLiCu4
_chemical_formula_sum   'Na1 Li1 Cu4'
_cell_volume   112.52082376
_cell_formula_units_Z   1
loop_
 _symmetry_equiv_pos_site_id
 _symmetry_equiv_pos_as_xyz
  1  'x, y, z'
loop_
 _atom_site_type_symbol
 _atom_site_label
 _atom_site_symmetry_multiplicity
 _atom_site_fract_x
 _atom_site_fract_y
 _atom_site_fract_z
 _atom_site_occupancy
  Li  Li0  1  0.30545294  0.61090601  0.25000000  1
  Na  Na1  1  0.69454695  0.38909400  0.75000001  1
  Cu  Cu2  1  0.00000000  0.00000000  0.50000000  1
  Cu  Cu3  1  0.00000000  0.00000000  0.00000000  1
  Cu  Cu4  1  0.60212697  0.20425400  0.25000000  1
  Cu  Cu5  1  0.39787292  0.79574601  0.75000001  1
