# generated using pymatgen
data_Li2CaCu
_symmetry_space_group_name_H-M   'P 1'
_cell_length_a   3.51272607
_cell_length_b   3.51272607
_cell_length_c   8.58160686
_cell_angle_alpha   90.00000000
_cell_angle_beta   90.00000000
_cell_angle_gamma   120.00000000
_symmetry_Int_Tables_number   1
_chemical_formula_structural   Li2CaCu
_chemical_formula_sum   'Li2 Ca1 Cu1'
_cell_volume   91.70390176
_cell_formula_units_Z   1
loop_
 _symmetry_equiv_pos_site_id
 _symmetry_equiv_pos_as_xyz
  1  'x, y, z'
loop_
 _atom_site_type_symbol
 _atom_site_label
 _atom_site_symmetry_multiplicity
 _atom_site_fract_x
 _atom_site_fract_y
 _atom_site_fract_z
 _atom_site_occupancy
  Li  Li0  1  0.33333333  0.66666666  0.50000001  1
  Ca  Ca1  1  0.33333333  0.66666666  -0.00000000  1
  Li  Li2  1  0.00000000  0.00000000  0.30401400  1
  Cu  Cu3  1  0.00000000  0.00000000  0.69598601  1
