# generated using pymatgen
data_Hf2ZrTa2TiNi2
_symmetry_space_group_name_H-M   'P 1'
_cell_length_a   5.26428699
_cell_length_b   5.26428699
_cell_length_c   5.26428699
_cell_angle_alpha   90.00000000
_cell_angle_beta   90.00000000
_cell_angle_gamma   90.00000000
_symmetry_Int_Tables_number   1
_chemical_formula_structural   Hf2ZrTa2TiNi2
_chemical_formula_sum   'Hf2 Zr1 Ta2 Ti1 Ni2'
_cell_volume   145.88769867
_cell_formula_units_Z   1
loop_
 _symmetry_equiv_pos_site_id
 _symmetry_equiv_pos_as_xyz
  1  'x, y, z'
loop_
 _atom_site_type_symbol
 _atom_site_label
 _atom_site_symmetry_multiplicity
 _atom_site_fract_x
 _atom_site_fract_y
 _atom_site_fract_z
 _atom_site_occupancy
  Ta  Ta0  1  0.00000000  0.50000000  0.75029300  1
  Ta  Ta1  1  0.50000000  0.24970700  0.00000000  1
  Hf  Hf2  1  0.75029300  0.00000000  0.50000000  1
  Ti  Ti3  1  0.00000000  0.50000000  0.24970700  1
  Hf  Hf4  1  0.50000000  0.75029300  -0.00000000  1
  Zr  Zr5  1  0.24970700  0.00000000  0.50000000  1
  Ni  Ni6  1  0.50000000  0.50000000  0.50000000  1
  Ni  Ni7  1  0.00000000  0.00000000  0.00000000  1
