# generated using pymatgen
data_Ca3NdP5
_symmetry_space_group_name_H-M   'P 1'
_cell_length_a   4.23335218
_cell_length_b   5.53504467
_cell_length_c   8.33133411
_cell_angle_alpha   98.13983917
_cell_angle_beta   90.00000000
_cell_angle_gamma   112.48326111
_symmetry_Int_Tables_number   1
_chemical_formula_structural   Ca3NdP5
_chemical_formula_sum   'Ca3 Nd1 P5'
_cell_volume   178.24944493
_cell_formula_units_Z   1
loop_
 _symmetry_equiv_pos_site_id
 _symmetry_equiv_pos_as_xyz
  1  'x, y, z'
loop_
 _atom_site_type_symbol
 _atom_site_label
 _atom_site_symmetry_multiplicity
 _atom_site_fract_x
 _atom_site_fract_y
 _atom_site_fract_z
 _atom_site_occupancy
  Nd  Nd0  1  0.62392896  0.24785800  0.37958901  1
  Ca  Ca1  1  0.00000000  0.00000000  0.00000000  1
  Ca  Ca2  1  0.37607095  0.75214199  0.62041103  1
  Ca  Ca3  1  0.67851595  0.35703199  0.78601503  1
  P  P4  1  0.32148396  0.64296799  0.21398501  1
  P  P5  1  0.26044596  0.52089199  0.91465803  1
  P  P6  1  0.91475092  0.82950199  0.36077502  1
  P  P7  1  0.08524899  0.17049800  0.63922502  1
  P  P8  1  0.73955395  0.47910799  0.08534201  1
