# generated using pymatgen
data_Tl6Sn2S7
_symmetry_space_group_name_H-M   'P 1'
_cell_length_a   5.26267385
_cell_length_b   5.26267385
_cell_length_c   19.33609390
_cell_angle_alpha   97.82131958
_cell_angle_beta   97.82131958
_cell_angle_gamma   90.00000000
_symmetry_Int_Tables_number   1
_chemical_formula_structural   Tl6Sn2S7
_chemical_formula_sum   'Tl6 Sn2 S7'
_cell_volume   525.51639827
_cell_formula_units_Z   1
loop_
 _symmetry_equiv_pos_site_id
 _symmetry_equiv_pos_as_xyz
  1  'x, y, z'
loop_
 _atom_site_type_symbol
 _atom_site_label
 _atom_site_symmetry_multiplicity
 _atom_site_fract_x
 _atom_site_fract_y
 _atom_site_fract_z
 _atom_site_occupancy
  Tl  Tl0  1  0.50000001  0.00000000  0.00000000  1
  Tl  Tl1  1  0.00000000  0.50000001  0.00000000  1
  Tl  Tl2  1  0.91493303  0.91493303  0.82986596  1
  Tl  Tl3  1  0.08506700  0.08506700  0.17013399  1
  Sn  Sn4  1  0.25000001  0.75000002  0.49999998  1
  Sn  Sn5  1  0.75000002  0.25000001  0.49999998  1
  Tl  Tl6  1  0.65931602  0.65931602  0.31863199  1
  Tl  Tl7  1  0.34068401  0.34068401  0.68136797  1
  S  S8  1  0.56707802  0.56707802  0.13415599  1
  S  S9  1  0.43292201  0.43292201  0.86584396  1
  S  S10  1  0.81985202  0.81985202  0.63970397  1
  S  S11  1  0.18014801  0.18014801  0.36029598  1
  S  S12  1  0.72855002  0.72855002  0.45709998  1
  S  S13  1  0.27145001  0.27145001  0.54289997  1
  S  S14  1  0.00000000  0.00000000  0.00000000  1
