# generated using pymatgen
data_Na4ZrTi2NiTeO9
_symmetry_space_group_name_H-M   'P 1'
_cell_length_a   3.53431201
_cell_length_b   9.82796574
_cell_length_c   10.78059959
_cell_angle_alpha   72.34667206
_cell_angle_beta   80.56549835
_cell_angle_gamma   79.64137268
_symmetry_Int_Tables_number   1
_chemical_formula_structural   Na4ZrTi2NiTeO9
_chemical_formula_sum   'Na4 Zr1 Ti2 Ni1 Te1 O9'
_cell_volume   348.61697971
_cell_formula_units_Z   1
loop_
 _symmetry_equiv_pos_site_id
 _symmetry_equiv_pos_as_xyz
  1  'x, y, z'
loop_
 _atom_site_type_symbol
 _atom_site_label
 _atom_site_symmetry_multiplicity
 _atom_site_fract_x
 _atom_site_fract_y
 _atom_site_fract_z
 _atom_site_occupancy
  Na  Na0  1  0.74068206  0.34245099  0.17618500  1
  Na  Na1  1  0.25931811  0.65754898  0.82381501  1
  Na  Na2  1  0.50000000  0.00000000  -0.00000000  1
  Na  Na3  1  0.50000009  0.49999998  0.50000000  1
  Ti  Ti4  1  0.83492716  0.94177697  0.38836901  1
  Ti  Ti5  1  0.16507301  0.05822300  0.61163100  1
  Ni  Ni6  1  0.01709113  0.73877197  0.22704601  1
  Zr  Zr7  1  0.98290904  0.26122799  0.77295400  1
  O  O8  1  0.92451917  0.99972597  0.15123601  1
  Te  Te9  1  0.07548100  0.00027400  0.84876400  1
  O  O10  1  0.59258313  0.73574297  0.07909101  1
  O  O11  1  0.40741704  0.26425699  0.92090900  1
  O  O12  1  0.42471713  0.75931397  0.39125101  1
  O  O13  1  0.57528304  0.24068599  0.60874900  1
  O  O14  1  0.25617202  0.10501700  0.38263900  1
  O  O15  1  0.74382815  0.89498297  0.61736101  1
  O  O16  1  0.07999908  0.49242398  0.34757801  1
  O  O17  1  0.92000109  0.50757598  0.65242200  1
