# generated using pymatgen
data_PrAl5
_symmetry_space_group_name_H-M   'P 1'
_cell_length_a   5.34457588
_cell_length_b   5.34457588
_cell_length_c   5.34457588
_cell_angle_alpha   60.00000000
_cell_angle_beta   60.00000000
_cell_angle_gamma   60.00000000
_symmetry_Int_Tables_number   1
_chemical_formula_structural   PrAl5
_chemical_formula_sum   'Pr1 Al5'
_cell_volume   107.95052152
_cell_formula_units_Z   1
loop_
 _symmetry_equiv_pos_site_id
 _symmetry_equiv_pos_as_xyz
  1  'x, y, z'
loop_
 _atom_site_type_symbol
 _atom_site_label
 _atom_site_symmetry_multiplicity
 _atom_site_fract_x
 _atom_site_fract_y
 _atom_site_fract_z
 _atom_site_occupancy
  Pr  Pr0  1  0.25000001  0.25000001  0.25000001  1
  Al  Al1  1  0.50000002  0.50000002  0.50000002  1
  Al  Al2  1  0.87500004  0.37500002  0.87500004  1
  Al  Al3  1  0.87500004  0.87500004  0.87500004  1
  Al  Al4  1  0.37500002  0.87500004  0.87500004  1
  Al  Al5  1  0.87500004  0.87500004  0.37500002  1
