# generated using pymatgen
data_K5Li7
_symmetry_space_group_name_H-M   'P 1'
_cell_length_a   4.59625578
_cell_length_b   4.59625626
_cell_length_c   16.51576042
_cell_angle_alpha   90.00000000
_cell_angle_beta   90.00000000
_cell_angle_gamma   120.00000000
_symmetry_Int_Tables_number   1
_chemical_formula_structural   K5Li7
_chemical_formula_sum   'K5 Li7'
_cell_volume   302.16045724
_cell_formula_units_Z   1
loop_
 _symmetry_equiv_pos_site_id
 _symmetry_equiv_pos_as_xyz
  1  'x, y, z'
loop_
 _atom_site_type_symbol
 _atom_site_label
 _atom_site_symmetry_multiplicity
 _atom_site_fract_x
 _atom_site_fract_y
 _atom_site_fract_z
 _atom_site_occupancy
  Li  Li0  1  0.00000000  0.00000000  0.25000001  1
  K  K1  1  0.00000000  0.00000000  0.75000003  1
  K  K2  1  0.00000000  0.00000000  0.50000002  1
  K  K3  1  0.00000000  0.00000000  0.00000000  1
  Li  Li4  1  0.33333339  0.66666672  0.15538301  1
  Li  Li5  1  0.33333339  0.66666672  0.34461701  1
  Li  Li6  1  0.66666672  0.33333336  0.84461703  1
  Li  Li7  1  0.66666672  0.33333336  0.65538302  1
  K  K8  1  0.33333339  0.66666672  0.88346303  1
  K  K9  1  0.33333339  0.66666672  0.61653702  1
  Li  Li10  1  0.66666672  0.33333336  0.11653700  1
  Li  Li11  1  0.66666672  0.33333336  0.38346301  1
