# generated using pymatgen
data_Nd4ZrGe3
_symmetry_space_group_name_H-M   'P 1'
_cell_length_a   7.65758610
_cell_length_b   8.63194752
_cell_length_c   7.65758610
_cell_angle_alpha   116.33129120
_cell_angle_beta   90.00000000
_cell_angle_gamma   116.33129120
_symmetry_Int_Tables_number   1
_chemical_formula_structural   Nd4ZrGe3
_chemical_formula_sum   'Nd8 Zr2 Ge6'
_cell_volume   394.19467217
_cell_formula_units_Z   2
loop_
 _symmetry_equiv_pos_site_id
 _symmetry_equiv_pos_as_xyz
  1  'x, y, z'
loop_
 _atom_site_type_symbol
 _atom_site_label
 _atom_site_symmetry_multiplicity
 _atom_site_fract_x
 _atom_site_fract_y
 _atom_site_fract_z
 _atom_site_occupancy
  Nd  Nd0  1  0.00000000  0.00000000  0.00000000  1
  Nd  Nd1  1  0.49999999  0.00000000  0.49999999  1
  Nd  Nd2  1  0.21366496  0.74309893  0.02943396  1
  Nd  Nd3  1  0.78633498  0.25690198  0.97056697  1
  Nd  Nd4  1  0.52943295  0.74309793  0.71366495  1
  Nd  Nd5  1  0.71366495  0.74309793  0.21366496  1
  Nd  Nd6  1  0.97056697  0.25690198  0.47056698  1
  Nd  Nd7  1  0.47056698  0.25690198  0.28633498  1
  Zr  Zr8  1  0.28633498  0.25690198  0.78633498  1
  Zr  Zr9  1  0.02943296  0.74309793  0.52943295  1
  Ge  Ge10  1  0.86509993  0.99999991  0.63489994  1
  Ge  Ge11  1  0.13490000  0.00000000  0.36510000  1
  Ge  Ge12  1  0.36510000  0.00000000  0.86509999  1
  Ge  Ge13  1  0.63489999  0.00000000  0.13490000  1
  Ge  Ge14  1  0.74999996  0.49999996  0.74999996  1
  Ge  Ge15  1  0.24999997  0.49999996  0.24999997  1
