# generated using pymatgen
data_Nd5Ni4
_symmetry_space_group_name_H-M   'P 1'
_cell_length_a   5.81355810
_cell_length_b   8.48803234
_cell_length_c   8.48803139
_cell_angle_alpha   120.00000000
_cell_angle_beta   90.00000000
_cell_angle_gamma   90.00000000
_symmetry_Int_Tables_number   1
_chemical_formula_structural   Nd5Ni4
_chemical_formula_sum   'Nd10 Ni8'
_cell_volume   362.73265226
_cell_formula_units_Z   2
loop_
 _symmetry_equiv_pos_site_id
 _symmetry_equiv_pos_as_xyz
  1  'x, y, z'
loop_
 _atom_site_type_symbol
 _atom_site_label
 _atom_site_symmetry_multiplicity
 _atom_site_fract_x
 _atom_site_fract_y
 _atom_site_fract_z
 _atom_site_occupancy
  Nd  Nd0  1  -0.00000000  0.33333332  0.66666668  1
  Nd  Nd1  1  0.99999998  0.66666663  0.33333333  1
  Nd  Nd2  1  0.49999999  0.66666663  0.33333333  1
  Nd  Nd3  1  0.49999999  0.33333332  0.66666668  1
  Nd  Nd4  1  0.25000000  0.22029599  1.00000003  1
  Nd  Nd5  1  0.25000000  0.77970396  0.77970401  1
  Nd  Nd6  1  0.25000000  0.99999995  0.22029599  1
  Nd  Nd7  1  0.74999999  0.77970396  1.00000002  1
  Nd  Nd8  1  0.74999999  0.22029599  0.22029600  1
  Nd  Nd9  1  0.74999999  0.99999995  0.77970401  1
  Ni  Ni10  1  0.25000000  0.59480697  1.00000002  1
  Ni  Ni11  1  0.25000000  0.40519298  0.40519301  1
  Ni  Ni12  1  0.25000000  0.99999995  0.59480700  1
  Ni  Ni13  1  0.74999999  0.40519298  1.00000003  1
  Ni  Ni14  1  0.74999999  0.59480697  0.59480701  1
  Ni  Ni15  1  0.74999999  0.99999995  0.40519299  1
  Ni  Ni16  1  0.00000000  0.00000000  0.00000000  1
  Ni  Ni17  1  0.49999999  0.00000000  -0.00000000  1
