# generated using pymatgen
data_SrCa(AsO4)2
_symmetry_space_group_name_H-M   'P 1'
_cell_length_a   6.22087049
_cell_length_b   6.22087049
_cell_length_c   6.22087049
_cell_angle_alpha   106.03427887
_cell_angle_beta   106.03427887
_cell_angle_gamma   116.58821869
_symmetry_Int_Tables_number   1
_chemical_formula_structural   SrCa(AsO4)2
_chemical_formula_sum   'Sr1 Ca1 As2 O8'
_cell_volume   183.15390705
_cell_formula_units_Z   1
loop_
 _symmetry_equiv_pos_site_id
 _symmetry_equiv_pos_as_xyz
  1  'x, y, z'
loop_
 _atom_site_type_symbol
 _atom_site_label
 _atom_site_symmetry_multiplicity
 _atom_site_fract_x
 _atom_site_fract_y
 _atom_site_fract_z
 _atom_site_occupancy
  Ca  Ca0  1  0.74999999  0.24999999  0.50000004  1
  Sr  Sr1  1  0.00000000  0.00000000  0.00000000  1
  As  As2  1  0.49999998  0.49999999  0.00000005  1
  As  As3  1  0.24999998  0.74999998  0.50000003  1
  O  O4  1  0.67022298  0.49090199  0.82067803  1
  O  O5  1  0.67022298  0.84954398  0.17932106  1
  O  O6  1  0.15045499  0.32977599  0.82067800  1
  O  O7  1  0.07977699  0.40045599  0.32067901  1
  O  O8  1  0.07977698  0.75909798  0.67932202  1
  O  O9  1  0.50909799  0.32977699  0.17932103  1
  O  O10  1  0.24090198  0.92022298  0.32067904  1
  O  O11  1  0.59954497  0.92022398  0.67932205  1
