# generated using pymatgen
data_YTlGe3S8
_symmetry_space_group_name_H-M   'P 1'
_cell_length_a   3.41378999
_cell_length_b   5.94334984
_cell_length_c   11.88936710
_cell_angle_alpha   98.47251892
_cell_angle_beta   90.00000000
_cell_angle_gamma   90.00000000
_symmetry_Int_Tables_number   1
_chemical_formula_structural   YTlGe3S8
_chemical_formula_sum   'Y1 Tl1 Ge3 S8'
_cell_volume   238.59490706
_cell_formula_units_Z   1
loop_
 _symmetry_equiv_pos_site_id
 _symmetry_equiv_pos_as_xyz
  1  'x, y, z'
loop_
 _atom_site_type_symbol
 _atom_site_label
 _atom_site_symmetry_multiplicity
 _atom_site_fract_x
 _atom_site_fract_y
 _atom_site_fract_z
 _atom_site_occupancy
  Tl  Tl0  1  -0.00000000  0.98751203  0.99921899  1
  Y  Y1  1  0.50000000  0.50717402  0.99924898  1
  Ge  Ge2  1  -0.00000000  0.50329601  0.49589199  1
  Ge  Ge3  1  0.50000000  0.00790800  0.50298899  1
  Ge  Ge4  1  0.50000000  0.58539102  0.26453300  1
  S  S5  1  0.50000000  0.70051302  0.61574199  1
  S  S6  1  -0.00000000  0.20539001  0.62126599  1
  S  S7  1  0.50000000  0.28522701  0.37331899  1
  S  S8  1  -0.00000000  0.80617002  0.37186600  1
  S  S9  1  1.00000000  0.37184001  0.13041300  1
  S  S10  1  0.50000000  0.86752503  0.12698500  1
  S  S11  1  1.00000000  0.62919002  0.87783699  1
  S  S12  1  0.50000000  0.13144400  0.88642998  1
