# generated using pymatgen
data_NaCu
_symmetry_space_group_name_H-M   'P 1'
_cell_length_a   4.28666449
_cell_length_b   4.28666449
_cell_length_c   5.87659454
_cell_angle_alpha   68.60943604
_cell_angle_beta   68.60943604
_cell_angle_gamma   59.99999619
_symmetry_Int_Tables_number   1
_chemical_formula_structural   NaCu
_chemical_formula_sum   'Na2 Cu2'
_cell_volume   84.82016612
_cell_formula_units_Z   2
loop_
 _symmetry_equiv_pos_site_id
 _symmetry_equiv_pos_as_xyz
  1  'x, y, z'
loop_
 _atom_site_type_symbol
 _atom_site_label
 _atom_site_symmetry_multiplicity
 _atom_site_fract_x
 _atom_site_fract_y
 _atom_site_fract_z
 _atom_site_occupancy
  Na  Na0  1  0.00000000  0.00000000  0.00000000  1
  Na  Na1  1  0.50000001  0.49999998  0.50000001  1
  Cu  Cu2  1  0.18949100  0.18949099  0.43152701  1
  Cu  Cu3  1  0.81050901  0.81050896  0.56847301  1
