# generated using pymatgen
data_Li2NiO3
_symmetry_space_group_name_H-M   'P 1'
_cell_length_a   5.23082876
_cell_length_b   5.23082876
_cell_length_c   5.23143482
_cell_angle_alpha   99.96922302
_cell_angle_beta   99.96922302
_cell_angle_gamma   119.76367188
_symmetry_Int_Tables_number   1
_chemical_formula_structural   Li2NiO3
_chemical_formula_sum   'Li4 Ni2 O6'
_cell_volume   116.62789285
_cell_formula_units_Z   2
loop_
 _symmetry_equiv_pos_site_id
 _symmetry_equiv_pos_as_xyz
  1  'x, y, z'
loop_
 _atom_site_type_symbol
 _atom_site_label
 _atom_site_symmetry_multiplicity
 _atom_site_fract_x
 _atom_site_fract_y
 _atom_site_fract_z
 _atom_site_occupancy
  Li  Li0  1  0.82865595  0.17134398  0.49999997  1
  Li  Li1  1  0.17134390  0.82865592  0.49999995  1
  Li  Li2  1  0.49999993  0.49999995  0.49999996  1
  Li  Li3  1  0.66657194  0.33342797  -0.00000006  1
  Ni  Ni4  1  0.33342791  0.66657194  -0.00000007  1
  Ni  Ni5  1  0.00000000  0.00000000  0.00000000  1
  O  O6  1  0.75903589  0.75903593  0.22900992  1
  O  O7  1  0.24096396  0.24096398  0.77099000  1
  O  O8  1  0.07896795  0.39869596  0.23278698  1
  O  O9  1  0.39869598  0.07896799  0.23278698  1
  O  O10  1  0.92103190  0.60130394  0.76721294  1
  O  O11  1  0.60130388  0.92103191  0.76721293  1
