# generated using pymatgen
data_Nd3HfNi5
_symmetry_space_group_name_H-M   'P 1'
_cell_length_a   7.24506617
_cell_length_b   7.24506569
_cell_length_c   7.47163677
_cell_angle_alpha   90.00000000
_cell_angle_beta   90.00000000
_cell_angle_gamma   120.00000000
_symmetry_Int_Tables_number   1
_chemical_formula_structural   Nd3HfNi5
_chemical_formula_sum   'Nd6 Hf2 Ni10'
_cell_volume   339.64956760
_cell_formula_units_Z   2
loop_
 _symmetry_equiv_pos_site_id
 _symmetry_equiv_pos_as_xyz
  1  'x, y, z'
loop_
 _atom_site_type_symbol
 _atom_site_label
 _atom_site_symmetry_multiplicity
 _atom_site_fract_x
 _atom_site_fract_y
 _atom_site_fract_z
 _atom_site_occupancy
  Nd  Nd0  1  0.41000898  0.39583700  0.25000001  1
  Nd  Nd1  1  0.98582797  0.58999101  0.25000001  1
  Nd  Nd2  1  0.60416299  0.01417200  0.25000001  1
  Nd  Nd3  1  0.01417199  0.60416301  0.75000002  1
  Nd  Nd4  1  0.39583698  0.41000900  0.75000002  1
  Nd  Nd5  1  0.58999097  0.98582801  0.75000002  1
  Hf  Hf6  1  0.26003099  0.00000000  -0.00000000  1
  Ni  Ni7  1  0.73996897  0.73996901  1.00000003  1
  Hf  Hf8  1  -0.00000000  0.26003100  -0.00000000  1
  Ni  Ni9  1  0.26003099  0.00000000  0.50000002  1
  Ni  Ni10  1  0.73996897  0.73996901  0.50000002  1
  Ni  Ni11  1  -0.00000000  0.26003100  0.50000002  1
  Ni  Ni12  1  0.00000000  0.00000000  0.25000001  1
  Ni  Ni13  1  0.00000000  0.00000000  0.75000002  1
  Ni  Ni14  1  0.33333331  0.66666667  0.01949300  1
  Ni  Ni15  1  0.33333331  0.66666667  0.48050701  1
  Ni  Ni16  1  0.66666665  0.33333334  0.51949302  1
  Ni  Ni17  1  0.66666665  0.33333334  0.98050703  1
