# generated using pymatgen
data_CeSi3Ge
_symmetry_space_group_name_H-M   'P 1'
_cell_length_a   4.11498213
_cell_length_b   4.11498213
_cell_length_c   5.84076548
_cell_angle_alpha   110.62584686
_cell_angle_beta   110.62584686
_cell_angle_gamma   90.00000000
_symmetry_Int_Tables_number   1
_chemical_formula_structural   CeSi3Ge
_chemical_formula_sum   'Ce1 Si3 Ge1'
_cell_volume   85.75564224
_cell_formula_units_Z   1
loop_
 _symmetry_equiv_pos_site_id
 _symmetry_equiv_pos_as_xyz
  1  'x, y, z'
loop_
 _atom_site_type_symbol
 _atom_site_label
 _atom_site_symmetry_multiplicity
 _atom_site_fract_x
 _atom_site_fract_y
 _atom_site_fract_z
 _atom_site_occupancy
  Ce  Ce0  1  0.00000000  0.00000000  0.00000000  1
  Si  Si1  1  0.24999996  0.74999996  0.49999998  1
  Ge  Ge2  1  0.63468895  0.63468897  0.26937797  1
  Si  Si3  1  0.36531097  0.36531098  0.73062200  1
  Si  Si4  1  0.74999996  0.24999999  0.49999999  1
