# generated using pymatgen
data_Sr2CaAsO8
_symmetry_space_group_name_H-M   'P 1'
_cell_length_a   5.70338202
_cell_length_b   5.70338202
_cell_length_c   7.68269300
_cell_angle_alpha   111.78864288
_cell_angle_beta   111.78864288
_cell_angle_gamma   90.00000000
_symmetry_Int_Tables_number   1
_chemical_formula_structural   Sr2CaAsO8
_chemical_formula_sum   'Sr2 Ca1 As1 O8'
_cell_volume   212.70670078
_cell_formula_units_Z   1
loop_
 _symmetry_equiv_pos_site_id
 _symmetry_equiv_pos_as_xyz
  1  'x, y, z'
loop_
 _atom_site_type_symbol
 _atom_site_label
 _atom_site_symmetry_multiplicity
 _atom_site_fract_x
 _atom_site_fract_y
 _atom_site_fract_z
 _atom_site_occupancy
  Sr  Sr0  1  0.75000000  0.25000000  0.50000001  1
  Sr  Sr1  1  0.00000000  0.00000000  0.00000000  1
  Ca  Ca2  1  0.25000001  0.75000000  0.50000001  1
  As  As3  1  0.50000001  0.50000000  0.00000001  1
  O  O4  1  0.29364700  0.43918200  0.34683001  1
  O  O5  1  0.05318301  0.90764800  0.34683001  1
  O  O6  1  0.18918200  0.30318300  0.84683001  1
  O  O7  1  0.65764801  0.54364700  0.84683001  1
  O  O8  1  0.45635301  0.81081800  0.15317001  1
  O  O9  1  0.69681700  0.34235200  0.15317001  1
  O  O10  1  0.56081801  0.94681700  0.65317001  1
  O  O11  1  0.09235201  0.70635300  0.65317001  1
