# generated using pymatgen
data_Sr4La3EuO12
_symmetry_space_group_name_H-M   'P 1'
_cell_length_a   6.02723694
_cell_length_b   6.20551062
_cell_length_c   8.57717323
_cell_angle_alpha   89.46776581
_cell_angle_beta   89.85294342
_cell_angle_gamma   89.91702271
_symmetry_Int_Tables_number   1
_chemical_formula_structural   Sr4La3EuO12
_chemical_formula_sum   'Sr4 La3 Eu1 O12'
_cell_volume   320.78892048
_cell_formula_units_Z   1
loop_
 _symmetry_equiv_pos_site_id
 _symmetry_equiv_pos_as_xyz
  1  'x, y, z'
loop_
 _atom_site_type_symbol
 _atom_site_label
 _atom_site_symmetry_multiplicity
 _atom_site_fract_x
 _atom_site_fract_y
 _atom_site_fract_z
 _atom_site_occupancy
  Sr  Sr0  1  0.00000000  0.00000000  0.00000000  1
  Sr  Sr1  1  0.98127501  0.44852699  0.24221099  1
  Sr  Sr2  1  0.51215801  0.95226998  0.24576302  1
  Sr  Sr3  1  0.48784201  0.04773000  0.75423697  1
  La  La4  1  0.01872500  0.55147299  0.75778901  1
  Eu  Eu5  1  0.50000001  0.49999999  0.50000000  1
  La  La6  1  0.50000001  0.49999999  0.00000001  1
  La  La7  1  0.00000000  0.00000000  0.49999999  1
  O  O8  1  0.88984501  0.95136598  0.72849100  1
  O  O9  1  0.79042401  0.71879199  0.43194000  1
  O  O10  1  0.78454301  0.68112499  0.04832901  1
  O  O11  1  0.71295101  0.21069000  0.44075998  1
  O  O12  1  0.67703901  0.21751800  0.05748899  1
  O  O13  1  0.61106401  0.45259799  0.74949199  1
  O  O14  1  0.38893601  0.54740199  0.25050801  1
  O  O15  1  0.32296101  0.78248199  0.94251100  1
  O  O16  1  0.28704901  0.78930999  0.55924001  1
  O  O17  1  0.21545700  0.31887499  0.95167098  1
  O  O18  1  0.20957600  0.28120800  0.56805999  1
  O  O19  1  0.11015500  0.04863400  0.27150899  1
