# generated using pymatgen
data_Nd4Zr2BRu12Pt
_symmetry_space_group_name_H-M   'P 1'
_cell_length_a   5.55144405
_cell_length_b   7.92304325
_cell_length_c   7.92304325
_cell_angle_alpha   74.55220795
_cell_angle_beta   69.49217224
_cell_angle_gamma   69.49217224
_symmetry_Int_Tables_number   1
_chemical_formula_structural   Nd4Zr2BRu12Pt
_chemical_formula_sum   'Nd4 Zr2 B1 Ru12 Pt1'
_cell_volume   301.59285015
_cell_formula_units_Z   1
loop_
 _symmetry_equiv_pos_site_id
 _symmetry_equiv_pos_as_xyz
  1  'x, y, z'
loop_
 _atom_site_type_symbol
 _atom_site_label
 _atom_site_symmetry_multiplicity
 _atom_site_fract_x
 _atom_site_fract_y
 _atom_site_fract_z
 _atom_site_occupancy
  Nd  Nd0  1  0.13395298  0.59969198  0.13240204  1
  Nd  Nd1  1  0.86604698  0.40030799  0.86759800  1
  Nd  Nd2  1  0.63395199  0.13240200  0.59969299  1
  Nd  Nd3  1  0.36604797  0.86759797  0.40030705  1
  Zr  Zr4  1  0.74999996  0.99999996  0.00000006  1
  Zr  Zr5  1  0.24999997  0.99999996  0.00000006  1
  Ru  Ru6  1  0.36171398  0.53040998  0.74616201  1
  Ru  Ru7  1  0.63828598  0.46958998  0.25383802  1
  Ru  Ru8  1  0.86171397  0.74616197  0.53041003  1
  B  B9  1  0.13828599  0.25383799  0.46959000  1
  Ru  Ru10  1  0.74999998  0.49999998  0.50000002  1
  Ru  Ru11  1  0.24999998  0.49999998  0.50000002  1
  Ru  Ru12  1  0.97701397  0.77298597  0.77298603  1
  Ru  Ru13  1  0.52298599  0.22701399  0.22701401  1
  Ru  Ru14  1  0.02298599  0.22701399  0.22701401  1
  Ru  Ru15  1  0.47701397  0.77298597  0.77298603  1
  Ru  Ru16  1  0.39928199  0.25824899  0.94318699  1
  Ru  Ru17  1  0.60071797  0.74175097  0.05681305  1
  Ru  Ru18  1  0.89928096  0.94318697  0.25825005  1
  Pt  Pt19  1  0.10071900  0.05681300  0.74174998  1
