# generated using pymatgen
data_TlS
_symmetry_space_group_name_H-M   'P 1'
_cell_length_a   8.54806042
_cell_length_b   9.76328945
_cell_length_c   8.54806042
_cell_angle_alpha   64.03861237
_cell_angle_beta   90.00000000
_cell_angle_gamma   115.96138763
_symmetry_Int_Tables_number   1
_chemical_formula_structural   TlS
_chemical_formula_sum   'Tl8 S8'
_cell_volume   560.24296240
_cell_formula_units_Z   8
loop_
 _symmetry_equiv_pos_site_id
 _symmetry_equiv_pos_as_xyz
  1  'x, y, z'
loop_
 _atom_site_type_symbol
 _atom_site_label
 _atom_site_symmetry_multiplicity
 _atom_site_fract_x
 _atom_site_fract_y
 _atom_site_fract_z
 _atom_site_occupancy
  Tl  Tl0  1  0.49999998  0.00000000  0.49999998  1
  Tl  Tl1  1  0.00000000  0.00000000  0.00000000  1
  Tl  Tl2  1  0.74999993  0.49999996  0.25000002  1
  Tl  Tl3  1  0.24999995  0.49999996  0.75000000  1
  Tl  Tl4  1  0.24999995  0.49999996  0.25000002  1
  Tl  Tl5  1  0.74999993  0.49999996  0.75000000  1
  Tl  Tl6  1  0.49999998  0.00000000  0.00000000  1
  Tl  Tl7  1  -0.00000007  0.99999992  0.50000005  1
  S  S8  1  0.31870096  0.26997998  0.54872099  1
  S  S9  1  0.81870094  0.26997998  0.68129899  1
  S  S10  1  0.45127896  0.26997998  0.04872102  1
  S  S11  1  0.18129894  0.73001994  0.31870104  1
  S  S12  1  0.54872092  0.73001994  0.95127901  1
  S  S13  1  0.04872094  0.73001994  0.81870101  1
  S  S14  1  0.68129891  0.73001994  0.45127903  1
  S  S15  1  0.95127893  0.26997998  0.18129901  1
