# generated using pymatgen
data_Ba3Sr3P5C
_symmetry_space_group_name_H-M   'P 1'
_cell_length_a   4.20593596
_cell_length_b   8.13900852
_cell_length_c   11.13107491
_cell_angle_alpha   90.00000000
_cell_angle_beta   90.00000000
_cell_angle_gamma   104.97403717
_symmetry_Int_Tables_number   1
_chemical_formula_structural   Ba3Sr3P5C
_chemical_formula_sum   'Ba3 Sr3 P5 C1'
_cell_volume   368.10161692
_cell_formula_units_Z   1
loop_
 _symmetry_equiv_pos_site_id
 _symmetry_equiv_pos_as_xyz
  1  'x, y, z'
loop_
 _atom_site_type_symbol
 _atom_site_label
 _atom_site_symmetry_multiplicity
 _atom_site_fract_x
 _atom_site_fract_y
 _atom_site_fract_z
 _atom_site_occupancy
  Ba  Ba0  1  0.75338997  0.50677898  0.25021600  1
  Ba  Ba1  1  0.24660997  0.49322098  0.75021601  1
  Ba  Ba2  1  0.00340400  0.00680800  0.47249100  1
  Sr  Sr3  1  0.99659594  0.99319197  0.97249101  1
  Sr  Sr4  1  0.46820294  0.93640697  0.25994100  1
  Sr  Sr5  1  0.53179700  0.06359300  0.75994101  1
  P  P6  1  0.37310095  0.74620197  0.44983800  1
  P  P7  1  0.62166299  0.24332499  0.55528400  1
  P  P8  1  0.37833695  0.75667497  0.05528400  1
  P  P9  1  0.62689899  0.25379799  0.94983801  1
  C  C10  1  0.06824299  0.13648600  0.23614100  1
  P  P11  1  0.93175695  0.86351397  0.73614101  1
