# generated using pymatgen
data_BaSr2LaNiO7
_symmetry_space_group_name_H-M   'P 1'
_cell_length_a   3.99005604
_cell_length_b   3.99005604
_cell_length_c   11.01877594
_cell_angle_alpha   100.43134308
_cell_angle_beta   100.43134308
_cell_angle_gamma   90.00000000
_symmetry_Int_Tables_number   1
_chemical_formula_structural   BaSr2LaNiO7
_chemical_formula_sum   'Ba1 Sr2 La1 Ni1 O7'
_cell_volume   169.57673257
_cell_formula_units_Z   1
loop_
 _symmetry_equiv_pos_site_id
 _symmetry_equiv_pos_as_xyz
  1  'x, y, z'
loop_
 _atom_site_type_symbol
 _atom_site_label
 _atom_site_symmetry_multiplicity
 _atom_site_fract_x
 _atom_site_fract_y
 _atom_site_fract_z
 _atom_site_occupancy
  Sr  Sr0  1  0.48173901  0.48173900  0.96347803  1
  Ba  Ba1  1  0.69137901  0.69137900  0.38275803  1
  Sr  Sr2  1  0.31837700  0.31837700  0.63675402  1
  La  La3  1  0.09723300  0.09723300  0.19446601  1
  Ni  Ni4  1  0.89516001  0.89516000  0.79032004  1
  O  O5  1  0.90458100  0.40458100  0.80916203  1
  O  O6  1  0.40458101  0.90458100  0.80916203  1
  O  O7  1  0.10159801  0.60159800  0.20319601  1
  O  O8  1  0.60159800  0.10159800  0.20319601  1
  O  O9  1  0.80191101  0.80191100  0.60382203  1
  O  O10  1  0.19428100  0.19428100  0.38856201  1
  O  O11  1  0.00756200  0.00756200  0.01512400  1
