# generated using pymatgen
data_Sr(CaSi3)2
_symmetry_space_group_name_H-M   'P 1'
_cell_length_a   5.38261414
_cell_length_b   5.39176989
_cell_length_c   13.37416553
_cell_angle_alpha   89.58298492
_cell_angle_beta   89.16770172
_cell_angle_gamma   60.92703629
_symmetry_Int_Tables_number   1
_chemical_formula_structural   Sr(CaSi3)2
_chemical_formula_sum   'Sr2 Ca4 Si12'
_cell_volume   339.20144103
_cell_formula_units_Z   2
loop_
 _symmetry_equiv_pos_site_id
 _symmetry_equiv_pos_as_xyz
  1  'x, y, z'
loop_
 _atom_site_type_symbol
 _atom_site_label
 _atom_site_symmetry_multiplicity
 _atom_site_fract_x
 _atom_site_fract_y
 _atom_site_fract_z
 _atom_site_occupancy
  Ca  Ca0  1  0.66112201  0.66931198  0.08098501  1
  Sr  Sr1  1  0.99073801  0.00052500  0.75387303  1
  Sr  Sr2  1  0.33176701  0.33059799  0.41692801  1
  Ca  Ca3  1  0.66823301  0.66940198  0.33307201  1
  Ca  Ca4  1  0.00926201  0.99947497  0.99612702  1
  Ca  Ca5  1  0.33887801  0.33068799  0.66901502  1
  Si  Si6  1  0.83192701  0.33497799  0.54306202  1
  Si  Si7  1  0.16807301  0.66502198  0.20693800  1
  Si  Si8  1  0.65828001  0.67861998  0.71333402  1
  Si  Si9  1  0.00000000  0.00000000  0.37500001  1
  Si  Si10  1  0.34172001  0.32137999  0.03666600  1
  Si  Si11  1  0.00000000  0.49999999  0.87500002  1
  Si  Si12  1  0.33371901  0.83243798  0.54253701  1
  Si  Si13  1  0.66628101  0.16756200  0.20746301  1
  Si  Si14  1  0.50000001  0.49999999  0.87500003  1
  Si  Si15  1  0.83420601  0.83296498  0.54167602  1
  Si  Si16  1  0.16579400  0.16703500  0.20832401  1
  Si  Si17  1  0.50000000  0.00000000  0.87500003  1
