# generated using pymatgen
data_LiVO3
_symmetry_space_group_name_H-M   'P 1'
_cell_length_a   5.10068274
_cell_length_b   5.10063219
_cell_length_c   5.46602917
_cell_angle_alpha   89.99858093
_cell_angle_beta   117.81223297
_cell_angle_gamma   120.00119019
_symmetry_Int_Tables_number   1
_chemical_formula_structural   LiVO3
_chemical_formula_sum   'Li2 V2 O6'
_cell_volume   103.75352329
_cell_formula_units_Z   2
loop_
 _symmetry_equiv_pos_site_id
 _symmetry_equiv_pos_as_xyz
  1  'x, y, z'
loop_
 _atom_site_type_symbol
 _atom_site_label
 _atom_site_symmetry_multiplicity
 _atom_site_fract_x
 _atom_site_fract_y
 _atom_site_fract_z
 _atom_site_occupancy
  Li  Li0  1  0.69333704  0.34667100  0.04000503  1
  Li  Li1  1  0.30666207  0.65332601  0.95999501  1
  V  V2  1  0.28636802  0.14317600  0.42956400  1
  V  V3  1  0.71363209  0.85682201  0.57043604  1
  O  O4  1  0.20050909  0.94572101  0.75361704  1
  O  O5  1  0.80790104  0.25477600  0.75360999  1
  O  O6  1  0.49877806  0.55308901  0.75359201  1
  O  O7  1  0.79949202  0.05429000  0.24638400  1
  O  O8  1  0.19210007  0.74522201  0.24639004  1
  O  O9  1  0.50122005  0.44690500  0.24640702  1
