# generated using pymatgen
data_Li2MnO3
_symmetry_space_group_name_H-M   'P 1'
_cell_length_a   3.78824997
_cell_length_b   3.78824997
_cell_length_c   5.82358599
_cell_angle_alpha   108.98075867
_cell_angle_beta   108.98075867
_cell_angle_gamma   90.00000000
_symmetry_Int_Tables_number   1
_chemical_formula_structural   Li2MnO3
_chemical_formula_sum   'Li2 Mn1 O3'
_cell_volume   74.20748114
_cell_formula_units_Z   1
loop_
 _symmetry_equiv_pos_site_id
 _symmetry_equiv_pos_as_xyz
  1  'x, y, z'
loop_
 _atom_site_type_symbol
 _atom_site_label
 _atom_site_symmetry_multiplicity
 _atom_site_fract_x
 _atom_site_fract_y
 _atom_site_fract_z
 _atom_site_occupancy
  Li  Li0  1  0.00000000  0.00000000  0.00000000  1
  Li  Li1  1  0.35562199  0.35562200  0.71124398  1
  O  O2  1  0.64437799  0.64437800  0.28875597  1
  Mn  Mn3  1  0.24999999  0.75000000  0.49999998  1
  O  O4  1  0.75000000  0.25000000  0.49999998  1
  O  O5  1  0.49999999  0.50000000  0.99999997  1
