# generated using pymatgen
data_Ca3PuSiP
_symmetry_space_group_name_H-M   'P 1'
_cell_length_a   5.24309778
_cell_length_b   5.24309778
_cell_length_c   7.61730480
_cell_angle_alpha   110.13034821
_cell_angle_beta   110.13034821
_cell_angle_gamma   90.00000000
_symmetry_Int_Tables_number   1
_chemical_formula_structural   Ca3PuSiP
_chemical_formula_sum   'Ca3 Pu1 Si1 P1'
_cell_volume   182.92427501
_cell_formula_units_Z   1
loop_
 _symmetry_equiv_pos_site_id
 _symmetry_equiv_pos_as_xyz
  1  'x, y, z'
loop_
 _atom_site_type_symbol
 _atom_site_label
 _atom_site_symmetry_multiplicity
 _atom_site_fract_x
 _atom_site_fract_y
 _atom_site_fract_z
 _atom_site_occupancy
  Pu  Pu0  1  0.29989603  0.29989602  0.59979204  1
  Ca  Ca1  1  0.70010407  0.70010404  0.40020807  1
  Ca  Ca2  1  0.45010406  0.95010406  0.90020808  1
  Ca  Ca3  1  0.04989602  0.54989603  0.09979203  1
  P  P4  1  0.25000004  0.75000005  0.50000006  1
  Si  Si5  1  0.50000005  0.50000003  0.00000004  1
