# generated using pymatgen
data_LiCa5EuNi4
_symmetry_space_group_name_H-M   'P 1'
_cell_length_a   4.20980406
_cell_length_b   7.01254988
_cell_length_c   7.98703051
_cell_angle_alpha   107.97079468
_cell_angle_beta   105.28022003
_cell_angle_gamma   90.00000000
_symmetry_Int_Tables_number   1
_chemical_formula_structural   LiCa5EuNi4
_chemical_formula_sum   'Li1 Ca5 Eu1 Ni4'
_cell_volume   215.50562399
_cell_formula_units_Z   1
loop_
 _symmetry_equiv_pos_site_id
 _symmetry_equiv_pos_as_xyz
  1  'x, y, z'
loop_
 _atom_site_type_symbol
 _atom_site_label
 _atom_site_symmetry_multiplicity
 _atom_site_fract_x
 _atom_site_fract_y
 _atom_site_fract_z
 _atom_site_occupancy
  Li  Li0  1  0.65588601  0.93753599  0.31177200  1
  Ca  Ca1  1  0.34411400  0.06246400  0.68822803  1
  Ca  Ca2  1  0.59151901  0.39114900  0.18303801  1
  Ca  Ca3  1  0.40848101  0.60885099  0.81696202  1
  Ca  Ca4  1  0.00000000  0.00000000  0.00000000  1
  Ca  Ca5  1  0.78250101  0.35929900  0.56500203  1
  Eu  Eu6  1  0.21749901  0.64070099  0.43499800  1
  Ni  Ni7  1  0.93417901  0.33733600  0.86835804  1
  Ni  Ni8  1  0.06582101  0.66266399  0.13164198  1
  Ni  Ni9  1  0.79748401  0.73218899  0.59496802  1
  Ni  Ni10  1  0.20251600  0.26781100  0.40503201  1
