# generated using pymatgen
data_DyLu(InCu)3
_symmetry_space_group_name_H-M   'P 1'
_cell_length_a   4.63107300
_cell_length_b   6.44612789
_cell_length_c   6.44612741
_cell_angle_alpha   120.00000000
_cell_angle_beta   90.00000000
_cell_angle_gamma   90.00000000
_symmetry_Int_Tables_number   1
_chemical_formula_structural   DyLu(InCu)3
_chemical_formula_sum   'Dy1 Lu1 In3 Cu3'
_cell_volume   166.65182027
_cell_formula_units_Z   1
loop_
 _symmetry_equiv_pos_site_id
 _symmetry_equiv_pos_as_xyz
  1  'x, y, z'
loop_
 _atom_site_type_symbol
 _atom_site_label
 _atom_site_symmetry_multiplicity
 _atom_site_fract_x
 _atom_site_fract_y
 _atom_site_fract_z
 _atom_site_occupancy
  Dy  Dy0  1  0.25000000  0.66666666  0.33333330  1
  Lu  Lu1  1  0.75000000  0.33333333  0.66666666  1
  In  In2  1  0.75000000  0.85723199  0.14276696  1
  In  In3  1  0.75000000  0.28553500  0.14276699  1
  In  In4  1  0.75000000  0.85723199  0.71446396  1
  Cu  Cu5  1  0.25000000  0.14276800  0.85723300  1
  Cu  Cu6  1  0.25000000  0.71446499  0.85723297  1
  Cu  Cu7  1  0.25000000  0.14276800  0.28553600  1
