# generated using pymatgen
data_Li5MgPHO8
_symmetry_space_group_name_H-M   'P 1'
_cell_length_a   4.81881285
_cell_length_b   5.11862707
_cell_length_c   6.19700003
_cell_angle_alpha   90.00000000
_cell_angle_beta   89.75616455
_cell_angle_gamma   90.00000000
_symmetry_Int_Tables_number   1
_chemical_formula_structural   Li5MgPHO8
_chemical_formula_sum   'Li5 Mg1 P1 H1 O8'
_cell_volume   152.85199589
_cell_formula_units_Z   1
loop_
 _symmetry_equiv_pos_site_id
 _symmetry_equiv_pos_as_xyz
  1  'x, y, z'
loop_
 _atom_site_type_symbol
 _atom_site_label
 _atom_site_symmetry_multiplicity
 _atom_site_fract_x
 _atom_site_fract_y
 _atom_site_fract_z
 _atom_site_occupancy
  Li  Li0  1  0.50582602  0.34749500  0.75147003  1
  Li  Li1  1  0.00260800  0.18640500  0.50427201  1
  Li  Li2  1  0.00582600  0.65250499  0.25147000  1
  Li  Li3  1  0.50260802  0.81359499  0.00427202  1
  Li  Li4  1  0.00047900  0.17755500  0.99827301  1
  Mg  Mg5  1  0.50047902  0.82244499  0.49827303  1
  H  H6  1  0.99539603  0.67928399  0.75170405  1
  P  P7  1  0.49539602  0.32071600  0.25170402  1
  O  O8  1  0.09493500  0.81963499  0.95098702  1
  O  O9  1  0.08811200  0.39953099  0.75983001  1
  O  O10  1  0.68594902  0.69344899  0.74477304  1
  O  O11  1  0.10822000  0.80707799  0.55040201  1
  O  O12  1  0.59493502  0.18036500  0.45098703  1
  O  O13  1  0.58811202  0.60046899  0.25983003  1
  O  O14  1  0.18594901  0.30655100  0.24477301  1
  O  O15  1  0.60822002  0.19292200  0.05040202  1
