# generated using pymatgen
data_Fe4SiP3
_symmetry_space_group_name_H-M   'P 1'
_cell_length_a   3.45428610
_cell_length_b   5.38382530
_cell_length_c   6.03762627
_cell_angle_alpha   90.07575989
_cell_angle_beta   90.00000000
_cell_angle_gamma   90.00000000
_symmetry_Int_Tables_number   1
_chemical_formula_structural   Fe4SiP3
_chemical_formula_sum   'Fe4 Si1 P3'
_cell_volume   112.28328518
_cell_formula_units_Z   1
loop_
 _symmetry_equiv_pos_site_id
 _symmetry_equiv_pos_as_xyz
  1  'x, y, z'
loop_
 _atom_site_type_symbol
 _atom_site_label
 _atom_site_symmetry_multiplicity
 _atom_site_fract_x
 _atom_site_fract_y
 _atom_site_fract_z
 _atom_site_occupancy
  Fe  Fe0  1  0.74999998  0.49705098  0.70212004  1
  Fe  Fe1  1  0.74999998  0.00351100  0.79252702  1
  Fe  Fe2  1  0.24999999  0.50265198  0.30619503  1
  Fe  Fe3  1  0.24999999  0.00343900  0.20228201  1
  Si  Si4  1  0.74999998  0.29206599  0.08709301  1
  P  P5  1  0.74999998  0.80611397  0.41109904  1
  P  P6  1  0.24999999  0.70743797  0.92349305  1
  P  P7  1  0.24999999  0.18772799  0.57519002  1
