# generated using pymatgen
data_Hf4TiNi11
_symmetry_space_group_name_H-M   'P 1'
_cell_length_a   4.98262978
_cell_length_b   7.13358021
_cell_length_c   7.13357973
_cell_angle_alpha   120.00000000
_cell_angle_beta   90.00000000
_cell_angle_gamma   90.00000000
_symmetry_Int_Tables_number   1
_chemical_formula_structural   Hf4TiNi11
_chemical_formula_sum   'Hf4 Ti1 Ni11'
_cell_volume   219.58583386
_cell_formula_units_Z   1
loop_
 _symmetry_equiv_pos_site_id
 _symmetry_equiv_pos_as_xyz
  1  'x, y, z'
loop_
 _atom_site_type_symbol
 _atom_site_label
 _atom_site_symmetry_multiplicity
 _atom_site_fract_x
 _atom_site_fract_y
 _atom_site_fract_z
 _atom_site_occupancy
  Ti  Ti0  1  0.25000001  0.75764496  -0.00000003  1
  Hf  Hf1  1  0.25000001  0.00000000  0.75764498  1
  Hf  Hf2  1  0.25000001  0.24235499  0.24235498  1
  Hf  Hf3  1  0.75000003  0.75764496  0.75764495  1
  Hf  Hf4  1  1.00000004  0.66666663  0.33333330  1
  Ni  Ni5  1  0.75000003  0.24235499  -0.00000001  1
  Ni  Ni6  1  1.00000004  0.33333332  0.66666664  1
  Ni  Ni7  1  0.75000003  0.00000000  0.24235499  1
  Ni  Ni8  1  0.50000002  0.66666663  0.33333330  1
  Ni  Ni9  1  0.50000002  0.33333332  0.66666664  1
  Ni  Ni10  1  0.75000003  0.39517498  0.39517498  1
  Ni  Ni11  1  0.25000001  0.39517498  0.99999996  1
  Ni  Ni12  1  0.75000003  0.00000000  0.60482499  1
  Ni  Ni13  1  0.25000001  0.00000000  0.39517499  1
  Ni  Ni14  1  0.75000003  0.60482497  -0.00000002  1
  Ni  Ni15  1  0.25000001  0.60482497  0.60482496  1
