# generated using pymatgen
data_DyAlGe2
_symmetry_space_group_name_H-M   'P 1'
_cell_length_a   5.61930799
_cell_length_b   7.18459606
_cell_length_c   7.40791702
_cell_angle_alpha   90.00000000
_cell_angle_beta   90.00000000
_cell_angle_gamma   90.00000000
_symmetry_Int_Tables_number   1
_chemical_formula_structural   DyAlGe2
_chemical_formula_sum   'Dy4 Al4 Ge8'
_cell_volume   299.07581953
_cell_formula_units_Z   4
loop_
 _symmetry_equiv_pos_site_id
 _symmetry_equiv_pos_as_xyz
  1  'x, y, z'
loop_
 _atom_site_type_symbol
 _atom_site_label
 _atom_site_symmetry_multiplicity
 _atom_site_fract_x
 _atom_site_fract_y
 _atom_site_fract_z
 _atom_site_occupancy
  Dy  Dy0  1  0.35550700  0.74999999  0.03186000  1
  Dy  Dy1  1  0.14449300  0.74999999  0.53186000  1
  Dy  Dy2  1  0.64449300  0.25000000  0.96814000  1
  Dy  Dy3  1  0.85550700  0.25000000  0.46814000  1
  Al  Al4  1  0.64370600  0.74999999  0.38566100  1
  Al  Al5  1  0.85629400  0.74999999  0.88566100  1
  Al  Al6  1  0.35629400  0.25000000  0.61433900  1
  Al  Al7  1  0.14370600  0.25000000  0.11433900  1
  Ge  Ge8  1  0.91027100  0.55129500  0.18288800  1
  Ge  Ge9  1  0.58972900  0.94870499  0.68288800  1
  Ge  Ge10  1  0.08972900  0.05129500  0.81711200  1
  Ge  Ge11  1  0.41027100  0.44870500  0.31711200  1
  Ge  Ge12  1  0.08972900  0.44870500  0.81711200  1
  Ge  Ge13  1  0.41027100  0.05129500  0.31711200  1
  Ge  Ge14  1  0.91027100  0.94870499  0.18288800  1
  Ge  Ge15  1  0.58972900  0.55129500  0.68288800  1
