# generated using pymatgen
data_SrCa3CuO6
_symmetry_space_group_name_H-M   'P 1'
_cell_length_a   4.06559420
_cell_length_b   4.06559420
_cell_length_c   10.43380356
_cell_angle_alpha   101.23467255
_cell_angle_beta   101.23467255
_cell_angle_gamma   90.00000000
_symmetry_Int_Tables_number   1
_chemical_formula_structural   SrCa3CuO6
_chemical_formula_sum   'Sr1 Ca3 Cu1 O6'
_cell_volume   165.78547244
_cell_formula_units_Z   1
loop_
 _symmetry_equiv_pos_site_id
 _symmetry_equiv_pos_as_xyz
  1  'x, y, z'
loop_
 _atom_site_type_symbol
 _atom_site_label
 _atom_site_symmetry_multiplicity
 _atom_site_fract_x
 _atom_site_fract_y
 _atom_site_fract_z
 _atom_site_occupancy
  Ca  Ca0  1  0.18051699  0.18051699  0.36103400  1
  Ca  Ca1  1  0.81948294  0.81948295  0.63896599  1
  Sr  Sr2  1  0.00000000  0.00000000  0.00000000  1
  Ca  Ca3  1  0.39958897  0.39958898  0.79917801  1
  Cu  Cu4  1  0.60041095  0.60041097  0.20082198  1
  O  O5  1  0.58474296  0.08474300  0.16948599  1
  O  O6  1  0.41525696  0.91525695  0.83051400  1
  O  O7  1  0.08474298  0.58474297  0.16948599  1
  O  O8  1  0.91525694  0.41525698  0.83051400  1
  O  O9  1  0.30190398  0.30190398  0.60380801  1
  O  O10  1  0.69809595  0.69809596  0.39619199  1
