# generated using pymatgen
data_CeP4
_symmetry_space_group_name_H-M   'P 1'
_cell_length_a   3.89669800
_cell_length_b   3.89669752
_cell_length_c   6.52718115
_cell_angle_alpha   90.00000000
_cell_angle_beta   90.00000000
_cell_angle_gamma   120.00000000
_symmetry_Int_Tables_number   1
_chemical_formula_structural   CeP4
_chemical_formula_sum   'Ce1 P4'
_cell_volume   85.83210057
_cell_formula_units_Z   1
loop_
 _symmetry_equiv_pos_site_id
 _symmetry_equiv_pos_as_xyz
  1  'x, y, z'
loop_
 _atom_site_type_symbol
 _atom_site_label
 _atom_site_symmetry_multiplicity
 _atom_site_fract_x
 _atom_site_fract_y
 _atom_site_fract_z
 _atom_site_occupancy
  Ce  Ce0  1  0.66666664  0.33333333  0.01003700  1
  P  P1  1  0.00000000  0.00000000  0.62226699  1
  P  P2  1  0.33333329  0.66666666  0.36657899  1
  P  P3  1  0.33333329  0.66666666  0.72547198  1
  P  P4  1  0.00000000  0.00000000  0.27564599  1
