# generated using pymatgen
data_AlNi2
_symmetry_space_group_name_H-M   'P 1'
_cell_length_a   3.11880398
_cell_length_b   5.40381384
_cell_length_c   5.40381479
_cell_angle_alpha   119.99999237
_cell_angle_beta   90.00000000
_cell_angle_gamma   90.00000000
_symmetry_Int_Tables_number   1
_chemical_formula_structural   AlNi2
_chemical_formula_sum   'Al2 Ni4'
_cell_volume   78.87140541
_cell_formula_units_Z   2
loop_
 _symmetry_equiv_pos_site_id
 _symmetry_equiv_pos_as_xyz
  1  'x, y, z'
loop_
 _atom_site_type_symbol
 _atom_site_label
 _atom_site_symmetry_multiplicity
 _atom_site_fract_x
 _atom_site_fract_y
 _atom_site_fract_z
 _atom_site_occupancy
  Ni  Ni0  1  0.50000000  0.00000000  -0.00000000  1
  Al  Al1  1  0.50000000  0.33333333  0.66666663  1
  Al  Al2  1  0.50000000  0.66666666  0.33333328  1
  Ni  Ni3  1  0.00000000  0.00000000  0.49999999  1
  Ni  Ni4  1  1.00000001  0.50000000  -0.00000003  1
  Ni  Ni5  1  1.00000001  0.50000000  0.49999996  1
