# generated using pymatgen
data_AgSe
_symmetry_space_group_name_H-M   'P 1'
_cell_length_a   6.13820410
_cell_length_b   6.13820410
_cell_length_c   7.49788666
_cell_angle_alpha   114.16268921
_cell_angle_beta   114.16268921
_cell_angle_gamma   90.00000000
_symmetry_Int_Tables_number   1
_chemical_formula_structural   AgSe
_chemical_formula_sum   'Ag4 Se4'
_cell_volume   230.35601060
_cell_formula_units_Z   4
loop_
 _symmetry_equiv_pos_site_id
 _symmetry_equiv_pos_as_xyz
  1  'x, y, z'
loop_
 _atom_site_type_symbol
 _atom_site_label
 _atom_site_symmetry_multiplicity
 _atom_site_fract_x
 _atom_site_fract_y
 _atom_site_fract_z
 _atom_site_occupancy
  Ag  Ag0  1  0.75000001  0.25000000  0.50000003  1
  Ag  Ag1  1  0.25000003  0.75000001  0.50000004  1
  Ag  Ag2  1  0.50000002  0.50000000  0.00000004  1
  Ag  Ag3  1  0.00000000  0.00000000  0.00000000  1
  Se  Se4  1  0.36697303  0.87814401  0.24511705  1
  Se  Se5  1  0.12185600  0.12185600  0.75488300  1
  Se  Se6  1  0.87814401  0.36697300  0.24511704  1
  Se  Se7  1  0.63302703  0.63302701  0.75488304  1
