# generated using pymatgen
data_NdZrNi9
_symmetry_space_group_name_H-M   'P 1'
_cell_length_a   6.94428015
_cell_length_b   6.96769524
_cell_length_c   6.94428015
_cell_angle_alpha   60.11110306
_cell_angle_beta   90.00000000
_cell_angle_gamma   119.88889313
_symmetry_Int_Tables_number   1
_chemical_formula_structural   NdZrNi9
_chemical_formula_sum   'Nd1 Zr1 Ni9'
_cell_volume   238.38601681
_cell_formula_units_Z   1
loop_
 _symmetry_equiv_pos_site_id
 _symmetry_equiv_pos_as_xyz
  1  'x, y, z'
loop_
 _atom_site_type_symbol
 _atom_site_label
 _atom_site_symmetry_multiplicity
 _atom_site_fract_x
 _atom_site_fract_y
 _atom_site_fract_z
 _atom_site_occupancy
  Nd  Nd0  1  0.00000000  0.00000000  0.00000000  1
  Zr  Zr1  1  -0.00000000  0.00000000  0.49999999  1
  Ni  Ni2  1  0.47070294  0.58857796  0.88212500  1
  Ni  Ni3  1  0.52929695  0.41142197  0.47070300  1
  Ni  Ni4  1  0.88212495  0.41142197  0.11787501  1
  Ni  Ni5  1  0.11787495  0.58857796  0.52929700  1
  Ni  Ni6  1  0.49999999  0.00000000  0.00000000  1
  Ni  Ni7  1  0.40503198  0.15549299  0.24953900  1
  Ni  Ni8  1  0.75046097  0.15549299  0.59496799  1
  Ni  Ni9  1  0.24953892  0.84450694  0.75046101  1
  Ni  Ni10  1  0.59496792  0.84450694  0.40503201  1
