# generated using pymatgen
data_NaSrCa3MgZnO9
_symmetry_space_group_name_H-M   'P 1'
_cell_length_a   3.39243603
_cell_length_b   5.89411926
_cell_length_c   12.45024776
_cell_angle_alpha   102.22186279
_cell_angle_beta   90.00000000
_cell_angle_gamma   106.72518158
_symmetry_Int_Tables_number   1
_chemical_formula_structural   NaSrCa3MgZnO9
_chemical_formula_sum   'Na1 Sr1 Ca3 Mg1 Zn1 O9'
_cell_volume   232.51871840
_cell_formula_units_Z   1
loop_
 _symmetry_equiv_pos_site_id
 _symmetry_equiv_pos_as_xyz
  1  'x, y, z'
loop_
 _atom_site_type_symbol
 _atom_site_label
 _atom_site_symmetry_multiplicity
 _atom_site_fract_x
 _atom_site_fract_y
 _atom_site_fract_z
 _atom_site_occupancy
  Ca  Ca0  1  0.54838900  0.09677800  0.28996499  1
  Sr  Sr1  1  0.45092105  0.90184198  0.71015397  1
  Ca  Ca2  1  0.24017602  0.48035199  0.87149297  1
  Ca  Ca3  1  0.15005202  0.30010399  0.56417298  1
  Na  Na4  1  0.84903403  0.69806798  0.43838398  1
  Mg  Mg5  1  0.00127300  0.00254600  0.99678698  1
  Zn  Zn6  1  0.76249102  0.52498199  0.12669099  1
  O  O7  1  0.19042802  0.38085599  0.39793398  1
  O  O8  1  0.80667303  0.61334599  0.60330898  1
  O  O9  1  0.09247901  0.18495800  0.71576398  1
  O  O10  1  0.90265804  0.80531598  0.27984398  1
  O  O11  1  0.12501201  0.25002399  0.16116499  1
  O  O12  1  0.87698003  0.75395998  0.83852297  1
  O  O13  1  0.37211904  0.74423798  0.05880198  1
  O  O14  1  0.63456601  0.26913199  0.95375598  1
  O  O15  1  0.49675005  0.99349998  0.49325597  1
