# generated using pymatgen
data_MoS5
_symmetry_space_group_name_H-M   'P 1'
_cell_length_a   3.25705004
_cell_length_b   3.25704908
_cell_length_c   36.86000061
_cell_angle_alpha   90.00000000
_cell_angle_beta   90.00000000
_cell_angle_gamma   120.00000763
_symmetry_Int_Tables_number   1
_chemical_formula_structural   MoS5
_chemical_formula_sum   'Mo2 S10'
_cell_volume   338.63720457
_cell_formula_units_Z   2
loop_
 _symmetry_equiv_pos_site_id
 _symmetry_equiv_pos_as_xyz
  1  'x, y, z'
loop_
 _atom_site_type_symbol
 _atom_site_label
 _atom_site_symmetry_multiplicity
 _atom_site_fract_x
 _atom_site_fract_y
 _atom_site_fract_z
 _atom_site_occupancy
  Mo  Mo0  1  0.66666665  0.33333333  0.90610101  1
  Mo  Mo1  1  0.66666665  0.33333333  0.53031401  1
  S  S2  1  0.33333331  0.66666666  0.71819401  1
  S  S3  1  0.33333331  0.66666666  0.34244400  1
  S  S4  1  0.66666665  0.33333333  0.67218401  1
  S  S5  1  0.66666665  0.33333333  0.29610800  1
  S  S6  1  0.66666665  0.33333333  0.76424901  1
  S  S7  1  0.66666665  0.33333333  0.38879200  1
  S  S8  1  0.33333331  0.66666666  0.94796501  1
  S  S9  1  0.33333331  0.66666666  0.57218701  1
  S  S10  1  0.33333331  0.66666666  0.86421501  1
  S  S11  1  0.33333331  0.66666666  0.48849901  1
