# generated using pymatgen
data_Li2O2
_symmetry_space_group_name_H-M   'P 1'
_cell_length_a   5.13099384
_cell_length_b   5.18208933
_cell_length_c   5.94067621
_cell_angle_alpha   90.00000000
_cell_angle_beta   90.00000000
_cell_angle_gamma   110.08237457
_symmetry_Int_Tables_number   1
_chemical_formula_structural   Li2O2
_chemical_formula_sum   'Li8 O8'
_cell_volume   148.35436200
_cell_formula_units_Z   4
loop_
 _symmetry_equiv_pos_site_id
 _symmetry_equiv_pos_as_xyz
  1  'x, y, z'
loop_
 _atom_site_type_symbol
 _atom_site_label
 _atom_site_symmetry_multiplicity
 _atom_site_fract_x
 _atom_site_fract_y
 _atom_site_fract_z
 _atom_site_occupancy
  Li  Li0  1  0.25000002  0.50000001  0.13241000  1
  Li  Li1  1  0.25000002  0.50000001  0.60897998  1
  Li  Li2  1  0.25000004  1.00000002  0.37868099  1
  Li  Li3  1  0.75000004  0.50000001  0.39101999  1
  Li  Li4  1  0.75000004  0.50000001  0.86758997  1
  Li  Li5  1  0.75000005  1.00000002  0.62131898  1
  Li  Li6  1  0.75000002  0.00000000  0.14266999  1
  Li  Li7  1  0.25000001  0.00000000  0.85732997  1
  O  O8  1  0.99512305  0.77308101  0.11322900  1
  O  O9  1  0.49512304  0.77308101  0.88677097  1
  O  O10  1  0.48233602  0.24168300  0.63982498  1
  O  O11  1  0.01766402  0.75831701  0.63982498  1
  O  O12  1  0.98233604  0.24168300  0.36017499  1
  O  O13  1  0.51766404  0.75831701  0.36017499  1
  O  O14  1  0.50487702  0.22691900  0.11322900  1
  O  O15  1  0.00487701  0.22691900  0.88677097  1
