# generated using pymatgen
data_Nd5Sn
_symmetry_space_group_name_H-M   'P 1'
_cell_length_a   3.68676925
_cell_length_b   3.68676925
_cell_length_c   17.85438919
_cell_angle_alpha   84.07391357
_cell_angle_beta   84.07391357
_cell_angle_gamma   60.00001144
_symmetry_Int_Tables_number   1
_chemical_formula_structural   Nd5Sn
_chemical_formula_sum   'Nd5 Sn1'
_cell_volume   208.66959554
_cell_formula_units_Z   1
loop_
 _symmetry_equiv_pos_site_id
 _symmetry_equiv_pos_as_xyz
  1  'x, y, z'
loop_
 _atom_site_type_symbol
 _atom_site_label
 _atom_site_symmetry_multiplicity
 _atom_site_fract_x
 _atom_site_fract_y
 _atom_site_fract_z
 _atom_site_occupancy
  Nd  Nd0  1  0.00152900  0.00152900  0.99541300  1
  Nd  Nd1  1  0.49972601  0.49972602  0.50082199  1
  Nd  Nd2  1  0.61065301  0.61065302  0.16804098  1
  Nd  Nd3  1  0.11013500  0.11013500  0.66959500  1
  Nd  Nd4  1  0.88770302  0.88770303  0.33689098  1
  Sn  Sn5  1  0.39025401  0.39025401  0.82923799  1
