# generated using pymatgen
data_Sr3Eu(FeO3)4
_symmetry_space_group_name_H-M   'P 1'
_cell_length_a   5.79640102
_cell_length_b   5.82518911
_cell_length_c   8.20686340
_cell_angle_alpha   89.99998474
_cell_angle_beta   89.97496033
_cell_angle_gamma   89.98201752
_symmetry_Int_Tables_number   1
_chemical_formula_structural   Sr3Eu(FeO3)4
_chemical_formula_sum   'Sr3 Eu1 Fe4 O12'
_cell_volume   277.10578718
_cell_formula_units_Z   1
loop_
 _symmetry_equiv_pos_site_id
 _symmetry_equiv_pos_as_xyz
  1  'x, y, z'
loop_
 _atom_site_type_symbol
 _atom_site_label
 _atom_site_symmetry_multiplicity
 _atom_site_fract_x
 _atom_site_fract_y
 _atom_site_fract_z
 _atom_site_occupancy
  Eu  Eu0  1  0.50618200  0.02677000  0.75825505  1
  Sr  Sr1  1  0.99280097  0.52276202  0.75809107  1
  Sr  Sr2  1  0.49381795  0.97323003  0.24174502  1
  Sr  Sr3  1  0.00719898  0.47723801  0.24190901  1
  Fe  Fe4  1  0.00000000  0.00000000  0.50000002  1
  Fe  Fe5  1  0.49999998  0.50000002  0.50000004  1
  Fe  Fe6  1  0.00000000  0.00000000  0.00000000  1
  Fe  Fe7  1  0.49999998  0.50000002  0.00000001  1
  O  O8  1  0.43421798  0.48729201  0.75999005  1
  O  O9  1  0.07359696  0.98494903  0.75113203  1
  O  O10  1  0.56578197  0.51270802  0.24001003  1
  O  O11  1  0.92640300  0.01505100  0.24886804  1
  O  O12  1  0.72166296  0.76335002  0.96681507  1
  O  O13  1  0.78816098  0.28851901  0.54134705  1
  O  O14  1  0.28835399  0.21227901  0.45974103  1
  O  O15  1  0.23739697  0.72165702  0.03357201  1
  O  O16  1  0.27833699  0.23665001  0.03318501  1
  O  O17  1  0.21183897  0.71148102  0.45865302  1
  O  O18  1  0.71164596  0.78772102  0.54025905  1
  O  O19  1  0.76260298  0.27834301  0.96642807  1
