# generated using pymatgen
data_ThIr
_symmetry_space_group_name_H-M   'P 1'
_cell_length_a   3.97067809
_cell_length_b   4.45972919
_cell_length_c   5.87764740
_cell_angle_alpha   90.00000000
_cell_angle_beta   109.74154663
_cell_angle_gamma   90.00000000
_symmetry_Int_Tables_number   1
_chemical_formula_structural   ThIr
_chemical_formula_sum   'Th2 Ir2'
_cell_volume   97.96491097
_cell_formula_units_Z   2
loop_
 _symmetry_equiv_pos_site_id
 _symmetry_equiv_pos_as_xyz
  1  'x, y, z'
loop_
 _atom_site_type_symbol
 _atom_site_label
 _atom_site_symmetry_multiplicity
 _atom_site_fract_x
 _atom_site_fract_y
 _atom_site_fract_z
 _atom_site_occupancy
  Th  Th0  1  0.86290999  0.49999998  0.72582005  1
  Th  Th1  1  0.13400600  0.00000000  0.26801201  1
  Ir  Ir2  1  0.58563399  0.49999998  0.17126802  1
  Ir  Ir3  1  0.41745100  0.00000000  0.83490204  1
