# generated using pymatgen
data_PrGa5
_symmetry_space_group_name_H-M   'P 1'
_cell_length_a   4.38845778
_cell_length_b   5.77341700
_cell_length_c   5.77341747
_cell_angle_alpha   119.93487549
_cell_angle_beta   90.00000000
_cell_angle_gamma   90.00000000
_symmetry_Int_Tables_number   1
_chemical_formula_structural   PrGa5
_chemical_formula_sum   'Pr1 Ga5'
_cell_volume   126.76316408
_cell_formula_units_Z   1
loop_
 _symmetry_equiv_pos_site_id
 _symmetry_equiv_pos_as_xyz
  1  'x, y, z'
loop_
 _atom_site_type_symbol
 _atom_site_label
 _atom_site_symmetry_multiplicity
 _atom_site_fract_x
 _atom_site_fract_y
 _atom_site_fract_z
 _atom_site_occupancy
  Pr  Pr0  1  -0.00000000  0.00002000  0.00002000  1
  Ga  Ga1  1  1.00000005  0.66662597  0.33344396  1
  Ga  Ga2  1  -0.00000000  0.33344398  0.66666666  1
  Ga  Ga3  1  0.50000003  0.49999698  0.49999698  1
  Ga  Ga4  1  0.50000003  0.50000298  0.00000996  1
  Ga  Ga5  1  0.50000003  0.00001000  0.50000302  1
