# generated using pymatgen
data_Ba5SrPrNdNiO7
_symmetry_space_group_name_H-M   'P 1'
_cell_length_a   7.75643921
_cell_length_b   7.75643921
_cell_length_c   7.75643921
_cell_angle_alpha   90.00000000
_cell_angle_beta   90.00000000
_cell_angle_gamma   90.00000000
_symmetry_Int_Tables_number   1
_chemical_formula_structural   Ba5SrPrNdNiO7
_chemical_formula_sum   'Ba5 Sr1 Pr1 Nd1 Ni1 O7'
_cell_volume   466.64560426
_cell_formula_units_Z   1
loop_
 _symmetry_equiv_pos_site_id
 _symmetry_equiv_pos_as_xyz
  1  'x, y, z'
loop_
 _atom_site_type_symbol
 _atom_site_label
 _atom_site_symmetry_multiplicity
 _atom_site_fract_x
 _atom_site_fract_y
 _atom_site_fract_z
 _atom_site_occupancy
  Ba  Ba0  1  0.00000000  0.00000000  0.00000000  1
  Ba  Ba1  1  0.00000000  0.00000000  0.49999999  1
  Ba  Ba2  1  0.49999999  0.49999999  0.00000000  1
  Ba  Ba3  1  0.49999999  0.00000000  0.49999999  1
  Ba  Ba4  1  0.00000000  0.49999999  0.00000000  1
  Sr  Sr5  1  0.00000000  0.49999999  0.49999999  1
  Nd  Nd6  1  0.49999999  0.00000000  0.00000000  1
  Pr  Pr7  1  0.49999999  0.49999999  0.49999999  1
  Ni  Ni8  1  0.33839499  0.33839499  0.66160498  1
  O  O9  1  0.82976998  0.82976998  0.17023000  1
  O  O10  1  0.33839499  0.66160498  0.33839499  1
  O  O11  1  0.82976998  0.17023000  0.82976998  1
  O  O12  1  0.17023000  0.82976998  0.82976998  1
  O  O13  1  0.66160498  0.33839499  0.33839499  1
  O  O14  1  0.66160498  0.66160498  0.66160498  1
  O  O15  1  0.17023000  0.17023000  0.17023000  1
