# generated using pymatgen
data_CePd
_symmetry_space_group_name_H-M   'P 1'
_cell_length_a   4.67726278
_cell_length_b   5.75131893
_cell_length_c   7.37516022
_cell_angle_alpha   90.00000000
_cell_angle_beta   90.00000000
_cell_angle_gamma   90.00000000
_symmetry_Int_Tables_number   1
_chemical_formula_structural   CePd
_chemical_formula_sum   'Ce4 Pd4'
_cell_volume   198.39498111
_cell_formula_units_Z   4
loop_
 _symmetry_equiv_pos_site_id
 _symmetry_equiv_pos_as_xyz
  1  'x, y, z'
loop_
 _atom_site_type_symbol
 _atom_site_label
 _atom_site_symmetry_multiplicity
 _atom_site_fract_x
 _atom_site_fract_y
 _atom_site_fract_z
 _atom_site_occupancy
  Ce  Ce0  1  0.25000001  0.36359900  0.68123698  1
  Ce  Ce1  1  0.25000001  0.13640100  0.18123699  1
  Ce  Ce2  1  0.75000003  0.63640101  0.31876299  1
  Ce  Ce3  1  0.75000003  0.86359901  0.81876298  1
  Pd  Pd4  1  0.25000001  0.84968901  0.54441198  1
  Pd  Pd5  1  0.25000001  0.65031101  0.04441200  1
  Pd  Pd6  1  0.75000003  0.15031100  0.45558799  1
  Pd  Pd7  1  0.75000003  0.34968900  0.95558797  1
