# generated using pymatgen
data_Na2O2
_symmetry_space_group_name_H-M   'P 1'
_cell_length_a   6.23515701
_cell_length_b   6.81425285
_cell_length_c   7.93888187
_cell_angle_alpha   90.00000000
_cell_angle_beta   90.00000000
_cell_angle_gamma   90.00000000
_symmetry_Int_Tables_number   1
_chemical_formula_structural   Na2O2
_chemical_formula_sum   'Na8 O8'
_cell_volume   337.30670868
_cell_formula_units_Z   4
loop_
 _symmetry_equiv_pos_site_id
 _symmetry_equiv_pos_as_xyz
  1  'x, y, z'
loop_
 _atom_site_type_symbol
 _atom_site_label
 _atom_site_symmetry_multiplicity
 _atom_site_fract_x
 _atom_site_fract_y
 _atom_site_fract_z
 _atom_site_occupancy
  Na  Na0  1  0.48702800  0.16193600  -0.00000000  1
  Na  Na1  1  0.98958100  0.32919601  0.24651400  1
  Na  Na2  1  0.48958100  0.67080401  0.25348600  1
  Na  Na3  1  0.98702800  0.83806402  0.50000001  1
  Na  Na4  1  0.48958100  0.67080401  0.74651401  1
  Na  Na5  1  0.98958100  0.32919601  0.75348601  1
  Na  Na6  1  0.00099500  0.82860202  0.00000000  1
  Na  Na7  1  0.50099500  0.17139800  0.50000001  1
  O  O8  1  0.89043300  0.12964900  0.00000000  1
  O  O9  1  0.34799600  0.82549202  0.00000000  1
  O  O10  1  0.88956000  0.67942901  0.22540700  1
  O  O11  1  0.38956000  0.32057101  0.27459300  1
  O  O12  1  0.84799600  0.17450800  0.50000001  1
  O  O13  1  0.39043300  0.87035102  0.50000001  1
  O  O14  1  0.38956000  0.32057101  0.72540701  1
  O  O15  1  0.88956000  0.67942901  0.77459301  1
