# generated using pymatgen
data_Li5MnS8
_symmetry_space_group_name_H-M   'P 1'
_cell_length_a   7.26231194
_cell_length_b   7.26267338
_cell_length_c   7.26287127
_cell_angle_alpha   60.26852417
_cell_angle_beta   60.26905823
_cell_angle_gamma   60.27086258
_symmetry_Int_Tables_number   1
_chemical_formula_structural   Li5MnS8
_chemical_formula_sum   'Li5 Mn1 S8'
_cell_volume   272.52455040
_cell_formula_units_Z   1
loop_
 _symmetry_equiv_pos_site_id
 _symmetry_equiv_pos_as_xyz
  1  'x, y, z'
loop_
 _atom_site_type_symbol
 _atom_site_label
 _atom_site_symmetry_multiplicity
 _atom_site_fract_x
 _atom_site_fract_y
 _atom_site_fract_z
 _atom_site_occupancy
  Li  Li0  1  0.12492300  0.12493700  0.12491601  1
  Li  Li1  1  0.87507099  0.87505301  0.87507805  1
  Li  Li2  1  0.50001000  0.50004801  0.00001402  1
  Li  Li3  1  0.49997601  0.99994701  0.50004503  1
  Li  Li4  1  0.00003001  0.50000801  0.49992601  1
  Mn  Mn5  1  0.50000100  0.49999501  0.50001303  1
  S  S6  1  0.26151600  0.26149000  0.26153501  1
  S  S7  1  0.73596799  0.73603001  0.28645803  1
  S  S8  1  0.28646201  0.73602501  0.73595903  1
  S  S9  1  0.73599299  0.28645100  0.73599504  1
  S  S10  1  0.71352999  0.26397900  0.26405103  1
  S  S11  1  0.26400701  0.71355501  0.26401302  1
  S  S12  1  0.73848899  0.73851301  0.73845304  1
  S  S13  1  0.26402800  0.26396600  0.71354302  1
