# generated using pymatgen
data_K3TlBr4
_symmetry_space_group_name_H-M   'P 1'
_cell_length_a   7.37740803
_cell_length_b   9.47153950
_cell_length_c   10.90274143
_cell_angle_alpha   90.00000000
_cell_angle_beta   90.00000000
_cell_angle_gamma   112.92036438
_symmetry_Int_Tables_number   1
_chemical_formula_structural   K3TlBr4
_chemical_formula_sum   'K6 Tl2 Br8'
_cell_volume   701.68453309
_cell_formula_units_Z   2
loop_
 _symmetry_equiv_pos_site_id
 _symmetry_equiv_pos_as_xyz
  1  'x, y, z'
loop_
 _atom_site_type_symbol
 _atom_site_label
 _atom_site_symmetry_multiplicity
 _atom_site_fract_x
 _atom_site_fract_y
 _atom_site_fract_z
 _atom_site_occupancy
  K  K0  1  0.76812896  0.53625797  0.74999997  1
  K  K1  1  0.23187097  0.46374198  0.24999999  1
  K  K2  1  0.38821195  0.77642396  0.94579196  1
  K  K3  1  0.61178798  0.22357599  0.05420800  1
  K  K4  1  0.61178798  0.22357599  0.44579198  1
  K  K5  1  0.38821195  0.77642396  0.55420798  1
  Tl  Tl6  1  0.00000000  0.00000000  0.00000000  1
  Tl  Tl7  1  0.00000000  0.00000000  0.49999998  1
  Br  Br8  1  0.82202399  0.08424200  0.74999997  1
  Br  Br9  1  0.17797594  0.91575795  0.24999999  1
  Br  Br10  1  0.26221799  0.08424200  0.74999997  1
  Br  Br11  1  0.73778194  0.91575795  0.24999999  1
  Br  Br12  1  0.16798298  0.33596598  0.89200296  1
  Br  Br13  1  0.83201696  0.66403397  0.10799700  1
  Br  Br14  1  0.83201696  0.66403397  0.39200298  1
  Br  Br15  1  0.16798298  0.33596598  0.60799698  1
