# generated using pymatgen
data_LiMg3
_symmetry_space_group_name_H-M   'P 1'
_cell_length_a   3.90152192
_cell_length_b   4.56003189
_cell_length_c   5.81803560
_cell_angle_alpha   113.07199860
_cell_angle_beta   90.00000000
_cell_angle_gamma   90.00000000
_symmetry_Int_Tables_number   1
_chemical_formula_structural   LiMg3
_chemical_formula_sum   'Li1 Mg3'
_cell_volume   95.22968130
_cell_formula_units_Z   1
loop_
 _symmetry_equiv_pos_site_id
 _symmetry_equiv_pos_as_xyz
  1  'x, y, z'
loop_
 _atom_site_type_symbol
 _atom_site_label
 _atom_site_symmetry_multiplicity
 _atom_site_fract_x
 _atom_site_fract_y
 _atom_site_fract_z
 _atom_site_occupancy
  Li  Li0  1  0.75000002  0.86136700  0.72273395  1
  Mg  Mg1  1  0.25000001  0.13863300  0.27726599  1
  Mg  Mg2  1  0.75000002  0.56904400  0.13808797  1
  Mg  Mg3  1  0.25000001  0.43095600  0.86191198  1
