# generated using pymatgen
data_ThUGe4
_symmetry_space_group_name_H-M   'P 1'
_cell_length_a   4.07697582
_cell_length_b   4.07697582
_cell_length_c   8.36609840
_cell_angle_alpha   104.10269165
_cell_angle_beta   104.10269165
_cell_angle_gamma   90.00000000
_symmetry_Int_Tables_number   1
_chemical_formula_structural   ThUGe4
_chemical_formula_sum   'Th1 U1 Ge4'
_cell_volume   130.54223239
_cell_formula_units_Z   1
loop_
 _symmetry_equiv_pos_site_id
 _symmetry_equiv_pos_as_xyz
  1  'x, y, z'
loop_
 _atom_site_type_symbol
 _atom_site_label
 _atom_site_symmetry_multiplicity
 _atom_site_fract_x
 _atom_site_fract_y
 _atom_site_fract_z
 _atom_site_occupancy
  U  U0  1  0.67543405  0.67543404  0.35086801  1
  Th  Th1  1  0.32456602  0.32456602  0.64913198  1
  Ge  Ge2  1  0.50000003  0.00000000  0.00000001  1
  Ge  Ge3  1  0.00000001  0.50000003  0.00000001  1
  Ge  Ge4  1  0.11959401  0.11959401  0.23918799  1
  Ge  Ge5  1  0.88040606  0.88040605  0.76081199  1
