# generated using pymatgen
data_Na2TiNi2O
_symmetry_space_group_name_H-M   'P 1'
_cell_length_a   5.77255011
_cell_length_b   5.79758787
_cell_length_c   5.84091520
_cell_angle_alpha   90.00000000
_cell_angle_beta   69.34305573
_cell_angle_gamma   90.00000000
_symmetry_Int_Tables_number   1
_chemical_formula_structural   Na2TiNi2O
_chemical_formula_sum   'Na4 Ti2 Ni4 O2'
_cell_volume   182.90978543
_cell_formula_units_Z   2
loop_
 _symmetry_equiv_pos_site_id
 _symmetry_equiv_pos_as_xyz
  1  'x, y, z'
loop_
 _atom_site_type_symbol
 _atom_site_label
 _atom_site_symmetry_multiplicity
 _atom_site_fract_x
 _atom_site_fract_y
 _atom_site_fract_z
 _atom_site_occupancy
  Na  Na0  1  0.15052800  0.87792702  0.12720399  1
  Na  Na1  1  0.84947199  0.37792701  0.37279598  1
  Na  Na2  1  0.84947199  0.12207300  0.87279596  1
  Na  Na3  1  0.15052800  0.62207301  0.62720397  1
  O  O4  1  0.27393100  0.50256901  0.20715399  1
  Ti  Ti5  1  0.72606899  0.00256900  0.29284598  1
  Ti  Ti6  1  0.72606899  0.49743101  0.79284596  1
  Ni  Ni7  1  0.27393100  0.99743102  0.70715397  1
  O  O8  1  0.33534099  0.12215800  0.30905199  1
  Ni  Ni9  1  0.66465899  0.62215801  0.19094799  1
  Ni  Ni10  1  0.66465899  0.87784202  0.69094797  1
  Ni  Ni11  1  0.33534099  0.37784201  0.80905197  1
