# generated using pymatgen
data_Cs4H2W(IO)3
_symmetry_space_group_name_H-M   'P 1'
_cell_length_a   7.32071209
_cell_length_b   7.32071209
_cell_length_c   7.32071209
_cell_angle_alpha   60.00000000
_cell_angle_beta   60.00000000
_cell_angle_gamma   60.00000000
_symmetry_Int_Tables_number   1
_chemical_formula_structural   Cs4H2W(IO)3
_chemical_formula_sum   'Cs4 H2 W1 I3 O3'
_cell_volume   277.42460967
_cell_formula_units_Z   1
loop_
 _symmetry_equiv_pos_site_id
 _symmetry_equiv_pos_as_xyz
  1  'x, y, z'
loop_
 _atom_site_type_symbol
 _atom_site_label
 _atom_site_symmetry_multiplicity
 _atom_site_fract_x
 _atom_site_fract_y
 _atom_site_fract_z
 _atom_site_occupancy
  Cs  Cs0  1  0.02328700  0.47671299  0.47671299  1
  Cs  Cs1  1  0.47671299  0.02328700  0.02328700  1
  Cs  Cs2  1  0.02328700  0.02328700  0.47671299  1
  Cs  Cs3  1  0.47671299  0.47671299  0.02328700  1
  W  W4  1  0.02328700  0.47671299  0.02328700  1
  I  I5  1  0.47671299  0.02328700  0.47671299  1
  I  I6  1  0.49999998  0.49999998  0.49999998  1
  I  I7  1  0.61480698  0.61480598  0.61480598  1
  O  O8  1  0.61480698  0.61480598  0.15558100  1
  H  H9  1  0.15558200  0.61480598  0.61480598  1
  O  O10  1  0.61480698  0.15558100  0.61480598  1
  H  H11  1  0.24999999  0.24999999  0.24999999  1
  O  O12  1  0.00000000  0.00000000  0.00000000  1
