# generated using pymatgen
data_TaNb9Ni8
_symmetry_space_group_name_H-M   'P 1'
_cell_length_a   5.55729485
_cell_length_b   7.82946587
_cell_length_c   7.82946634
_cell_angle_alpha   120.00000000
_cell_angle_beta   90.00000000
_cell_angle_gamma   90.00000000
_symmetry_Int_Tables_number   1
_chemical_formula_structural   TaNb9Ni8
_chemical_formula_sum   'Ta1 Nb9 Ni8'
_cell_volume   295.02469322
_cell_formula_units_Z   1
loop_
 _symmetry_equiv_pos_site_id
 _symmetry_equiv_pos_as_xyz
  1  'x, y, z'
loop_
 _atom_site_type_symbol
 _atom_site_label
 _atom_site_symmetry_multiplicity
 _atom_site_fract_x
 _atom_site_fract_y
 _atom_site_fract_z
 _atom_site_occupancy
  Ta  Ta0  1  0.75000002  0.76496103  0.76496104  1
  Nb  Nb1  1  0.25000001  0.23503901  0.23503901  1
  Nb  Nb2  1  0.75000002  0.00000000  0.23503900  1
  Nb  Nb3  1  0.25000001  0.00000000  0.76496101  1
  Nb  Nb4  1  0.75000002  0.23503901  0.00000001  1
  Nb  Nb5  1  0.25000001  0.76496103  0.00000003  1
  Nb  Nb6  1  1.00000003  0.66666669  0.33333337  1
  Nb  Nb7  1  1.00000003  0.33333335  0.66666669  1
  Nb  Nb8  1  0.50000001  0.33333335  0.66666669  1
  Nb  Nb9  1  0.50000001  0.66666669  0.33333337  1
  Ni  Ni10  1  0.75000002  0.40394101  0.40394102  1
  Ni  Ni11  1  0.25000001  0.59605902  0.59605903  1
  Ni  Ni12  1  0.75000002  0.00000000  0.59605901  1
  Ni  Ni13  1  0.25000001  0.00000000  0.40394101  1
  Ni  Ni14  1  0.75000002  0.59605902  0.00000002  1
  Ni  Ni15  1  0.25000001  0.40394101  1.00000003  1
  Ni  Ni16  1  0.00000000  0.00000000  0.00000000  1
  Ni  Ni17  1  0.50000001  0.00000000  -0.00000000  1
