# generated using pymatgen
data_CeSi2
_symmetry_space_group_name_H-M   'P 1'
_cell_length_a   4.42651606
_cell_length_b   7.64661407
_cell_length_c   11.47226143
_cell_angle_alpha   109.46708679
_cell_angle_beta   101.12339020
_cell_angle_gamma   90.00000000
_symmetry_Int_Tables_number   1
_chemical_formula_structural   CeSi2
_chemical_formula_sum   'Ce6 Si12'
_cell_volume   358.36652067
_cell_formula_units_Z   6
loop_
 _symmetry_equiv_pos_site_id
 _symmetry_equiv_pos_as_xyz
  1  'x, y, z'
loop_
 _atom_site_type_symbol
 _atom_site_label
 _atom_site_symmetry_multiplicity
 _atom_site_fract_x
 _atom_site_fract_y
 _atom_site_fract_z
 _atom_site_occupancy
  Ce  Ce0  1  -0.00000001  0.46483399  -0.00000001  1
  Ce  Ce1  1  0.66615699  0.13095600  0.33231500  1
  Ce  Ce2  1  0.33384199  0.79864099  0.66768399  1
  Ce  Ce3  1  0.49999999  0.04787000  1.00000000  1
  Ce  Ce4  1  0.83273098  0.37436299  0.66546300  1
  Ce  Ce5  1  0.16726799  0.70889999  0.33453599  1
  Si  Si6  1  0.93526998  0.78046699  0.87053999  1
  Si  Si7  1  0.06473099  0.90992798  0.12946099  1
  Si  Si8  1  0.76518198  0.92921598  0.53036399  1
  Si  Si9  1  0.23481799  0.39885199  0.46963600  1
  Si  Si10  1  0.59406399  0.43860999  0.18812799  1
  Si  Si11  1  0.40593499  0.25048100  0.81187100  1
  Si  Si12  1  0.89598599  0.06918200  0.79197100  1
  Si  Si13  1  0.10401500  0.27721100  0.20803000  1
  Si  Si14  1  0.73367198  0.56815999  0.46734499  1
  Si  Si15  1  0.26632700  0.10081500  0.53265400  1
  Si  Si16  1  0.57174498  0.74803199  0.14348999  1
  Si  Si17  1  0.42825499  0.60454199  0.85650999  1
