# generated using pymatgen
data_Ce2Ir5
_symmetry_space_group_name_H-M   'P 1'
_cell_length_a   4.43319607
_cell_length_b   8.14237404
_cell_length_c   8.14237404
_cell_angle_alpha   65.68190765
_cell_angle_beta   74.20299530
_cell_angle_gamma   74.20299530
_symmetry_Int_Tables_number   1
_chemical_formula_structural   Ce2Ir5
_chemical_formula_sum   'Ce4 Ir10'
_cell_volume   253.38610321
_cell_formula_units_Z   2
loop_
 _symmetry_equiv_pos_site_id
 _symmetry_equiv_pos_as_xyz
  1  'x, y, z'
loop_
 _atom_site_type_symbol
 _atom_site_label
 _atom_site_symmetry_multiplicity
 _atom_site_fract_x
 _atom_site_fract_y
 _atom_site_fract_z
 _atom_site_occupancy
  Ce  Ce0  1  0.00000000  0.00000000  0.00000000  1
  Ce  Ce1  1  0.29384298  0.70615703  0.70615703  1
  Ce  Ce2  1  0.70615699  0.29384301  0.29384301  1
  Ce  Ce3  1  -0.00000001  0.50000002  0.50000003  1
  Ir  Ir4  1  0.49999998  0.68232103  0.31767902  1
  Ir  Ir5  1  0.49999999  0.31767901  0.68232103  1
  Ir  Ir6  1  0.34163000  0.01807200  0.29866801  1
  Ir  Ir7  1  0.65836997  0.98192804  0.70133203  1
  Ir  Ir8  1  0.34162999  0.29866801  0.01807200  1
  Ir  Ir9  1  0.65836998  0.70133203  0.98192804  1
  Ir  Ir10  1  0.13840400  0.14187301  0.58131902  1
  Ir  Ir11  1  0.86159597  0.85812704  0.41868102  1
  Ir  Ir12  1  0.13840399  0.58131902  0.14187301  1
  Ir  Ir13  1  0.86159598  0.41868102  0.85812703  1
