# generated using pymatgen
data_LiV2FeMo2
_symmetry_space_group_name_H-M   'P 1'
_cell_length_a   4.04543877
_cell_length_b   4.90831137
_cell_length_c   4.98694468
_cell_angle_alpha   119.47974396
_cell_angle_beta   90.00000000
_cell_angle_gamma   90.00000000
_symmetry_Int_Tables_number   1
_chemical_formula_structural   LiV2FeMo2
_chemical_formula_sum   'Li1 V2 Fe1 Mo2'
_cell_volume   86.20171276
_cell_formula_units_Z   1
loop_
 _symmetry_equiv_pos_site_id
 _symmetry_equiv_pos_as_xyz
  1  'x, y, z'
loop_
 _atom_site_type_symbol
 _atom_site_label
 _atom_site_symmetry_multiplicity
 _atom_site_fract_x
 _atom_site_fract_y
 _atom_site_fract_z
 _atom_site_occupancy
  Li  Li0  1  -0.00000000  0.99998095  -0.00000005  1
  V  V1  1  0.50000003  0.49998598  -0.00000002  1
  V  V2  1  -0.00000000  0.32769098  0.65543196  1
  Fe  Fe3  1  -0.00000000  0.67225897  0.34456795  1
  Mo  Mo4  1  0.50000003  0.49999198  0.50000195  1
  Mo  Mo5  1  0.50000003  0.99998995  0.49999793  1
