# generated using pymatgen
data_CeAlSi6
_symmetry_space_group_name_H-M   'P 1'
_cell_length_a   4.16873217
_cell_length_b   4.18785810
_cell_length_c   8.50322437
_cell_angle_alpha   90.00000000
_cell_angle_beta   104.18931580
_cell_angle_gamma   90.00000000
_symmetry_Int_Tables_number   1
_chemical_formula_structural   CeAlSi6
_chemical_formula_sum   'Ce1 Al1 Si6'
_cell_volume   143.92074770
_cell_formula_units_Z   1
loop_
 _symmetry_equiv_pos_site_id
 _symmetry_equiv_pos_as_xyz
  1  'x, y, z'
loop_
 _atom_site_type_symbol
 _atom_site_label
 _atom_site_symmetry_multiplicity
 _atom_site_fract_x
 _atom_site_fract_y
 _atom_site_fract_z
 _atom_site_occupancy
  Ce  Ce0  1  0.89209098  0.24999999  0.78418200  1
  Al  Al1  1  0.10790900  0.74999998  0.21581800  1
  Si  Si2  1  0.68198998  0.24999999  0.36398001  1
  Si  Si3  1  0.31800999  0.74999998  0.63601999  1
  Si  Si4  1  0.54507299  0.24999999  0.09014601  1
  Si  Si5  1  0.45492699  0.74999998  0.90985398  1
  Si  Si6  1  0.25117299  0.24999999  0.50234599  1
  Si  Si7  1  0.74882698  0.74999998  0.49765400  1
