# generated using pymatgen
data_Nd2Hf2Ni15
_symmetry_space_group_name_H-M   'P 1'
_cell_length_a   6.56066179
_cell_length_b   6.56066179
_cell_length_c   6.56066179
_cell_angle_alpha   83.56990814
_cell_angle_beta   83.56990814
_cell_angle_gamma   83.56991577
_symmetry_Int_Tables_number   1
_chemical_formula_structural   Nd2Hf2Ni15
_chemical_formula_sum   'Nd2 Hf2 Ni15'
_cell_volume   277.42644700
_cell_formula_units_Z   1
loop_
 _symmetry_equiv_pos_site_id
 _symmetry_equiv_pos_as_xyz
  1  'x, y, z'
loop_
 _atom_site_type_symbol
 _atom_site_label
 _atom_site_symmetry_multiplicity
 _atom_site_fract_x
 _atom_site_fract_y
 _atom_site_fract_z
 _atom_site_occupancy
  Nd  Nd0  1  0.33946002  0.33946001  0.33945997  1
  Nd  Nd1  1  0.66054005  0.66054002  0.66053995  1
  Hf  Hf2  1  0.14648703  0.65605702  0.65605696  1
  Ni  Ni3  1  0.65605705  0.65605702  0.14648696  1
  Ni  Ni4  1  0.65605703  0.14648700  0.65605696  1
  Hf  Hf5  1  0.85351304  0.34394301  0.34394296  1
  Ni  Ni6  1  0.34394302  0.34394301  0.85351296  1
  Ni  Ni7  1  0.34394305  0.85351302  0.34394296  1
  Ni  Ni8  1  0.10030501  0.10030500  0.10030499  1
  Ni  Ni9  1  0.89969507  0.89969503  0.89969493  1
  Ni  Ni10  1  0.00000000  0.00000000  0.49999999  1
  Ni  Ni11  1  0.00000002  0.50000001  -0.00000001  1
  Ni  Ni12  1  0.50000002  0.00000000  -0.00000001  1
  Ni  Ni13  1  0.70449303  0.29550701  -0.00000002  1
  Ni  Ni14  1  0.29550701  0.00000000  0.70449297  1
  Ni  Ni15  1  0.00000003  0.70449302  0.29550697  1
  Ni  Ni16  1  0.70449302  0.00000000  0.29550698  1
  Ni  Ni17  1  0.00000001  0.29550701  0.70449297  1
  Ni  Ni18  1  0.29550704  0.70449302  -0.00000002  1
