# generated using pymatgen
data_Nd4Ni4Te7O5
_symmetry_space_group_name_H-M   'P 1'
_cell_length_a   6.41096306
_cell_length_b   7.04723501
_cell_length_c   9.55581665
_cell_angle_alpha   90.00000000
_cell_angle_beta   90.00000000
_cell_angle_gamma   90.00000000
_symmetry_Int_Tables_number   1
_chemical_formula_structural   Nd4Ni4Te7O5
_chemical_formula_sum   'Nd4 Ni4 Te7 O5'
_cell_volume   431.72762349
_cell_formula_units_Z   1
loop_
 _symmetry_equiv_pos_site_id
 _symmetry_equiv_pos_as_xyz
  1  'x, y, z'
loop_
 _atom_site_type_symbol
 _atom_site_label
 _atom_site_symmetry_multiplicity
 _atom_site_fract_x
 _atom_site_fract_y
 _atom_site_fract_z
 _atom_site_occupancy
  Nd  Nd0  1  0.54085100  0.39926100  0.75000003  1
  Nd  Nd1  1  0.45914900  0.60073900  0.25000001  1
  Nd  Nd2  1  0.04085100  0.10073900  0.25000001  1
  Nd  Nd3  1  0.95914899  0.89926100  0.75000003  1
  Ni  Ni4  1  -0.00000000  0.50000000  0.00000000  1
  Ni  Ni5  1  -0.00000000  0.50000000  0.50000002  1
  Ni  Ni6  1  0.50000000  0.00000000  0.50000002  1
  Ni  Ni7  1  0.50000000  0.00000000  0.00000000  1
  Te  Te8  1  0.82510099  0.18684400  0.57048802  1
  Te  Te9  1  0.17489900  0.81315600  0.07048800  1
  Te  Te10  1  0.32510100  0.31315600  0.07048800  1
  O  O11  1  0.67489899  0.68684400  0.57048802  1
  Te  Te12  1  0.82510099  0.18684400  0.92951203  1
  Te  Te13  1  0.17489900  0.81315600  0.42951202  1
  Te  Te14  1  0.32510100  0.31315600  0.42951202  1
  O  O15  1  0.67489899  0.68684400  0.92951203  1
  Te  Te16  1  0.85697499  0.45325000  0.25000001  1
  O  O17  1  0.14302500  0.54675000  0.75000003  1
  O  O18  1  0.35697500  0.04675000  0.75000003  1
  O  O19  1  0.64302499  0.95325000  0.25000001  1
