# generated using pymatgen
data_Ca4Sn5Bi
_symmetry_space_group_name_H-M   'P 1'
_cell_length_a   4.65892839
_cell_length_b   4.65892839
_cell_length_c   18.91976547
_cell_angle_alpha   82.92760468
_cell_angle_beta   82.92760468
_cell_angle_gamma   59.99999619
_symmetry_Int_Tables_number   1
_chemical_formula_structural   Ca4Sn5Bi
_chemical_formula_sum   'Ca4 Sn5 Bi1'
_cell_volume   352.03381798
_cell_formula_units_Z   1
loop_
 _symmetry_equiv_pos_site_id
 _symmetry_equiv_pos_as_xyz
  1  'x, y, z'
loop_
 _atom_site_type_symbol
 _atom_site_label
 _atom_site_symmetry_multiplicity
 _atom_site_fract_x
 _atom_site_fract_y
 _atom_site_fract_z
 _atom_site_occupancy
  Ca  Ca0  1  0.00000000  0.00000000  0.00000000  1
  Ca  Ca1  1  0.69923895  0.69923898  0.90228297  1
  Ca  Ca2  1  0.49999997  0.49999998  0.49999998  1
  Ca  Ca3  1  0.09994799  0.09994800  0.70015597  1
  Bi  Bi4  1  0.30076098  0.30076099  0.09771700  1
  Sn  Sn5  1  0.90005194  0.90005197  0.29984400  1
  Sn  Sn6  1  0.60003196  0.60003198  0.19990400  1
  Sn  Sn7  1  0.19998199  0.19998199  0.40005398  1
  Sn  Sn8  1  0.80001795  0.80001797  0.59994598  1
  Sn  Sn9  1  0.39996797  0.39996799  0.80009597  1
