# generated using pymatgen
data_NdSnO3
_symmetry_space_group_name_H-M   'P 1'
_cell_length_a   5.89959002
_cell_length_b   6.14251423
_cell_length_c   9.90648937
_cell_angle_alpha   90.00000000
_cell_angle_beta   90.00000000
_cell_angle_gamma   90.00000000
_symmetry_Int_Tables_number   1
_chemical_formula_structural   NdSnO3
_chemical_formula_sum   'Nd4 Sn4 O12'
_cell_volume   358.99448850
_cell_formula_units_Z   4
loop_
 _symmetry_equiv_pos_site_id
 _symmetry_equiv_pos_as_xyz
  1  'x, y, z'
loop_
 _atom_site_type_symbol
 _atom_site_label
 _atom_site_symmetry_multiplicity
 _atom_site_fract_x
 _atom_site_fract_y
 _atom_site_fract_z
 _atom_site_occupancy
  Nd  Nd0  1  0.00000000  0.00000000  0.00000000  1
  Nd  Nd1  1  0.50000000  0.49999998  0.49999998  1
  Nd  Nd2  1  0.50000000  0.49999998  0.00000000  1
  Nd  Nd3  1  0.00000000  0.00000000  0.49999998  1
  Sn  Sn4  1  0.99963000  0.56324798  0.74999997  1
  Sn  Sn5  1  0.00037000  0.43675198  0.24999999  1
  Sn  Sn6  1  0.50037000  0.06324800  0.24999999  1
  Sn  Sn7  1  0.49963000  0.93675197  0.74999997  1
  O  O8  1  0.38729400  0.58610498  0.74999997  1
  O  O9  1  0.11038400  0.60748398  0.44156798  1
  O  O10  1  0.61038400  0.89251597  0.05843200  1
  O  O11  1  0.38961600  0.10748400  0.55843198  1
  O  O12  1  0.38961600  0.10748400  0.94156796  1
  O  O13  1  0.88961600  0.39251599  0.55843198  1
  O  O14  1  0.11038400  0.60748398  0.05843200  1
  O  O15  1  0.61038400  0.89251597  0.44156798  1
  O  O16  1  0.88729400  0.91389497  0.74999997  1
  O  O17  1  0.11270600  0.08610500  0.24999999  1
  O  O18  1  0.61270600  0.41389498  0.24999999  1
  O  O19  1  0.88961600  0.39251599  0.94156796  1
