# generated using pymatgen
data_CeSi3P2
_symmetry_space_group_name_H-M   'P 1'
_cell_length_a   4.24294996
_cell_length_b   4.24294996
_cell_length_c   7.47189999
_cell_angle_alpha   106.49472809
_cell_angle_beta   106.49472809
_cell_angle_gamma   90.00000000
_symmetry_Int_Tables_number   1
_chemical_formula_structural   CeSi3P2
_chemical_formula_sum   'Ce1 Si3 P2'
_cell_volume   123.19370506
_cell_formula_units_Z   1
loop_
 _symmetry_equiv_pos_site_id
 _symmetry_equiv_pos_as_xyz
  1  'x, y, z'
loop_
 _atom_site_type_symbol
 _atom_site_label
 _atom_site_symmetry_multiplicity
 _atom_site_fract_x
 _atom_site_fract_y
 _atom_site_fract_z
 _atom_site_occupancy
  Ce  Ce0  1  0.75000001  0.25000000  0.50000000  1
  Si  Si1  1  0.00000000  0.00000000  0.00000000  1
  Si  Si2  1  0.16617200  0.66617201  0.33234400  1
  Si  Si3  1  0.41617201  0.41617200  0.83234400  1
  P  P4  1  0.58382801  0.58382801  0.16765600  1
  P  P5  1  0.33382801  0.83382801  0.66765600  1
