# generated using pymatgen
data_AgSe
_symmetry_space_group_name_H-M   'P 1'
_cell_length_a   6.33886385
_cell_length_b   6.33886385
_cell_length_c   7.77773809
_cell_angle_alpha   114.04791260
_cell_angle_beta   114.04791260
_cell_angle_gamma   90.00000000
_symmetry_Int_Tables_number   1
_chemical_formula_structural   AgSe
_chemical_formula_sum   'Ag4 Se4'
_cell_volume   255.40393746
_cell_formula_units_Z   4
loop_
 _symmetry_equiv_pos_site_id
 _symmetry_equiv_pos_as_xyz
  1  'x, y, z'
loop_
 _atom_site_type_symbol
 _atom_site_label
 _atom_site_symmetry_multiplicity
 _atom_site_fract_x
 _atom_site_fract_y
 _atom_site_fract_z
 _atom_site_occupancy
  Ag  Ag0  1  0.74999999  0.25000000  0.49999997  1
  Ag  Ag1  1  0.24999997  0.75000000  0.49999996  1
  Ag  Ag2  1  0.49999998  0.50000000  -0.00000004  1
  Ag  Ag3  1  0.00000000  0.00000000  0.00000000  1
  Se  Se4  1  0.64169200  0.13485300  0.77654498  1
  Se  Se5  1  0.35830799  0.35830800  0.22345497  1
  Se  Se6  1  0.13485297  0.64169200  0.77654497  1
  Se  Se7  1  0.86514697  0.86514700  0.22345493  1
