# generated using pymatgen
data_Li7CoO12
_symmetry_space_group_name_H-M   'P 1'
_cell_length_a   5.03898716
_cell_length_b   5.24761295
_cell_length_c   7.38278770
_cell_angle_alpha   90.00000000
_cell_angle_beta   89.88568878
_cell_angle_gamma   90.00000000
_symmetry_Int_Tables_number   1
_chemical_formula_structural   Li7CoO12
_chemical_formula_sum   'Li7 Co1 O12'
_cell_volume   195.22011444
_cell_formula_units_Z   1
loop_
 _symmetry_equiv_pos_site_id
 _symmetry_equiv_pos_as_xyz
  1  'x, y, z'
loop_
 _atom_site_type_symbol
 _atom_site_label
 _atom_site_symmetry_multiplicity
 _atom_site_fract_x
 _atom_site_fract_y
 _atom_site_fract_z
 _atom_site_occupancy
  Li  Li0  1  0.98748097  0.93590601  0.24756596  1
  Li  Li1  1  0.51251898  0.43590600  0.25243398  1
  Li  Li2  1  0.48748098  0.56409401  0.74756598  1
  Li  Li3  1  0.01251900  0.06409400  0.75243400  1
  Li  Li4  1  0.00000000  0.50000000  -0.00000000  1
  Li  Li5  1  0.49999998  0.00000000  0.49999998  1
  Li  Li6  1  0.00000000  0.50000000  0.50000000  1
  Co  Co7  1  0.49999998  0.00000000  -0.00000002  1
  O  O8  1  0.86723097  0.43306200  0.75339496  1
  O  O9  1  0.82312797  0.18856000  0.06791197  1
  O  O10  1  0.81627297  0.18204800  0.42933997  1
  O  O11  1  0.68372698  0.68204801  0.07065997  1
  O  O12  1  0.67687198  0.68856001  0.43208797  1
  O  O13  1  0.63276898  0.93306201  0.74660497  1
  O  O14  1  0.36723099  0.06693800  0.25339498  1
  O  O15  1  0.32312799  0.31144000  0.56791199  1
  O  O16  1  0.31627299  0.31795200  0.92933999  1
  O  O17  1  0.17687199  0.81144001  0.93208799  1
  O  O18  1  0.18372699  0.81795201  0.57065999  1
  O  O19  1  0.13276900  0.56693801  0.24660499  1
