# generated using pymatgen
data_CeFe3Ru5
_symmetry_space_group_name_H-M   'P 1'
_cell_length_a   6.13021088
_cell_length_b   6.13021088
_cell_length_c   10.12016201
_cell_angle_alpha   90.00000000
_cell_angle_beta   90.00000000
_cell_angle_gamma   90.00000000
_symmetry_Int_Tables_number   1
_chemical_formula_structural   CeFe3Ru5
_chemical_formula_sum   'Ce2 Fe6 Ru10'
_cell_volume   380.31048041
_cell_formula_units_Z   2
loop_
 _symmetry_equiv_pos_site_id
 _symmetry_equiv_pos_as_xyz
  1  'x, y, z'
loop_
 _atom_site_type_symbol
 _atom_site_label
 _atom_site_symmetry_multiplicity
 _atom_site_fract_x
 _atom_site_fract_y
 _atom_site_fract_z
 _atom_site_occupancy
  Fe  Fe0  1  0.50000001  0.50000001  0.00000000  1
  Ce  Ce1  1  0.00000000  0.00000000  0.00000000  1
  Ce  Ce2  1  0.50000001  0.00000000  0.69355300  1
  Fe  Fe3  1  0.00000000  0.50000001  0.73563400  1
  Fe  Fe4  1  0.50000001  0.00000000  0.26436600  1
  Fe  Fe5  1  0.00000000  0.50000001  0.30644700  1
  Fe  Fe6  1  0.50000001  0.50000001  0.50000000  1
  Fe  Fe7  1  0.00000000  0.00000000  0.50000000  1
  Ru  Ru8  1  0.50000001  0.00000000  0.03537400  1
  Ru  Ru9  1  0.76397902  0.26397901  0.18016200  1
  Ru  Ru10  1  0.26397901  0.23602100  0.81983800  1
  Ru  Ru11  1  0.76397902  0.73602101  0.18016200  1
  Ru  Ru12  1  0.73602101  0.76397902  0.81983800  1
  Ru  Ru13  1  0.23602100  0.26397901  0.18016200  1
  Ru  Ru14  1  0.00000000  0.50000001  0.96462600  1
  Ru  Ru15  1  0.73602101  0.23602100  0.81983800  1
  Ru  Ru16  1  0.26397901  0.76397902  0.81983800  1
  Ru  Ru17  1  0.23602100  0.73602101  0.18016200  1
