# generated using pymatgen
data_Li5FeO6
_symmetry_space_group_name_H-M   'P 1'
_cell_length_a   4.96318007
_cell_length_b   5.06136608
_cell_length_c   5.03272200
_cell_angle_alpha   81.16996765
_cell_angle_beta   71.75498962
_cell_angle_gamma   60.63966751
_symmetry_Int_Tables_number   1
_chemical_formula_structural   Li5FeO6
_chemical_formula_sum   'Li5 Fe1 O6'
_cell_volume   104.64615287
_cell_formula_units_Z   1
loop_
 _symmetry_equiv_pos_site_id
 _symmetry_equiv_pos_as_xyz
  1  'x, y, z'
loop_
 _atom_site_type_symbol
 _atom_site_label
 _atom_site_symmetry_multiplicity
 _atom_site_fract_x
 _atom_site_fract_y
 _atom_site_fract_z
 _atom_site_occupancy
  Li  Li0  1  0.16959299  0.66081397  0.49999999  1
  Li  Li1  1  0.83963499  0.32072999  0.49999997  1
  Li  Li2  1  0.49628400  0.00743200  0.49999999  1
  Li  Li3  1  0.33423900  0.33152199  -0.00000002  1
  Li  Li4  1  0.99758000  0.00484000  -0.00000003  1
  Fe  Fe5  1  0.67265599  0.65468797  -0.00000003  1
  O  O6  1  0.78116099  0.98703396  0.77522797  1
  O  O7  1  0.40233099  0.69475897  0.77333798  1
  O  O8  1  0.06313900  0.31520099  0.76704800  1
  O  O9  1  0.62165999  0.31520099  0.23295198  1
  O  O10  1  0.23180499  0.98703396  0.22477198  1
  O  O11  1  0.90290999  0.69475897  0.22666196  1
