# generated using pymatgen
data_Ti3Ni5
_symmetry_space_group_name_H-M   'P 1'
_cell_length_a   4.32224512
_cell_length_b   5.47335815
_cell_length_c   5.47335815
_cell_angle_alpha   120.00000000
_cell_angle_beta   90.00000000
_cell_angle_gamma   90.00000000
_symmetry_Int_Tables_number   1
_chemical_formula_structural   Ti3Ni5
_chemical_formula_sum   'Ti3 Ni5'
_cell_volume   112.13669694
_cell_formula_units_Z   1
loop_
 _symmetry_equiv_pos_site_id
 _symmetry_equiv_pos_as_xyz
  1  'x, y, z'
loop_
 _atom_site_type_symbol
 _atom_site_label
 _atom_site_symmetry_multiplicity
 _atom_site_fract_x
 _atom_site_fract_y
 _atom_site_fract_z
 _atom_site_occupancy
  Ti  Ti0  1  0.74999998  0.83359997  0.16639999  1
  Ti  Ti1  1  0.74999998  0.33279999  0.16639999  1
  Ni  Ni2  1  0.74999998  0.83359997  0.66719997  1
  Ti  Ti3  1  0.24999999  0.16639999  0.83359997  1
  Ni  Ni4  1  0.24999999  0.66719998  0.83359996  1
  Ni  Ni5  1  0.24999999  0.16639999  0.33279999  1
  Ni  Ni6  1  0.24999999  0.66666665  0.33333332  1
  Ni  Ni7  1  0.74999998  0.33333332  0.66666664  1
