# generated using pymatgen
data_Li3MnO4
_symmetry_space_group_name_H-M   'P 1'
_cell_length_a   5.68390799
_cell_length_b   5.79574347
_cell_length_c   5.81417894
_cell_angle_alpha   119.87173462
_cell_angle_beta   119.26150513
_cell_angle_gamma   90.00000763
_symmetry_Int_Tables_number   1
_chemical_formula_structural   Li3MnO4
_chemical_formula_sum   'Li6 Mn2 O8'
_cell_volume   137.18583822
_cell_formula_units_Z   2
loop_
 _symmetry_equiv_pos_site_id
 _symmetry_equiv_pos_as_xyz
  1  'x, y, z'
loop_
 _atom_site_type_symbol
 _atom_site_label
 _atom_site_symmetry_multiplicity
 _atom_site_fract_x
 _atom_site_fract_y
 _atom_site_fract_z
 _atom_site_occupancy
  Li  Li0  1  0.49999915  0.99999803  0.99999807  1
  Li  Li1  1  0.00000211  0.99999903  0.50000004  1
  Li  Li2  1  0.49999815  0.99999903  0.50000007  1
  Li  Li3  1  0.00000206  0.50000201  0.00000402  1
  Li  Li4  1  0.00000000  0.00000200  0.00000300  1
  Li  Li5  1  0.50000409  0.49999901  0.49999905  1
  Mn  Mn6  1  0.99999613  0.50000001  0.50000009  1
  Mn  Mn7  1  0.49999809  0.49999501  0.99999405  1
  O  O8  1  0.24987710  0.72202202  0.49972804  1
  O  O9  1  0.77112309  0.27099601  0.04218806  1
  O  O10  1  0.27105905  0.27098801  0.04217303  1
  O  O11  1  0.75012408  0.27798101  0.50027406  1
  O  O12  1  0.74994313  0.71897302  0.49990808  1
  O  O13  1  0.22887710  0.72900602  0.95781204  1
  O  O14  1  0.72894113  0.72901302  0.95782808  1
  O  O15  1  0.25005705  0.28102701  0.50009203  1
