# generated using pymatgen
data_Nd3YNi7SnO2
_symmetry_space_group_name_H-M   'P 1'
_cell_length_a   4.00711393
_cell_length_b   4.00711346
_cell_length_c   19.83927536
_cell_angle_alpha   90.00000000
_cell_angle_beta   90.00000000
_cell_angle_gamma   120.00000000
_symmetry_Int_Tables_number   1
_chemical_formula_structural   Nd3YNi7SnO2
_chemical_formula_sum   'Nd3 Y1 Ni7 Sn1 O2'
_cell_volume   275.87971391
_cell_formula_units_Z   1
loop_
 _symmetry_equiv_pos_site_id
 _symmetry_equiv_pos_as_xyz
  1  'x, y, z'
loop_
 _atom_site_type_symbol
 _atom_site_label
 _atom_site_symmetry_multiplicity
 _atom_site_fract_x
 _atom_site_fract_y
 _atom_site_fract_z
 _atom_site_occupancy
  Y  Y0  1  0.00000000  0.00000000  0.00000000  1
  Nd  Nd1  1  0.00000000  0.00000000  0.50000002  1
  Nd  Nd2  1  0.66666665  0.33333333  0.25000001  1
  Nd  Nd3  1  0.33333329  0.66666666  0.75000002  1
  Ni  Ni4  1  0.66666665  0.33333333  0.87166103  1
  Ni  Ni5  1  0.33333329  0.66666666  0.12833900  1
  Ni  Ni6  1  0.33333329  0.66666666  0.37166101  1
  Ni  Ni7  1  0.66666665  0.33333333  0.62833902  1
  Sn  Sn8  1  0.66666665  0.33333333  0.41634401  1
  Ni  Ni9  1  0.33333329  0.66666666  0.58365602  1
  O  O10  1  0.33333329  0.66666666  0.91634403  1
  O  O11  1  0.66666665  0.33333333  0.08365600  1
  Ni  Ni12  1  0.66666665  0.33333333  0.75000002  1
  Ni  Ni13  1  0.33333329  0.66666666  0.25000001  1
