# generated using pymatgen
data_Ce12SiGe5
_symmetry_space_group_name_H-M   'P 1'
_cell_length_a   8.58129025
_cell_length_b   8.58129025
_cell_length_c   8.58129025
_cell_angle_alpha   73.25151062
_cell_angle_beta   70.55228424
_cell_angle_gamma   112.26448059
_symmetry_Int_Tables_number   1
_chemical_formula_structural   Ce12SiGe5
_chemical_formula_sum   'Ce12 Si1 Ge5'
_cell_volume   485.31956933
_cell_formula_units_Z   1
loop_
 _symmetry_equiv_pos_site_id
 _symmetry_equiv_pos_as_xyz
  1  'x, y, z'
loop_
 _atom_site_type_symbol
 _atom_site_label
 _atom_site_symmetry_multiplicity
 _atom_site_fract_x
 _atom_site_fract_y
 _atom_site_fract_z
 _atom_site_occupancy
  Ce  Ce0  1  0.52537204  0.71128702  0.18591393  1
  Ce  Ce1  1  0.47462800  0.28871301  0.81408595  1
  Ce  Ce2  1  0.10279902  0.28871401  0.18591496  1
  Ce  Ce3  1  0.89720102  0.71128602  0.81408492  1
  Ce  Ce4  1  0.79171498  0.22998801  0.97829696  1
  Ce  Ce5  1  0.20828506  0.77001202  0.02170292  1
  Ce  Ce6  1  0.20828501  0.22998901  0.56172696  1
  Ce  Ce7  1  0.79171503  0.77001102  0.43827293  1
  Ce  Ce8  1  0.69146897  0.00901200  0.68245699  1
  Ce  Ce9  1  0.30853107  0.99098802  0.31754289  1
  Ce  Ce10  1  0.30853104  0.62607402  0.68245691  1
  Ce  Ce11  1  0.69146900  0.37392601  0.31754297  1
  Ge  Ge12  1  0.50000003  0.60798701  0.89201291  1
  Ge  Ge13  1  0.50000001  0.39201301  0.10798697  1
  Ge  Ge14  1  0.62772497  0.00000000  0.37227501  1
  Si  Si15  1  0.37227498  0.00000000  0.62772499  1
  Ge  Ge16  1  0.99999999  0.50000001  0.49999996  1
  Ge  Ge17  1  0.00000000  0.00000000  0.00000000  1
