# generated using pymatgen
data_Hf7Ni13
_symmetry_space_group_name_H-M   'P 1'
_cell_length_a   4.54409552
_cell_length_b   4.54409552
_cell_length_c   18.71274376
_cell_angle_alpha   83.02609253
_cell_angle_beta   83.02609253
_cell_angle_gamma   60.00000763
_symmetry_Int_Tables_number   1
_chemical_formula_structural   Hf7Ni13
_chemical_formula_sum   'Hf7 Ni13'
_cell_volume   331.32349733
_cell_formula_units_Z   1
loop_
 _symmetry_equiv_pos_site_id
 _symmetry_equiv_pos_as_xyz
  1  'x, y, z'
loop_
 _atom_site_type_symbol
 _atom_site_label
 _atom_site_symmetry_multiplicity
 _atom_site_fract_x
 _atom_site_fract_y
 _atom_site_fract_z
 _atom_site_occupancy
  Hf  Hf0  1  0.70037302  0.70037300  0.89888102  1
  Hf  Hf1  1  0.50000001  0.50000000  0.50000001  1
  Hf  Hf2  1  0.10000000  0.10000000  0.70000003  1
  Hf  Hf3  1  0.29962701  0.29962700  0.10111900  1
  Hf  Hf4  1  0.90000002  0.90000000  0.29999999  1
  Hf  Hf5  1  0.59988701  0.59988700  0.20033899  1
  Ni  Ni6  1  0.20002000  0.20002000  0.39994001  1
  Hf  Hf7  1  0.79998002  0.79998000  0.60006001  1
  Ni  Ni8  1  0.40011301  0.40011300  0.79966102  1
  Ni  Ni9  1  0.00000000  0.00000000  0.00000000  1
  Ni  Ni10  1  0.04990800  0.04990800  0.85027604  1
  Ni  Ni11  1  0.84998902  0.84998900  0.45003300  1
  Ni  Ni12  1  0.44999301  0.44999300  0.65002102  1
  Ni  Ni13  1  0.65002402  0.65002400  0.04992799  1
  Ni  Ni14  1  0.25000801  0.25000800  0.24997600  1
  Ni  Ni15  1  0.34997601  0.34997600  0.95007203  1
  Ni  Ni16  1  0.15001100  0.15001100  0.54996702  1
  Ni  Ni17  1  0.74999202  0.74999200  0.75002401  1
  Ni  Ni18  1  0.95009202  0.95009200  0.14972398  1
  Ni  Ni19  1  0.55000701  0.55000700  0.34997900  1
