# generated using pymatgen
data_LiTaTiTe5SeO11
_symmetry_space_group_name_H-M   'P 1'
_cell_length_a   6.18766403
_cell_length_b   6.41471481
_cell_length_c   11.14313412
_cell_angle_alpha   90.00000000
_cell_angle_beta   76.17385101
_cell_angle_gamma   90.00000000
_symmetry_Int_Tables_number   1
_chemical_formula_structural   LiTaTiTe5SeO11
_chemical_formula_sum   'Li1 Ta1 Ti1 Te5 Se1 O11'
_cell_volume   429.47905452
_cell_formula_units_Z   1
loop_
 _symmetry_equiv_pos_site_id
 _symmetry_equiv_pos_as_xyz
  1  'x, y, z'
loop_
 _atom_site_type_symbol
 _atom_site_label
 _atom_site_symmetry_multiplicity
 _atom_site_fract_x
 _atom_site_fract_y
 _atom_site_fract_z
 _atom_site_occupancy
  Ti  Ti0  1  0.25000001  0.31561601  0.24999999  1
  Ta  Ta1  1  0.75000003  0.68438402  0.74999998  1
  Te  Te2  1  0.75000003  0.92221003  0.24999999  1
  Li  Li3  1  0.25000001  0.07779000  0.74999998  1
  Te  Te4  1  0.23298101  0.80278702  0.44767599  1
  Te  Te5  1  0.76701903  0.19721301  0.55232399  1
  Te  Te6  1  0.26701901  0.80278702  0.05232400  1
  Te  Te7  1  0.73298103  0.19721301  0.94767598  1
  O  O8  1  0.51810802  0.08274400  0.30465699  1
  Se  Se9  1  0.48189202  0.91725603  0.69534298  1
  O  O10  1  0.98189204  0.08274400  0.19534299  1
  O  O11  1  0.01810800  0.91725603  0.80465698  1
  O  O12  1  0.01471900  0.27186301  0.44994099  1
  O  O13  1  0.98528104  0.72813702  0.55005899  1
  O  O14  1  0.48528102  0.27186301  0.05005900  1
  O  O15  1  0.51471902  0.72813702  0.94994098  1
  O  O16  1  0.36887001  0.58680702  0.36410899  1
  O  O17  1  0.63113002  0.41319301  0.63589098  1
  O  O18  1  0.13113000  0.58680702  0.13589100  1
  O  O19  1  0.86887003  0.41319301  0.86410898  1
