# generated using pymatgen
data_Nd5Sn
_symmetry_space_group_name_H-M   'P 1'
_cell_length_a   6.60747194
_cell_length_b   8.79166031
_cell_length_c   8.90960407
_cell_angle_alpha   72.83340454
_cell_angle_beta   68.23465729
_cell_angle_gamma   67.92742920
_symmetry_Int_Tables_number   1
_chemical_formula_structural   Nd5Sn
_chemical_formula_sum   'Nd10 Sn2'
_cell_volume   438.07846806
_cell_formula_units_Z   2
loop_
 _symmetry_equiv_pos_site_id
 _symmetry_equiv_pos_as_xyz
  1  'x, y, z'
loop_
 _atom_site_type_symbol
 _atom_site_label
 _atom_site_symmetry_multiplicity
 _atom_site_fract_x
 _atom_site_fract_y
 _atom_site_fract_z
 _atom_site_occupancy
  Nd  Nd0  1  0.90258906  0.89176796  0.30305395  1
  Nd  Nd1  1  0.09741101  0.10823199  0.69694599  1
  Nd  Nd2  1  0.64217104  0.49784597  0.21781197  1
  Nd  Nd3  1  0.35782903  0.50215397  0.78218797  1
  Nd  Nd4  1  0.60652302  0.24150799  0.04536199  1
  Nd  Nd5  1  0.89339305  0.75849196  0.95463796  1
  Nd  Nd6  1  0.39347705  0.75849196  0.95463795  1
  Nd  Nd7  1  0.10660702  0.24150799  0.04536198  1
  Nd  Nd8  1  0.10216903  0.44889798  0.34676397  1
  Nd  Nd9  1  0.89783104  0.55110197  0.65323597  1
  Sn  Sn10  1  0.61111202  0.22445099  0.55332499  1
  Sn  Sn11  1  0.38888805  0.77554896  0.44667495  1
