# generated using pymatgen
data_Ce2GaNi2
_symmetry_space_group_name_H-M   'P 1'
_cell_length_a   4.18257999
_cell_length_b   7.25151491
_cell_length_c   7.25151491
_cell_angle_alpha   90.00000000
_cell_angle_beta   90.00000000
_cell_angle_gamma   90.00000000
_symmetry_Int_Tables_number   1
_chemical_formula_structural   Ce2GaNi2
_chemical_formula_sum   'Ce4 Ga2 Ni4'
_cell_volume   219.93874601
_cell_formula_units_Z   2
loop_
 _symmetry_equiv_pos_site_id
 _symmetry_equiv_pos_as_xyz
  1  'x, y, z'
loop_
 _atom_site_type_symbol
 _atom_site_label
 _atom_site_symmetry_multiplicity
 _atom_site_fract_x
 _atom_site_fract_y
 _atom_site_fract_z
 _atom_site_occupancy
  Ce  Ce0  1  0.50000000  0.67757501  0.17757500  1
  Ce  Ce1  1  0.50000000  0.32242500  0.82242501  1
  Ce  Ce2  1  0.50000000  0.17757500  0.32242500  1
  Ce  Ce3  1  0.50000000  0.82242501  0.67757501  1
  Ga  Ga4  1  -0.00000000  0.50000001  0.50000001  1
  Ga  Ga5  1  0.00000000  0.00000000  0.00000000  1
  Ni  Ni6  1  0.00000000  0.12291600  0.62291601  1
  Ni  Ni7  1  -0.00000000  0.87708401  0.37708400  1
  Ni  Ni8  1  1.00000000  0.62291601  0.87708401  1
  Ni  Ni9  1  -0.00000000  0.37708400  0.12291600  1
