# generated using pymatgen
data_Li2NbO3
_symmetry_space_group_name_H-M   'P 1'
_cell_length_a   3.55472803
_cell_length_b   4.49062014
_cell_length_c   5.32967234
_cell_angle_alpha   114.91573334
_cell_angle_beta   90.00000000
_cell_angle_gamma   90.00000000
_symmetry_Int_Tables_number   1
_chemical_formula_structural   Li2NbO3
_chemical_formula_sum   'Li2 Nb1 O3'
_cell_volume   77.15892936
_cell_formula_units_Z   1
loop_
 _symmetry_equiv_pos_site_id
 _symmetry_equiv_pos_as_xyz
  1  'x, y, z'
loop_
 _atom_site_type_symbol
 _atom_site_label
 _atom_site_symmetry_multiplicity
 _atom_site_fract_x
 _atom_site_fract_y
 _atom_site_fract_z
 _atom_site_occupancy
  Li  Li0  1  0.50000000  0.34339500  0.68679000  1
  Li  Li1  1  0.50000000  0.65660500  0.31321002  1
  Nb  Nb2  1  0.00000000  0.00000000  0.00000000  1
  O  O3  1  0.50000000  0.85664300  0.71328602  1
  O  O4  1  0.50000000  0.14335700  0.28671400  1
  O  O5  1  -0.00000000  0.50000000  0.00000002  1
