# generated using pymatgen
data_Li5MnCdBr4O3
_symmetry_space_group_name_H-M   'P 1'
_cell_length_a   7.56396246
_cell_length_b   7.56396246
_cell_length_c   7.56396246
_cell_angle_alpha   60.00000000
_cell_angle_beta   60.00000000
_cell_angle_gamma   60.00000000
_symmetry_Int_Tables_number   1
_chemical_formula_structural   Li5MnCdBr4O3
_chemical_formula_sum   'Li5 Mn1 Cd1 Br4 O3'
_cell_volume   306.00822264
_cell_formula_units_Z   1
loop_
 _symmetry_equiv_pos_site_id
 _symmetry_equiv_pos_as_xyz
  1  'x, y, z'
loop_
 _atom_site_type_symbol
 _atom_site_label
 _atom_site_symmetry_multiplicity
 _atom_site_fract_x
 _atom_site_fract_y
 _atom_site_fract_z
 _atom_site_occupancy
  Li  Li0  1  0.37499999  0.37499999  0.87499998  1
  Li  Li1  1  0.37499999  0.37499999  0.37499999  1
  Li  Li2  1  0.37499999  0.87499998  0.37499999  1
  Li  Li3  1  0.87499998  0.37499999  0.37499999  1
  Li  Li4  1  0.74999998  0.74999998  0.74999998  1
  Mn  Mn5  1  0.00000000  0.00000000  0.00000000  1
  Cd  Cd6  1  0.61564998  0.61565098  0.15304800  1
  Br  Br7  1  0.61564998  0.61565098  0.61565098  1
  Br  Br8  1  0.61564998  0.15304800  0.61565098  1
  O  O9  1  0.15304700  0.61565098  0.61565098  1
  Br  Br10  1  0.13435000  0.13434900  0.59695198  1
  Br  Br11  1  0.13435000  0.13434900  0.13434900  1
  O  O12  1  0.13435000  0.59695198  0.13434900  1
  O  O13  1  0.59695298  0.13434900  0.13434900  1
