# generated using pymatgen
data_Li3VMoO6
_symmetry_space_group_name_H-M   'P 1'
_cell_length_a   5.21889782
_cell_length_b   5.21889782
_cell_length_c   5.45524073
_cell_angle_alpha   104.29642487
_cell_angle_beta   104.29642487
_cell_angle_gamma   112.43785858
_symmetry_Int_Tables_number   1
_chemical_formula_structural   Li3VMoO6
_chemical_formula_sum   'Li3 V1 Mo1 O6'
_cell_volume   123.04797784
_cell_formula_units_Z   1
loop_
 _symmetry_equiv_pos_site_id
 _symmetry_equiv_pos_as_xyz
  1  'x, y, z'
loop_
 _atom_site_type_symbol
 _atom_site_label
 _atom_site_symmetry_multiplicity
 _atom_site_fract_x
 _atom_site_fract_y
 _atom_site_fract_z
 _atom_site_occupancy
  Li  Li0  1  0.80926803  0.19073201  0.50000000  1
  Li  Li1  1  0.19073206  0.80926805  0.50000001  1
  Li  Li2  1  0.33607105  0.66392904  0.00000002  1
  V  V3  1  0.66392904  0.33607102  0.00000001  1
  Mo  Mo4  1  0.00000000  0.00000000  0.00000000  1
  O  O5  1  0.23708102  0.23708101  0.82310099  1
  O  O6  1  0.76291907  0.76291904  0.17689902  1
  O  O7  1  0.64439008  0.97683106  0.75365002  1
  O  O8  1  0.97683107  0.64439004  0.75365001  1
  O  O9  1  0.35561001  0.02316900  0.24635000  1
  O  O10  1  0.02316902  0.35561002  0.24635001  1
