# generated using pymatgen
data_Mg2Ga
_symmetry_space_group_name_H-M   'P 1'
_cell_length_a   3.13054204
_cell_length_b   5.71467304
_cell_length_c   7.06984806
_cell_angle_alpha   101.81533051
_cell_angle_beta   90.00000000
_cell_angle_gamma   105.89670563
_symmetry_Int_Tables_number   1
_chemical_formula_structural   Mg2Ga
_chemical_formula_sum   'Mg4 Ga2'
_cell_volume   118.85401518
_cell_formula_units_Z   2
loop_
 _symmetry_equiv_pos_site_id
 _symmetry_equiv_pos_as_xyz
  1  'x, y, z'
loop_
 _atom_site_type_symbol
 _atom_site_label
 _atom_site_symmetry_multiplicity
 _atom_site_fract_x
 _atom_site_fract_y
 _atom_site_fract_z
 _atom_site_occupancy
  Mg  Mg0  1  0.99545808  0.99091597  0.00607898  1
  Mg  Mg1  1  0.66476702  0.32953399  0.34068400  1
  Mg  Mg2  1  0.34176406  0.68352798  0.65762700  1
  Mg  Mg3  1  0.71941903  0.43883799  0.93959601  1
  Ga  Ga4  1  0.38935907  0.77871798  0.28103299  1
  Ga  Ga5  1  0.05590001  0.11180000  0.60831501  1
