# generated using pymatgen
data_DyY(TlS2)2
_symmetry_space_group_name_H-M   'P 1'
_cell_length_a   4.28659916
_cell_length_b   6.85578203
_cell_length_c   13.86607361
_cell_angle_alpha   90.00000000
_cell_angle_beta   90.00000000
_cell_angle_gamma   90.00000000
_symmetry_Int_Tables_number   1
_chemical_formula_structural   DyY(TlS2)2
_chemical_formula_sum   'Dy2 Y2 Tl4 S8'
_cell_volume   407.49602553
_cell_formula_units_Z   2
loop_
 _symmetry_equiv_pos_site_id
 _symmetry_equiv_pos_as_xyz
  1  'x, y, z'
loop_
 _atom_site_type_symbol
 _atom_site_label
 _atom_site_symmetry_multiplicity
 _atom_site_fract_x
 _atom_site_fract_y
 _atom_site_fract_z
 _atom_site_occupancy
  Dy  Dy0  1  0.27116599  0.70889100  0.62804602  1
  Dy  Dy1  1  0.77116597  0.79110900  0.37195401  1
  Y  Y2  1  0.72883397  0.20889100  0.87195402  1
  Y  Y3  1  0.22883399  0.29110900  0.12804600  1
  Tl  Tl4  1  0.49795498  0.70439700  0.87581802  1
  Tl  Tl5  1  0.99795496  0.79560300  0.12418200  1
  Tl  Tl6  1  0.50204498  0.20439700  0.62418202  1
  Tl  Tl7  1  0.00204500  0.29560300  0.37581801  1
  S  S8  1  0.76957297  0.91092900  0.72688402  1
  S  S9  1  0.26957299  0.58907100  0.27311601  1
  S  S10  1  0.23042699  0.41092900  0.77311602  1
  S  S11  1  0.73042697  0.08907100  0.22688401  1
  S  S12  1  0.76544297  0.51177700  0.52706701  1
  S  S13  1  0.26544299  0.98822300  0.47293301  1
  S  S14  1  0.23455699  0.01177700  0.97293303  1
  S  S15  1  0.73455697  0.48822300  0.02706700  1
