# generated using pymatgen
data_Li
_symmetry_space_group_name_H-M   'P 1'
_cell_length_a   4.03603363
_cell_length_b   4.03603363
_cell_length_c   8.73735809
_cell_angle_alpha   76.64615631
_cell_angle_beta   76.64615631
_cell_angle_gamma   60.00000381
_symmetry_Int_Tables_number   1
_chemical_formula_structural   Li
_chemical_formula_sum   Li5
_cell_volume   118.79516195
_cell_formula_units_Z   5
loop_
 _symmetry_equiv_pos_site_id
 _symmetry_equiv_pos_as_xyz
  1  'x, y, z'
loop_
 _atom_site_type_symbol
 _atom_site_label
 _atom_site_symmetry_multiplicity
 _atom_site_fract_x
 _atom_site_fract_y
 _atom_site_fract_z
 _atom_site_occupancy
  Li  Li0  1  0.00000000  0.00000000  0.00000000  1
  Li  Li1  1  0.54909202  0.54909202  0.35272398  1
  Li  Li2  1  0.45090802  0.45090802  0.64727599  1
  Li  Li3  1  0.74315003  0.74315003  0.77054998  1
  Li  Li4  1  0.25685001  0.25685001  0.22944999  1
