# generated using pymatgen
data_HfGa2Ni
_symmetry_space_group_name_H-M   'P 1'
_cell_length_a   2.82569242
_cell_length_b   2.82569242
_cell_length_c   9.31466484
_cell_angle_alpha   90.00000000
_cell_angle_beta   90.00000000
_cell_angle_gamma   103.14780426
_symmetry_Int_Tables_number   1
_chemical_formula_structural   HfGa2Ni
_chemical_formula_sum   'Hf1 Ga2 Ni1'
_cell_volume   72.42370936
_cell_formula_units_Z   1
loop_
 _symmetry_equiv_pos_site_id
 _symmetry_equiv_pos_as_xyz
  1  'x, y, z'
loop_
 _atom_site_type_symbol
 _atom_site_label
 _atom_site_symmetry_multiplicity
 _atom_site_fract_x
 _atom_site_fract_y
 _atom_site_fract_z
 _atom_site_occupancy
  Hf  Hf0  1  0.49999997  0.49999999  0.24932700  1
  Ga  Ga1  1  0.00000000  0.00000000  0.50000001  1
  Ga  Ga2  1  0.49999997  0.49999999  0.75067301  1
  Ni  Ni3  1  0.00000000  0.00000000  0.00000000  1
