# generated using pymatgen
data_CeGa5
_symmetry_space_group_name_H-M   'P 1'
_cell_length_a   5.79296827
_cell_length_b   5.79296827
_cell_length_c   5.79296827
_cell_angle_alpha   105.13810730
_cell_angle_beta   105.13810730
_cell_angle_gamma   118.53573608
_symmetry_Int_Tables_number   1
_chemical_formula_structural   CeGa5
_chemical_formula_sum   'Ce1 Ga5'
_cell_volume   146.80265839
_cell_formula_units_Z   1
loop_
 _symmetry_equiv_pos_site_id
 _symmetry_equiv_pos_as_xyz
  1  'x, y, z'
loop_
 _atom_site_type_symbol
 _atom_site_label
 _atom_site_symmetry_multiplicity
 _atom_site_fract_x
 _atom_site_fract_y
 _atom_site_fract_z
 _atom_site_occupancy
  Ce  Ce0  1  0.25000000  0.25000000  -0.00000002  1
  Ga  Ga1  1  0.75000000  0.75000000  -0.00000005  1
  Ga  Ga2  1  0.66327900  0.16327900  0.82655797  1
  Ga  Ga3  1  0.16327900  0.33672100  0.49999998  1
  Ga  Ga4  1  0.33672101  0.83672100  0.17344196  1
  Ga  Ga5  1  0.83672100  0.66327900  0.49999995  1
