# generated using pymatgen
data_Be2B2C
_symmetry_space_group_name_H-M   'P 1'
_cell_length_a   5.36835384
_cell_length_b   6.47261715
_cell_length_c   6.67688513
_cell_angle_alpha   79.06257629
_cell_angle_beta   66.29608154
_cell_angle_gamma   65.49974060
_symmetry_Int_Tables_number   1
_chemical_formula_structural   Be2B2C
_chemical_formula_sum   'Be6 B6 C3'
_cell_volume   193.22954105
_cell_formula_units_Z   3
loop_
 _symmetry_equiv_pos_site_id
 _symmetry_equiv_pos_as_xyz
  1  'x, y, z'
loop_
 _atom_site_type_symbol
 _atom_site_label
 _atom_site_symmetry_multiplicity
 _atom_site_fract_x
 _atom_site_fract_y
 _atom_site_fract_z
 _atom_site_occupancy
  Be  Be0  1  0.10228800  0.19966901  0.59575500  1
  Be  Be1  1  0.50000003  0.00000000  1.00000000  1
  Be  Be2  1  0.89771201  0.80033103  0.40424494  1
  Be  Be3  1  0.30321999  0.59940602  0.79415399  1
  Be  Be4  1  0.69678002  0.40059402  0.20584596  1
  B  B5  1  0.03719100  0.11827800  0.29155300  1
  B  B6  1  0.44702198  0.88172203  0.70844697  1
  B  B7  1  0.55297802  0.11827800  0.29155298  1
  Be  Be8  1  0.85527601  0.68322003  0.10644094  1
  B  B9  1  0.96280901  0.88172203  0.70844695  1
  B  B10  1  0.26622099  0.50000002  0.49999998  1
  C  C11  1  0.35506298  0.68322003  0.10644097  1
  C  C12  1  0.64493702  0.31678001  0.89355898  1
  B  B13  1  0.73377901  0.50000002  0.49999996  1
  C  C14  1  0.14472399  0.31678001  0.89355901  1
