# generated using pymatgen
data_Li2VNi3O8
_symmetry_space_group_name_H-M   'P 1'
_cell_length_a   5.99836397
_cell_length_b   6.70778131
_cell_length_c   5.99836397
_cell_angle_alpha   63.44095612
_cell_angle_beta   90.00000000
_cell_angle_gamma   116.55904388
_symmetry_Int_Tables_number   1
_chemical_formula_structural   Li2VNi3O8
_chemical_formula_sum   'Li2 V1 Ni3 O8'
_cell_volume   186.97384070
_cell_formula_units_Z   1
loop_
 _symmetry_equiv_pos_site_id
 _symmetry_equiv_pos_as_xyz
  1  'x, y, z'
loop_
 _atom_site_type_symbol
 _atom_site_label
 _atom_site_symmetry_multiplicity
 _atom_site_fract_x
 _atom_site_fract_y
 _atom_site_fract_z
 _atom_site_occupancy
  Li  Li0  1  0.74999998  0.49999997  0.75000002  1
  Li  Li1  1  0.00000000  0.00000000  0.00000000  1
  Ni  Ni2  1  0.37499997  0.74999996  0.87500003  1
  V  V3  1  0.87499999  0.24999999  0.37500001  1
  Ni  Ni4  1  0.37499999  0.24999999  0.37500001  1
  Ni  Ni5  1  0.37499997  0.74999996  0.37500003  1
  O  O6  1  0.59428398  0.59738896  0.35370303  1
  O  O7  1  0.39629700  0.09738899  0.74689501  1
  O  O8  1  0.70109200  0.09738799  0.15571600  1
  O  O9  1  0.00310398  0.59738796  0.04890902  1
  O  O10  1  0.15571596  0.90261095  0.39629704  1
  O  O11  1  0.35370299  0.40261098  0.00310502  1
  O  O12  1  0.74689597  0.90261195  0.70109104  1
  O  O13  1  0.04890798  0.40261198  0.59428402  1
