# generated using pymatgen
data_Ca2MgNiO6
_symmetry_space_group_name_H-M   'P 1'
_cell_length_a   5.40953016
_cell_length_b   5.70879078
_cell_length_c   7.94428301
_cell_angle_alpha   90.00000000
_cell_angle_beta   90.00000000
_cell_angle_gamma   90.00000000
_symmetry_Int_Tables_number   1
_chemical_formula_structural   Ca2MgNiO6
_chemical_formula_sum   'Ca4 Mg2 Ni2 O12'
_cell_volume   245.33436209
_cell_formula_units_Z   2
loop_
 _symmetry_equiv_pos_site_id
 _symmetry_equiv_pos_as_xyz
  1  'x, y, z'
loop_
 _atom_site_type_symbol
 _atom_site_label
 _atom_site_symmetry_multiplicity
 _atom_site_fract_x
 _atom_site_fract_y
 _atom_site_fract_z
 _atom_site_occupancy
  Ca  Ca0  1  0.01830700  0.43691802  0.25000000  1
  Ca  Ca1  1  0.98169297  0.56308202  0.75000000  1
  Ca  Ca2  1  0.51830698  0.06308200  0.75000000  1
  Ca  Ca3  1  0.48169299  0.93691804  0.25000000  1
  Mg  Mg4  1  0.00000000  0.00000000  0.00000000  1
  Mg  Mg5  1  0.49999998  0.50000002  -0.00000000  1
  Ni  Ni6  1  0.00000000  0.00000000  0.50000000  1
  Ni  Ni7  1  0.49999998  0.50000002  0.50000000  1
  O  O8  1  0.31446899  0.18882901  0.07019200  1
  O  O9  1  0.68553098  0.81117103  0.92980800  1
  O  O10  1  0.81446898  0.31117101  0.92980800  1
  O  O11  1  0.68553098  0.81117103  0.57019200  1
  O  O12  1  0.18553099  0.68882903  0.07019200  1
  O  O13  1  0.31446899  0.18882901  0.42980800  1
  O  O14  1  0.18553099  0.68882903  0.42980800  1
  O  O15  1  0.81446898  0.31117101  0.57019200  1
  O  O16  1  0.63559698  0.56269202  0.25000000  1
  O  O17  1  0.36440299  0.43730802  0.75000000  1
  O  O18  1  0.13559700  0.93730804  0.75000000  1
  O  O19  1  0.86440297  0.06269200  0.25000000  1
