# generated using pymatgen
data_U3Fe2Ge7
_symmetry_space_group_name_H-M   'P 1'
_cell_length_a   3.55133510
_cell_length_b   7.00035906
_cell_length_c   8.24073410
_cell_angle_alpha   90.00000000
_cell_angle_beta   90.00000000
_cell_angle_gamma   90.00000000
_symmetry_Int_Tables_number   1
_chemical_formula_structural   U3Fe2Ge7
_chemical_formula_sum   'U3 Fe2 Ge7'
_cell_volume   204.86976567
_cell_formula_units_Z   1
loop_
 _symmetry_equiv_pos_site_id
 _symmetry_equiv_pos_as_xyz
  1  'x, y, z'
loop_
 _atom_site_type_symbol
 _atom_site_label
 _atom_site_symmetry_multiplicity
 _atom_site_fract_x
 _atom_site_fract_y
 _atom_site_fract_z
 _atom_site_occupancy
  U  U0  1  0.24999999  0.04272900  0.33187700  1
  U  U1  1  0.24999999  0.54272900  0.16812300  1
  U  U2  1  0.74999998  0.95727099  0.66812199  1
  Fe  Fe3  1  0.74999998  0.45727100  0.83187799  1
  Ge  Ge4  1  0.24999999  0.25733800  0.63673699  1
  Fe  Fe5  1  0.24999999  0.75733799  0.86326299  1
  Ge  Ge6  1  0.74999998  0.74266199  0.36326300  1
  Ge  Ge7  1  0.74999998  0.24266200  0.13673700  1
  Ge  Ge8  1  0.24999999  0.13190600  0.93848899  1
  Ge  Ge9  1  0.24999999  0.63190599  0.56151099  1
  Ge  Ge10  1  0.74999998  0.86809399  0.06151100  1
  Ge  Ge11  1  0.74999998  0.36809400  0.43848899  1
