# generated using pymatgen
data_Li3Fe(BO3)4
_symmetry_space_group_name_H-M   'P 1'
_cell_length_a   5.11114883
_cell_length_b   6.65164518
_cell_length_c   8.46099472
_cell_angle_alpha   109.64909363
_cell_angle_beta   90.00000000
_cell_angle_gamma   90.00000000
_symmetry_Int_Tables_number   1
_chemical_formula_structural   Li3Fe(BO3)4
_chemical_formula_sum   'Li3 Fe1 B4 O12'
_cell_volume   270.90294686
_cell_formula_units_Z   1
loop_
 _symmetry_equiv_pos_site_id
 _symmetry_equiv_pos_as_xyz
  1  'x, y, z'
loop_
 _atom_site_type_symbol
 _atom_site_label
 _atom_site_symmetry_multiplicity
 _atom_site_fract_x
 _atom_site_fract_y
 _atom_site_fract_z
 _atom_site_occupancy
  Li  Li0  1  0.26446501  0.25539800  0.37771599  1
  Li  Li1  1  0.76446502  0.74460199  0.12228403  1
  Li  Li2  1  0.73553502  0.74460199  0.62228400  1
  Fe  Fe3  1  0.23553501  0.25539800  0.87771597  1
  B  B4  1  0.24392901  0.78296299  0.38649102  1
  B  B5  1  0.74392902  0.21703700  0.11350900  1
  B  B6  1  0.75607102  0.21703700  0.61350898  1
  B  B7  1  0.25607101  0.78296299  0.88649099  1
  O  O8  1  0.52515602  0.75865299  0.86304899  1
  O  O9  1  0.02515600  0.24134700  0.63695098  1
  O  O10  1  0.47484402  0.24134700  0.13695100  1
  O  O11  1  0.97484403  0.75865299  0.36304902  1
  O  O12  1  0.11328600  0.91855999  0.82567000  1
  O  O13  1  0.61328602  0.08144000  0.67432997  1
  O  O14  1  0.88671403  0.08144000  0.17432999  1
  O  O15  1  0.38671401  0.91855999  0.32567003  1
  O  O16  1  0.13247200  0.65958700  0.96727198  1
  O  O17  1  0.63247202  0.34041300  0.53272799  1
  O  O18  1  0.86752803  0.34041300  0.03272801  1
  O  O19  1  0.36752801  0.65958700  0.46727201  1
