# generated using pymatgen
data_Ce3AlC14
_symmetry_space_group_name_H-M   'P 1'
_cell_length_a   5.48898411
_cell_length_b   5.48898411
_cell_length_c   7.53901720
_cell_angle_alpha   90.00000000
_cell_angle_beta   90.00000000
_cell_angle_gamma   90.00000000
_symmetry_Int_Tables_number   1
_chemical_formula_structural   Ce3AlC14
_chemical_formula_sum   'Ce3 Al1 C14'
_cell_volume   227.14264618
_cell_formula_units_Z   1
loop_
 _symmetry_equiv_pos_site_id
 _symmetry_equiv_pos_as_xyz
  1  'x, y, z'
loop_
 _atom_site_type_symbol
 _atom_site_label
 _atom_site_symmetry_multiplicity
 _atom_site_fract_x
 _atom_site_fract_y
 _atom_site_fract_z
 _atom_site_occupancy
  Ce  Ce0  1  0.00000000  0.00000000  0.00743300  1
  Ce  Ce1  1  0.49999999  0.49999999  0.00743300  1
  Ce  Ce2  1  0.00000000  0.00000000  0.51376999  1
  Al  Al3  1  0.49999999  0.49999999  0.51376999  1
  C  C4  1  0.49999999  0.00000000  0.72847698  1
  C  C5  1  0.00000000  0.49999999  0.72847698  1
  C  C6  1  0.49999999  0.00000000  0.25598599  1
  C  C7  1  0.00000000  0.49999999  0.25598599  1
  C  C8  1  0.15774000  0.65773999  0.34380299  1
  C  C9  1  0.84225998  0.34225999  0.34380299  1
  C  C10  1  0.34225999  0.15774000  0.34380299  1
  C  C11  1  0.65773999  0.84225998  0.34380299  1
  C  C12  1  0.49999999  0.00000000  0.07028700  1
  C  C13  1  0.00000000  0.49999999  0.07028700  1
  C  C14  1  0.25250900  0.75250899  0.70972098  1
  C  C15  1  0.74749099  0.24749100  0.70972098  1
  C  C16  1  0.24749100  0.25250900  0.70972098  1
  C  C17  1  0.75250899  0.74749099  0.70972098  1
