# generated using pymatgen
data_Li3VO8
_symmetry_space_group_name_H-M   'P 1'
_cell_length_a   5.12911081
_cell_length_b   5.44144726
_cell_length_c   6.63576269
_cell_angle_alpha   111.86985016
_cell_angle_beta   110.28443909
_cell_angle_gamma   95.56967163
_symmetry_Int_Tables_number   1
_chemical_formula_structural   Li3VO8
_chemical_formula_sum   'Li3 V1 O8'
_cell_volume   155.67709392
_cell_formula_units_Z   1
loop_
 _symmetry_equiv_pos_site_id
 _symmetry_equiv_pos_as_xyz
  1  'x, y, z'
loop_
 _atom_site_type_symbol
 _atom_site_label
 _atom_site_symmetry_multiplicity
 _atom_site_fract_x
 _atom_site_fract_y
 _atom_site_fract_z
 _atom_site_occupancy
  Li  Li0  1  0.61820898  0.36820901  0.73641796  1
  Li  Li1  1  0.38179099  0.63179102  0.26358198  1
  Li  Li2  1  0.14972900  0.89972903  0.79945799  1
  V  V3  1  0.85027097  0.10027100  0.20054195  1
  O  O4  1  0.00088800  0.20901401  0.93658999  1
  O  O5  1  0.43570199  0.72757603  0.93658997  1
  O  O6  1  0.99911197  0.79098603  0.06340996  1
  O  O7  1  0.56429798  0.27242401  0.06340997  1
  O  O8  1  0.79728398  0.63770102  0.58441596  1
  O  O9  1  0.28713200  0.94671504  0.58441599  1
  O  O10  1  0.20271600  0.36229901  0.41558399  1
  O  O11  1  0.71286798  0.05328500  0.41558395  1
