# generated using pymatgen
data_HfNi12
_symmetry_space_group_name_H-M   'P 1'
_cell_length_a   4.69457388
_cell_length_b   6.29886341
_cell_length_c   6.29886341
_cell_angle_alpha   82.01754761
_cell_angle_beta   68.12070465
_cell_angle_gamma   68.12070465
_symmetry_Int_Tables_number   1
_chemical_formula_structural   HfNi12
_chemical_formula_sum   'Hf1 Ni12'
_cell_volume   160.39445405
_cell_formula_units_Z   1
loop_
 _symmetry_equiv_pos_site_id
 _symmetry_equiv_pos_as_xyz
  1  'x, y, z'
loop_
 _atom_site_type_symbol
 _atom_site_label
 _atom_site_symmetry_multiplicity
 _atom_site_fract_x
 _atom_site_fract_y
 _atom_site_fract_z
 _atom_site_occupancy
  Hf  Hf0  1  0.00000000  0.00000000  0.00000000  1
  Ni  Ni1  1  0.49999999  0.77101400  0.22898605  1
  Ni  Ni2  1  0.00000000  0.00000000  0.50000000  1
  Ni  Ni3  1  -0.00000002  0.50000000  1.00000003  1
  Ni  Ni4  1  0.50000000  0.50000000  0.00000003  1
  Ni  Ni5  1  0.49999998  1.00000000  0.50000006  1
  Ni  Ni6  1  -0.00000002  0.63496400  0.36503604  1
  Ni  Ni7  1  0.63496400  0.36503600  0.36503602  1
  Ni  Ni8  1  0.36503599  0.63496400  0.63496404  1
  Ni  Ni9  1  -0.00000001  0.36503600  0.63496402  1
  Ni  Ni10  1  0.50000001  0.22898600  0.77101401  1
  Ni  Ni11  1  0.72898599  0.77101400  0.77101404  1
  Ni  Ni12  1  0.27101400  0.22898600  0.22898601  1
