# generated using pymatgen
data_CsK2MnBr5O
_symmetry_space_group_name_H-M   'P 1'
_cell_length_a   7.24850655
_cell_length_b   7.24850655
_cell_length_c   7.24850655
_cell_angle_alpha   60.00000000
_cell_angle_beta   60.00000000
_cell_angle_gamma   60.00000000
_symmetry_Int_Tables_number   1
_chemical_formula_structural   CsK2MnBr5O
_chemical_formula_sum   'Cs1 K2 Mn1 Br5 O1'
_cell_volume   269.29643769
_cell_formula_units_Z   1
loop_
 _symmetry_equiv_pos_site_id
 _symmetry_equiv_pos_as_xyz
  1  'x, y, z'
loop_
 _atom_site_type_symbol
 _atom_site_label
 _atom_site_symmetry_multiplicity
 _atom_site_fract_x
 _atom_site_fract_y
 _atom_site_fract_z
 _atom_site_occupancy
  Cs  Cs0  1  0.74999998  0.74999998  0.74999998  1
  K  K1  1  0.24999999  0.24999999  0.24999999  1
  Mn  Mn2  1  0.49999999  0.49999999  0.49999999  1
  K  K3  1  0.74131998  0.25867999  0.74131998  1
  Br  Br4  1  0.25867999  0.74131998  0.74131998  1
  Br  Br5  1  0.74131998  0.25867999  0.25867999  1
  Br  Br6  1  0.74131998  0.74131998  0.25867999  1
  Br  Br7  1  0.25867999  0.25867999  0.74131998  1
  Br  Br8  1  0.25867999  0.74131998  0.25867999  1
  O  O9  1  0.00000000  0.00000000  0.00000000  1
