# generated using pymatgen
data_Ca7Mg2AsPO3
_symmetry_space_group_name_H-M   'P 1'
_cell_length_a   3.85921550
_cell_length_b   3.85921550
_cell_length_c   22.15738106
_cell_angle_alpha   85.00397491
_cell_angle_beta   85.00397491
_cell_angle_gamma   60.00000763
_symmetry_Int_Tables_number   1
_chemical_formula_structural   Ca7Mg2AsPO3
_chemical_formula_sum   'Ca7 Mg2 As1 P1 O3'
_cell_volume   284.34143961
_cell_formula_units_Z   1
loop_
 _symmetry_equiv_pos_site_id
 _symmetry_equiv_pos_as_xyz
  1  'x, y, z'
loop_
 _atom_site_type_symbol
 _atom_site_label
 _atom_site_symmetry_multiplicity
 _atom_site_fract_x
 _atom_site_fract_y
 _atom_site_fract_z
 _atom_site_occupancy
  Mg  Mg0  1  0.00001800  0.00001800  0.99994599  1
  Ca  Ca1  1  0.71428299  0.71428301  0.85715098  1
  Ca  Ca2  1  0.42856499  0.42856500  0.71430499  1
  Ca  Ca3  1  0.80953399  0.80953401  0.57139798  1
  Ca  Ca4  1  0.52382699  0.52382701  0.42851899  1
  Ca  Ca5  1  0.90477799  0.90477801  0.28566598  1
  Ca  Ca6  1  0.28571900  0.28571900  0.14284299  1
  O  O7  1  0.03570400  0.03570400  0.89288799  1
  Ca  Ca8  1  0.74996199  0.74996201  0.75011398  1
  Mg  Mg9  1  0.46427699  0.46427701  0.60716899  1
  As  As10  1  0.84523099  0.84523101  0.46430698  1
  P  P11  1  0.55954499  0.55954501  0.32136499  1
  O  O12  1  0.94044299  0.94044301  0.17867098  1
  O  O13  1  0.32144700  0.32144700  0.03565899  1
