# generated using pymatgen
data_Li7FeO11
_symmetry_space_group_name_H-M   'P 1'
_cell_length_a   5.74959612
_cell_length_b   5.90716791
_cell_length_c   6.30195665
_cell_angle_alpha   100.49298096
_cell_angle_beta   100.76144409
_cell_angle_gamma   97.62969971
_symmetry_Int_Tables_number   1
_chemical_formula_structural   Li7FeO11
_chemical_formula_sum   'Li7 Fe1 O11'
_cell_volume   203.65319966
_cell_formula_units_Z   1
loop_
 _symmetry_equiv_pos_site_id
 _symmetry_equiv_pos_as_xyz
  1  'x, y, z'
loop_
 _atom_site_type_symbol
 _atom_site_label
 _atom_site_symmetry_multiplicity
 _atom_site_fract_x
 _atom_site_fract_y
 _atom_site_fract_z
 _atom_site_occupancy
  Li  Li0  1  0.12406898  0.33777001  0.56787199  1
  Li  Li1  1  0.59930598  0.15201400  0.32412099  1
  Li  Li2  1  0.85158896  0.64412802  0.39834000  1
  Li  Li3  1  0.32123997  0.60362702  0.14754301  1
  Li  Li4  1  0.69033497  0.37963201  0.86605198  1
  Li  Li5  1  0.00141200  0.00678000  0.00970600  1
  Li  Li6  1  0.41173396  0.85738802  0.65785300  1
  Fe  Fe7  1  0.68100098  0.05929500  0.86954297  1
  O  O8  1  0.08566999  0.32305301  0.96661798  1
  O  O9  1  0.38884698  0.17317100  0.58845399  1
  O  O10  1  0.43225197  0.59007402  0.80708299  1
  O  O11  1  0.93271898  0.10338600  0.28946399  1
  O  O12  1  0.80644697  0.41061401  0.59906199  1
  O  O13  1  0.18349897  0.60286002  0.41539800  1
  O  O14  1  0.09289996  0.88991702  0.72502000  1
  O  O15  1  0.59143097  0.41410101  0.15977600  1
  O  O16  1  0.60390895  0.82180302  0.45062500  1
  O  O17  1  0.88629095  0.68197202  0.03012701  1
  O  O18  1  0.31534896  0.94841602  0.12734102  1
