# generated using pymatgen
data_CaB2H2O5
_symmetry_space_group_name_H-M   'P 1'
_cell_length_a   6.89307117
_cell_length_b   6.89307117
_cell_length_c   7.26887321
_cell_angle_alpha   94.11116791
_cell_angle_beta   116.00026703
_cell_angle_gamma   117.52428436
_symmetry_Int_Tables_number   1
_chemical_formula_structural   CaB2H2O5
_chemical_formula_sum   'Ca2 B4 H4 O10'
_cell_volume   258.47470424
_cell_formula_units_Z   2
loop_
 _symmetry_equiv_pos_site_id
 _symmetry_equiv_pos_as_xyz
  1  'x, y, z'
loop_
 _atom_site_type_symbol
 _atom_site_label
 _atom_site_symmetry_multiplicity
 _atom_site_fract_x
 _atom_site_fract_y
 _atom_site_fract_z
 _atom_site_occupancy
  Ca  Ca0  1  0.21297395  0.80989099  0.05816600  1
  Ca  Ca1  1  0.74827395  0.84519199  0.55816598  1
  H  H2  1  0.15402996  0.66934399  0.56278400  1
  H  H3  1  0.39343998  0.40875400  0.06278399  1
  B  B4  1  0.75495999  0.29089400  0.47016098  1
  B  B5  1  0.67926796  0.71520099  0.97016098  1
  B  B6  1  0.00857998  0.25358900  0.23173100  1
  B  B7  1  0.47814199  0.22315100  0.73173099  1
  H  H8  1  0.82696999  0.32630400  0.97746798  1
  H  H9  1  0.15116299  0.15049700  0.47746800  1
  O  O10  1  0.58117399  0.16546300  0.52537798  1
  O  O11  1  0.85991495  0.94420399  0.02537798  1
  O  O12  1  0.72670999  0.16342200  0.29447498  1
  O  O13  1  0.63105297  0.56776400  0.79447498  1
  O  O14  1  0.19280496  0.59163899  0.41229900  1
  O  O15  1  0.32066099  0.21949400  0.91229899  1
  O  O16  1  0.94705097  0.52676700  0.58742397  1
  O  O17  1  0.56065696  0.64037299  0.08742399  1
  O  O18  1  0.32119695  0.89022799  0.71146299  1
  O  O19  1  0.32123498  0.39026600  0.21146299  1
