# generated using pymatgen
data_Li6TiNiO12
_symmetry_space_group_name_H-M   'P 1'
_cell_length_a   5.42260504
_cell_length_b   5.75909901
_cell_length_c   7.62174225
_cell_angle_alpha   90.00000000
_cell_angle_beta   91.44907379
_cell_angle_gamma   90.00000000
_symmetry_Int_Tables_number   1
_chemical_formula_structural   Li6TiNiO12
_chemical_formula_sum   'Li6 Ti1 Ni1 O12'
_cell_volume   237.94570209
_cell_formula_units_Z   1
loop_
 _symmetry_equiv_pos_site_id
 _symmetry_equiv_pos_as_xyz
  1  'x, y, z'
loop_
 _atom_site_type_symbol
 _atom_site_label
 _atom_site_symmetry_multiplicity
 _atom_site_fract_x
 _atom_site_fract_y
 _atom_site_fract_z
 _atom_site_occupancy
  Li  Li0  1  0.52296800  0.43012200  0.24803100  1
  Li  Li1  1  0.97703199  0.93012200  0.25196899  1
  Li  Li2  1  0.47703200  0.56987800  0.75196901  1
  Li  Li3  1  0.02296800  0.06987800  0.74803102  1
  Li  Li4  1  0.50000000  0.00000000  0.50000000  1
  Ti  Ti5  1  0.00000000  0.50000000  0.00000000  1
  Li  Li6  1  0.50000000  0.00000000  -0.00000001  1
  Ni  Ni7  1  0.00000000  0.50000000  0.50000001  1
  O  O8  1  0.81790099  0.20396700  0.05789498  1
  O  O9  1  0.68209899  0.70396700  0.44210500  1
  O  O10  1  0.20240000  0.81629000  0.55402101  1
  O  O11  1  0.29760000  0.31629000  0.94597902  1
  O  O12  1  0.18209900  0.79603300  0.94210502  1
  O  O13  1  0.31790100  0.29603300  0.55789501  1
  O  O14  1  0.79759999  0.18371000  0.44597900  1
  O  O15  1  0.70239999  0.68371000  0.05402099  1
  O  O16  1  0.38960400  0.03429100  0.26234000  1
  O  O17  1  0.11039600  0.53429100  0.23766000  1
  O  O18  1  0.61039600  0.96570900  0.73766001  1
  O  O19  1  0.88960399  0.46570900  0.76234000  1
