# generated using pymatgen
data_Na2InAgPd2
_symmetry_space_group_name_H-M   'P 1'
_cell_length_a   4.54263783
_cell_length_b   4.54263830
_cell_length_c   7.14971924
_cell_angle_alpha   90.00000000
_cell_angle_beta   90.00000000
_cell_angle_gamma   120.00000000
_symmetry_Int_Tables_number   1
_chemical_formula_structural   Na2InAgPd2
_chemical_formula_sum   'Na2 In1 Ag1 Pd2'
_cell_volume   127.77205824
_cell_formula_units_Z   1
loop_
 _symmetry_equiv_pos_site_id
 _symmetry_equiv_pos_as_xyz
  1  'x, y, z'
loop_
 _atom_site_type_symbol
 _atom_site_label
 _atom_site_symmetry_multiplicity
 _atom_site_fract_x
 _atom_site_fract_y
 _atom_site_fract_z
 _atom_site_occupancy
  Na  Na0  1  0.33333335  0.66666664  0.64892198  1
  Na  Na1  1  0.66666670  0.33333332  0.35107799  1
  Ag  Ag2  1  0.00000000  0.00000000  0.49999998  1
  In  In3  1  0.00000000  0.00000000  0.00000000  1
  Pd  Pd4  1  0.33333335  0.66666664  0.24616899  1
  Pd  Pd5  1  0.66666670  0.33333332  0.75383097  1
