# generated using pymatgen
data_Ce2AlSi5
_symmetry_space_group_name_H-M   'P 1'
_cell_length_a   4.12758017
_cell_length_b   4.17279387
_cell_length_c   8.92672443
_cell_angle_alpha   76.48353577
_cell_angle_beta   90.00000000
_cell_angle_gamma   90.00000000
_symmetry_Int_Tables_number   1
_chemical_formula_structural   Ce2AlSi5
_chemical_formula_sum   'Ce2 Al1 Si5'
_cell_volume   149.49136667
_cell_formula_units_Z   1
loop_
 _symmetry_equiv_pos_site_id
 _symmetry_equiv_pos_as_xyz
  1  'x, y, z'
loop_
 _atom_site_type_symbol
 _atom_site_label
 _atom_site_symmetry_multiplicity
 _atom_site_fract_x
 _atom_site_fract_y
 _atom_site_fract_z
 _atom_site_occupancy
  Ce  Ce0  1  0.49999998  0.35877101  0.28245801  1
  Ce  Ce1  1  0.49999998  0.64122901  0.71754201  1
  Al  Al2  1  0.99999996  0.20957300  0.58085400  1
  Si  Si3  1  0.00000000  0.79042702  0.41914602  1
  Si  Si4  1  0.49999998  0.00000000  0.00000000  1
  Si  Si5  1  0.99999996  0.50000001  0.00000001  1
  Si  Si6  1  0.99999996  0.07325000  0.85350000  1
  Si  Si7  1  0.00000000  0.92675002  0.14650002  1
