# generated using pymatgen
data_TlS
_symmetry_space_group_name_H-M   'P 1'
_cell_length_a   4.41269398
_cell_length_b   4.41269398
_cell_length_c   24.67139816
_cell_angle_alpha   90.00000000
_cell_angle_beta   90.00000000
_cell_angle_gamma   120.00000000
_symmetry_Int_Tables_number   1
_chemical_formula_structural   TlS
_chemical_formula_sum   'Tl6 S6'
_cell_volume   416.03705535
_cell_formula_units_Z   6
loop_
 _symmetry_equiv_pos_site_id
 _symmetry_equiv_pos_as_xyz
  1  'x, y, z'
loop_
 _atom_site_type_symbol
 _atom_site_label
 _atom_site_symmetry_multiplicity
 _atom_site_fract_x
 _atom_site_fract_y
 _atom_site_fract_z
 _atom_site_occupancy
  Tl  Tl0  1  0.00000000  0.00000000  0.00000000  1
  Tl  Tl1  1  0.66666667  0.33333333  0.15276601  1
  Tl  Tl2  1  0.33333333  0.66666665  0.58341402  1
  Tl  Tl3  1  0.66666667  0.33333333  0.41658601  1
  Tl  Tl4  1  0.33333333  0.66666665  0.84723403  1
  S  S5  1  0.33333333  0.66666665  0.06762200  1
  Tl  Tl6  1  0.00000000  0.00000000  0.50000002  1
  S  S7  1  0.00000000  0.00000000  0.22329301  1
  S  S8  1  0.00000000  0.00000000  0.77670703  1
  S  S9  1  0.66666667  0.33333333  0.93237803  1
  S  S10  1  0.66666667  0.33333333  0.65383602  1
  S  S11  1  0.33333333  0.66666665  0.34616401  1
