# generated using pymatgen
data_Ce3GaGe2
_symmetry_space_group_name_H-M   'P 1'
_cell_length_a   4.65335608
_cell_length_b   5.86308908
_cell_length_c   5.86308908
_cell_angle_alpha   75.91125488
_cell_angle_beta   66.61954498
_cell_angle_gamma   66.61954498
_symmetry_Int_Tables_number   1
_chemical_formula_structural   Ce3GaGe2
_chemical_formula_sum   'Ce3 Ga1 Ge2'
_cell_volume   134.06921386
_cell_formula_units_Z   1
loop_
 _symmetry_equiv_pos_site_id
 _symmetry_equiv_pos_as_xyz
  1  'x, y, z'
loop_
 _atom_site_type_symbol
 _atom_site_label
 _atom_site_symmetry_multiplicity
 _atom_site_fract_x
 _atom_site_fract_y
 _atom_site_fract_z
 _atom_site_occupancy
  Ce  Ce0  1  0.06826903  0.93173102  0.93173102  1
  Ce  Ce1  1  0.00383802  0.49616201  0.49616201  1
  Ce  Ce2  1  0.70040798  0.10246300  0.49672003  1
  Ga  Ga3  1  0.70040900  0.49671901  0.10246302  1
  Ge  Ge4  1  0.37016200  0.34083301  0.91884403  1
  Ge  Ge5  1  0.37016102  0.91884502  0.34083301  1
