# generated using pymatgen
data_Tl2S
_symmetry_space_group_name_H-M   'P 1'
_cell_length_a   4.31423521
_cell_length_b   4.31423521
_cell_length_c   9.02005863
_cell_angle_alpha   90.00000000
_cell_angle_beta   90.00000000
_cell_angle_gamma   90.00000000
_symmetry_Int_Tables_number   1
_chemical_formula_structural   Tl2S
_chemical_formula_sum   'Tl4 S2'
_cell_volume   167.88697286
_cell_formula_units_Z   2
loop_
 _symmetry_equiv_pos_site_id
 _symmetry_equiv_pos_as_xyz
  1  'x, y, z'
loop_
 _atom_site_type_symbol
 _atom_site_label
 _atom_site_symmetry_multiplicity
 _atom_site_fract_x
 _atom_site_fract_y
 _atom_site_fract_z
 _atom_site_occupancy
  Tl  Tl0  1  0.00000000  0.49999998  0.72347303  1
  Tl  Tl1  1  0.49999998  0.00000000  0.27652701  1
  Tl  Tl2  1  0.00000000  0.00000000  0.00000000  1
  Tl  Tl3  1  0.49999998  0.49999998  -0.00000000  1
  S  S4  1  0.00000000  0.49999998  0.36589501  1
  S  S5  1  0.49999998  0.00000000  0.63410503  1
