# generated using pymatgen
data_CsK3BiSbO6
_symmetry_space_group_name_H-M   'P 1'
_cell_length_a   4.40368080
_cell_length_b   6.33017015
_cell_length_c   10.53781223
_cell_angle_alpha   90.00000000
_cell_angle_beta   90.00000000
_cell_angle_gamma   90.00000000
_symmetry_Int_Tables_number   1
_chemical_formula_structural   CsK3BiSbO6
_chemical_formula_sum   'Cs1 K3 Bi1 Sb1 O6'
_cell_volume   293.75256783
_cell_formula_units_Z   1
loop_
 _symmetry_equiv_pos_site_id
 _symmetry_equiv_pos_as_xyz
  1  'x, y, z'
loop_
 _atom_site_type_symbol
 _atom_site_label
 _atom_site_symmetry_multiplicity
 _atom_site_fract_x
 _atom_site_fract_y
 _atom_site_fract_z
 _atom_site_occupancy
  K  K0  1  0.25000001  0.21678099  0.92102298  1
  K  K1  1  0.75000003  0.78321898  0.07897700  1
  Cs  Cs2  1  0.25000001  0.71678098  0.57897699  1
  K  K3  1  0.75000003  0.28321899  0.42102299  1
  Bi  Bi4  1  0.75000003  0.09782000  0.63626699  1
  Sb  Sb5  1  0.25000001  0.90217998  0.36373299  1
  O  O6  1  0.75000003  0.59781999  0.86373298  1
  O  O7  1  0.25000001  0.40217999  0.13626700  1
  O  O8  1  0.25000001  0.39759499  0.47826899  1
  O  O9  1  0.75000003  0.60240499  0.52173099  1
  O  O10  1  0.25000001  0.89759498  0.02173100  1
  O  O11  1  0.75000003  0.10240500  0.97826898  1
