# generated using pymatgen
data_CsKTeIO8
_symmetry_space_group_name_H-M   'P 1'
_cell_length_a   5.45698118
_cell_length_b   5.45698118
_cell_length_c   5.46481419
_cell_angle_alpha   90.00000000
_cell_angle_beta   90.00000000
_cell_angle_gamma   89.79860687
_symmetry_Int_Tables_number   1
_chemical_formula_structural   CsKTeIO8
_chemical_formula_sum   'Cs1 K1 Te1 I1 O8'
_cell_volume   162.73374881
_cell_formula_units_Z   1
loop_
 _symmetry_equiv_pos_site_id
 _symmetry_equiv_pos_as_xyz
  1  'x, y, z'
loop_
 _atom_site_type_symbol
 _atom_site_label
 _atom_site_symmetry_multiplicity
 _atom_site_fract_x
 _atom_site_fract_y
 _atom_site_fract_z
 _atom_site_occupancy
  K  K0  1  0.00683098  0.74604101  0.74999997  1
  Cs  Cs1  1  0.25395898  0.99316902  0.24999999  1
  Te  Te2  1  0.49372699  0.50627301  0.49999998  1
  I  I3  1  0.00569199  0.25257500  0.74999997  1
  O  O4  1  0.74742498  0.99430802  0.24999999  1
  O  O5  1  0.49372699  0.50627301  0.99999997  1
  O  O6  1  0.00086599  0.50124601  0.24999999  1
  O  O7  1  0.49875398  0.99913402  0.74999997  1
  O  O8  1  0.00030497  0.99969502  0.49999998  1
  O  O9  1  0.49971900  0.25130900  0.24999999  1
  O  O10  1  0.74869100  0.50028101  0.74999997  1
  O  O11  1  0.00030497  0.99969502  0.99999997  1
