# generated using pymatgen
data_MgBe2B2N3O8
_symmetry_space_group_name_H-M   'P 1'
_cell_length_a   3.57190967
_cell_length_b   5.19987106
_cell_length_c   9.13234711
_cell_angle_alpha   90.00000000
_cell_angle_beta   94.63909149
_cell_angle_gamma   90.00000000
_symmetry_Int_Tables_number   1
_chemical_formula_structural   MgBe2B2N3O8
_chemical_formula_sum   'Mg1 Be2 B2 N3 O8'
_cell_volume   169.06368725
_cell_formula_units_Z   1
loop_
 _symmetry_equiv_pos_site_id
 _symmetry_equiv_pos_as_xyz
  1  'x, y, z'
loop_
 _atom_site_type_symbol
 _atom_site_label
 _atom_site_symmetry_multiplicity
 _atom_site_fract_x
 _atom_site_fract_y
 _atom_site_fract_z
 _atom_site_occupancy
  Mg  Mg0  1  0.54778799  0.48700899  0.20904400  1
  Be  Be1  1  0.04778800  0.01299100  0.70904398  1
  Be  Be2  1  0.45221199  0.51299099  0.79095599  1
  B  B3  1  0.95221199  0.98700899  0.29095601  1
  N  N4  1  0.39302099  0.63147899  0.49285299  1
  B  B5  1  0.89302099  0.86852099  0.99285299  1
  N  N6  1  0.60697899  0.36852100  0.50714700  1
  N  N7  1  0.10697900  0.13147900  0.00714700  1
  O  O8  1  0.35973399  0.73380599  0.36639100  1
  O  O9  1  0.85973399  0.76619399  0.86639099  1
  O  O10  1  0.64026599  0.26619400  0.63360899  1
  O  O11  1  0.14026600  0.23380600  0.13360900  1
  O  O12  1  0.26920300  0.71898099  0.60869899  1
  O  O13  1  0.76920299  0.78101899  0.10869901  1
  O  O14  1  0.73079699  0.28101900  0.39130100  1
  O  O15  1  0.23079700  0.21898100  0.89130098  1
