# generated using pymatgen
data_Ba2LiO5
_symmetry_space_group_name_H-M   'P 1'
_cell_length_a   4.80952549
_cell_length_b   4.80952549
_cell_length_c   4.80952549
_cell_angle_alpha   90.10951233
_cell_angle_beta   90.10951233
_cell_angle_gamma   89.89048767
_symmetry_Int_Tables_number   1
_chemical_formula_structural   Ba2LiO5
_chemical_formula_sum   'Ba2 Li1 O5'
_cell_volume   111.25110043
_cell_formula_units_Z   1
loop_
 _symmetry_equiv_pos_site_id
 _symmetry_equiv_pos_as_xyz
  1  'x, y, z'
loop_
 _atom_site_type_symbol
 _atom_site_label
 _atom_site_symmetry_multiplicity
 _atom_site_fract_x
 _atom_site_fract_y
 _atom_site_fract_z
 _atom_site_occupancy
  Li  Li0  1  0.74999995  0.49929199  0.99929206  1
  Ba  Ba1  1  0.00070795  0.74999998  0.50070804  1
  Ba  Ba2  1  0.49929199  0.00070800  0.25000003  1
  O  O3  1  0.50550296  0.50550299  0.49449705  1
  O  O4  1  0.99449692  0.99449698  0.00550313  1
  O  O5  1  0.24999996  0.50014599  0.00014605  1
  O  O6  1  0.99985396  0.24999999  0.49985407  1
  O  O7  1  0.50014593  0.99985398  0.75000008  1
