# generated using pymatgen
data_CaMgSi
_symmetry_space_group_name_H-M   'P 1'
_cell_length_a   4.58030415
_cell_length_b   4.58030367
_cell_length_c   17.92956352
_cell_angle_alpha   90.00000000
_cell_angle_beta   90.00000000
_cell_angle_gamma   120.00000763
_symmetry_Int_Tables_number   1
_chemical_formula_structural   CaMgSi
_chemical_formula_sum   'Ca4 Mg4 Si4'
_cell_volume   325.75336087
_cell_formula_units_Z   4
loop_
 _symmetry_equiv_pos_site_id
 _symmetry_equiv_pos_as_xyz
  1  'x, y, z'
loop_
 _atom_site_type_symbol
 _atom_site_label
 _atom_site_symmetry_multiplicity
 _atom_site_fract_x
 _atom_site_fract_y
 _atom_site_fract_z
 _atom_site_occupancy
  Ca  Ca0  1  0.00000000  0.00000000  0.50000001  1
  Ca  Ca1  1  0.00000000  0.00000000  0.00000000  1
  Ca  Ca2  1  0.00000000  0.00000000  0.75000002  1
  Ca  Ca3  1  0.00000000  0.00000000  0.25000001  1
  Mg  Mg4  1  0.33333337  0.66666666  0.66263102  1
  Mg  Mg5  1  0.66666667  0.33333333  0.33736901  1
  Mg  Mg6  1  0.66666667  0.33333333  0.16263100  1
  Mg  Mg7  1  0.33333337  0.66666666  0.83736902  1
  Si  Si8  1  0.66666667  0.33333333  0.61628502  1
  Si  Si9  1  0.33333337  0.66666666  0.38371501  1
  Si  Si10  1  0.33333337  0.66666666  0.11628500  1
  Si  Si11  1  0.66666667  0.33333333  0.88371502  1
