# generated using pymatgen
data_Nd2InSn5
_symmetry_space_group_name_H-M   'P 1'
_cell_length_a   4.60681009
_cell_length_b   5.94885731
_cell_length_c   8.01838303
_cell_angle_alpha   90.00000000
_cell_angle_beta   90.00000000
_cell_angle_gamma   112.78046417
_symmetry_Int_Tables_number   1
_chemical_formula_structural   Nd2InSn5
_chemical_formula_sum   'Nd2 In1 Sn5'
_cell_volume   202.60461437
_cell_formula_units_Z   1
loop_
 _symmetry_equiv_pos_site_id
 _symmetry_equiv_pos_as_xyz
  1  'x, y, z'
loop_
 _atom_site_type_symbol
 _atom_site_label
 _atom_site_symmetry_multiplicity
 _atom_site_fract_x
 _atom_site_fract_y
 _atom_site_fract_z
 _atom_site_occupancy
  Nd  Nd0  1  0.06075200  0.12150400  0.25000000  1
  Nd  Nd1  1  0.93924796  0.87849599  0.75000000  1
  In  In2  1  0.34838298  0.69676599  0.05437300  1
  Sn  Sn3  1  0.65161698  0.30323400  0.94562700  1
  Sn  Sn4  1  0.65161698  0.30323400  0.55437300  1
  Sn  Sn5  1  0.34838298  0.69676599  0.44562700  1
  Sn  Sn6  1  0.78003497  0.56007000  0.25000000  1
  Sn  Sn7  1  0.21996499  0.43993000  0.75000000  1
