# generated using pymatgen
data_TaNb5Ge8
_symmetry_space_group_name_H-M   'P 1'
_cell_length_a   3.92113209
_cell_length_b   7.03994751
_cell_length_c   10.84580803
_cell_angle_alpha   82.04928589
_cell_angle_beta   79.58554840
_cell_angle_gamma   73.82980347
_symmetry_Int_Tables_number   1
_chemical_formula_structural   TaNb5Ge8
_chemical_formula_sum   'Ta1 Nb5 Ge8'
_cell_volume   281.58296393
_cell_formula_units_Z   1
loop_
 _symmetry_equiv_pos_site_id
 _symmetry_equiv_pos_as_xyz
  1  'x, y, z'
loop_
 _atom_site_type_symbol
 _atom_site_label
 _atom_site_symmetry_multiplicity
 _atom_site_fract_x
 _atom_site_fract_y
 _atom_site_fract_z
 _atom_site_occupancy
  Ta  Ta0  1  0.12262900  0.19477700  0.55996499  1
  Nb  Nb1  1  0.87737100  0.80522301  0.44003499  1
  Nb  Nb2  1  0.34607500  0.10312000  0.20472999  1
  Nb  Nb3  1  0.65392501  0.89688001  0.79526999  1
  Nb  Nb4  1  0.87143600  0.35332701  0.90380098  1
  Nb  Nb5  1  0.12856401  0.64667301  0.09619900  1
  Ge  Ge6  1  0.38267401  0.55630501  0.67834699  1
  Ge  Ge7  1  0.61732600  0.44369501  0.32165299  1
  Ge  Ge8  1  0.30850201  0.97576001  0.40723600  1
  Ge  Ge9  1  0.69149799  0.02424000  0.59276398  1
  Ge  Ge10  1  0.33553000  0.31263600  0.01630400  1
  Ge  Ge11  1  0.66447000  0.68736401  0.98369598  1
  Ge  Ge12  1  0.93843300  0.92979101  0.19334299  1
  Ge  Ge13  1  0.06156700  0.07020900  0.80665699  1
