# generated using pymatgen
data_NaLiCu3
_symmetry_space_group_name_H-M   'P 1'
_cell_length_a   4.22923613
_cell_length_b   4.22923613
_cell_length_c   6.86538696
_cell_angle_alpha   90.00000000
_cell_angle_beta   90.00000000
_cell_angle_gamma   120.00000000
_symmetry_Int_Tables_number   1
_chemical_formula_structural   NaLiCu3
_chemical_formula_sum   'Na1 Li1 Cu3'
_cell_volume   106.34559837
_cell_formula_units_Z   1
loop_
 _symmetry_equiv_pos_site_id
 _symmetry_equiv_pos_as_xyz
  1  'x, y, z'
loop_
 _atom_site_type_symbol
 _atom_site_label
 _atom_site_symmetry_multiplicity
 _atom_site_fract_x
 _atom_site_fract_y
 _atom_site_fract_z
 _atom_site_occupancy
  Li  Li0  1  0.33333334  0.66666668  0.98749901  1
  Na  Na1  1  0.66666666  0.33333334  0.37472700  1
  Cu  Cu2  1  0.00000000  0.00000000  0.63860900  1
  Cu  Cu3  1  0.00000000  0.00000000  0.25323600  1
  Cu  Cu4  1  0.66666666  0.33333334  0.74592800  1
