# generated using pymatgen
data_Li2O2
_symmetry_space_group_name_H-M   'P 1'
_cell_length_a   5.23919582
_cell_length_b   5.24199438
_cell_length_c   5.38183451
_cell_angle_alpha   82.49127197
_cell_angle_beta   74.84126282
_cell_angle_gamma   60.01765823
_symmetry_Int_Tables_number   1
_chemical_formula_structural   Li2O2
_chemical_formula_sum   'Li4 O4'
_cell_volume   123.57169237
_cell_formula_units_Z   2
loop_
 _symmetry_equiv_pos_site_id
 _symmetry_equiv_pos_as_xyz
  1  'x, y, z'
loop_
 _atom_site_type_symbol
 _atom_site_label
 _atom_site_symmetry_multiplicity
 _atom_site_fract_x
 _atom_site_fract_y
 _atom_site_fract_z
 _atom_site_occupancy
  Li  Li0  1  0.66670102  0.66663235  1.00000001  1
  Li  Li1  1  0.33333334  0.33336768  0.00000000  1
  Li  Li2  1  0.05710700  0.37856401  0.78742302  1
  Li  Li3  1  0.32132100  1.00000003  0.21277502  1
  O  O4  1  0.94289303  0.62143602  0.21257699  1
  O  O5  1  0.43567101  0.62143602  0.78742301  1
  O  O6  1  0.56432902  0.37856401  0.21257700  1
  O  O7  1  0.67867903  0.00000000  0.78722498  1
