# generated using pymatgen
data_U2GePd4
_symmetry_space_group_name_H-M   'P 1'
_cell_length_a   4.01012182
_cell_length_b   4.01012182
_cell_length_c   8.63439369
_cell_angle_alpha   103.42768860
_cell_angle_beta   103.42768860
_cell_angle_gamma   90.00000000
_symmetry_Int_Tables_number   1
_chemical_formula_structural   U2GePd4
_chemical_formula_sum   'U2 Ge1 Pd4'
_cell_volume   131.14925471
_cell_formula_units_Z   1
loop_
 _symmetry_equiv_pos_site_id
 _symmetry_equiv_pos_as_xyz
  1  'x, y, z'
loop_
 _atom_site_type_symbol
 _atom_site_label
 _atom_site_symmetry_multiplicity
 _atom_site_fract_x
 _atom_site_fract_y
 _atom_site_fract_z
 _atom_site_occupancy
  U  U0  1  0.00000000  0.00000000  0.00000000  1
  U  U1  1  0.60729405  0.60729403  0.21458803  1
  Ge  Ge2  1  0.39270603  0.39270602  0.78541201  1
  Pd  Pd3  1  0.18055201  0.18055201  0.36110400  1
  Pd  Pd4  1  0.81944807  0.81944805  0.63889603  1
  Pd  Pd5  1  1.00000007  0.50000003  1.00000002  1
  Pd  Pd6  1  0.50000005  1.00000006  1.00000002  1
