# generated using pymatgen
data_Ce2GaPd3
_symmetry_space_group_name_H-M   'P 1'
_cell_length_a   4.45971918
_cell_length_b   6.95998716
_cell_length_c   7.69265079
_cell_angle_alpha   90.00000000
_cell_angle_beta   90.00000000
_cell_angle_gamma   90.00000000
_symmetry_Int_Tables_number   1
_chemical_formula_structural   Ce2GaPd3
_chemical_formula_sum   'Ce4 Ga2 Pd6'
_cell_volume   238.77671325
_cell_formula_units_Z   2
loop_
 _symmetry_equiv_pos_site_id
 _symmetry_equiv_pos_as_xyz
  1  'x, y, z'
loop_
 _atom_site_type_symbol
 _atom_site_label
 _atom_site_symmetry_multiplicity
 _atom_site_fract_x
 _atom_site_fract_y
 _atom_site_fract_z
 _atom_site_occupancy
  Ce  Ce0  1  0.74999997  0.51636599  0.80303602  1
  Ce  Ce1  1  0.24999999  0.98363398  0.30303601  1
  Ce  Ce2  1  0.24999999  0.48363399  0.19696401  1
  Ce  Ce3  1  0.74999997  0.01636600  0.69696402  1
  Ga  Ga4  1  0.74999997  0.67142398  0.42459001  1
  Ga  Ga5  1  0.24999999  0.32857599  0.57541002  1
  Pd  Pd6  1  0.74999997  0.17142400  0.07541000  1
  Pd  Pd7  1  0.24999999  0.82857598  0.92459002  1
  Pd  Pd8  1  0.24999999  0.72153198  0.59833502  1
  Pd  Pd9  1  0.24999999  0.22153199  0.90166502  1
  Pd  Pd10  1  0.74999997  0.77846798  0.09833500  1
  Pd  Pd11  1  0.74999997  0.27846799  0.40166501  1
