# generated using pymatgen
data_Ce3InPd2
_symmetry_space_group_name_H-M   'P 1'
_cell_length_a   3.74122000
_cell_length_b   3.74122000
_cell_length_c   11.84662437
_cell_angle_alpha   90.00000000
_cell_angle_beta   90.00000000
_cell_angle_gamma   90.00000000
_symmetry_Int_Tables_number   1
_chemical_formula_structural   Ce3InPd2
_chemical_formula_sum   'Ce3 In1 Pd2'
_cell_volume   165.81396806
_cell_formula_units_Z   1
loop_
 _symmetry_equiv_pos_site_id
 _symmetry_equiv_pos_as_xyz
  1  'x, y, z'
loop_
 _atom_site_type_symbol
 _atom_site_label
 _atom_site_symmetry_multiplicity
 _atom_site_fract_x
 _atom_site_fract_y
 _atom_site_fract_z
 _atom_site_occupancy
  Ce  Ce0  1  0.50000000  0.50000000  0.17871999  1
  Ce  Ce1  1  0.50000000  0.50000000  0.49999998  1
  Ce  Ce2  1  0.50000000  0.50000000  0.82127997  1
  In  In3  1  0.00000000  0.00000000  0.00000000  1
  Pd  Pd4  1  0.00000000  0.00000000  0.33344199  1
  Pd  Pd5  1  0.00000000  0.00000000  0.66655798  1
