# generated using pymatgen
data_Nd2SnPt
_symmetry_space_group_name_H-M   'P 1'
_cell_length_a   4.76804495
_cell_length_b   6.91530180
_cell_length_c   6.91530275
_cell_angle_alpha   120.00000000
_cell_angle_beta   90.00000000
_cell_angle_gamma   90.00000000
_symmetry_Int_Tables_number   1
_chemical_formula_structural   Nd2SnPt
_chemical_formula_sum   'Nd4 Sn2 Pt2'
_cell_volume   197.46644582
_cell_formula_units_Z   2
loop_
 _symmetry_equiv_pos_site_id
 _symmetry_equiv_pos_as_xyz
  1  'x, y, z'
loop_
 _atom_site_type_symbol
 _atom_site_label
 _atom_site_symmetry_multiplicity
 _atom_site_fract_x
 _atom_site_fract_y
 _atom_site_fract_z
 _atom_site_occupancy
  Nd  Nd0  1  0.25000000  0.66666671  0.33333337  1
  Nd  Nd1  1  0.75000001  0.33333335  0.66666668  1
  Nd  Nd2  1  0.75000001  0.85295105  0.14704906  1
  Nd  Nd3  1  0.75000001  0.29409802  0.14704902  1
  Sn  Sn4  1  0.75000001  0.85295105  0.70590205  1
  Sn  Sn5  1  0.25000000  0.14704901  0.85295100  1
  Pt  Pt6  1  0.25000000  0.70590204  0.85295104  1
  Pt  Pt7  1  0.25000000  0.14704901  0.29409801  1
