# generated using pymatgen
data_LiNi3
_symmetry_space_group_name_H-M   'P 1'
_cell_length_a   4.53954887
_cell_length_b   5.11739588
_cell_length_c   8.63239384
_cell_angle_alpha   90.00000000
_cell_angle_beta   79.17922211
_cell_angle_gamma   90.00000000
_symmetry_Int_Tables_number   1
_chemical_formula_structural   LiNi3
_chemical_formula_sum   'Li4 Ni12'
_cell_volume   196.97059251
_cell_formula_units_Z   4
loop_
 _symmetry_equiv_pos_site_id
 _symmetry_equiv_pos_as_xyz
  1  'x, y, z'
loop_
 _atom_site_type_symbol
 _atom_site_label
 _atom_site_symmetry_multiplicity
 _atom_site_fract_x
 _atom_site_fract_y
 _atom_site_fract_z
 _atom_site_occupancy
  Li  Li0  1  0.38815501  0.75000002  0.37815398  1
  Li  Li1  1  0.61184502  0.25000001  0.62184597  1
  Li  Li2  1  0.20971601  0.75000002  0.87240097  1
  Li  Li3  1  0.79028402  0.25000001  0.12759899  1
  Ni  Ni4  1  0.29528301  0.99869702  0.12337199  1
  Ni  Ni5  1  0.88640403  0.99749802  0.37340998  1
  Ni  Ni6  1  0.79907303  0.75000002  0.12642999  1
  Ni  Ni7  1  0.11359600  0.49749801  0.62658998  1
  Ni  Ni8  1  0.63209402  0.75000002  0.62392597  1
  Ni  Ni9  1  0.29528301  0.50130301  0.12337199  1
  Ni  Ni10  1  0.36790601  0.25000001  0.37607398  1
  Ni  Ni11  1  0.70471702  0.00130300  0.87662796  1
  Ni  Ni12  1  0.70471702  0.49869701  0.87662796  1
  Ni  Ni13  1  0.11359600  0.00250200  0.62658998  1
  Ni  Ni14  1  0.20092701  0.25000001  0.87356997  1
  Ni  Ni15  1  0.88640403  0.50250201  0.37340998  1
