# generated using pymatgen
data_SmNi2
_symmetry_space_group_name_H-M   'P 1'
_cell_length_a   4.07855988
_cell_length_b   4.21377373
_cell_length_c   7.33266830
_cell_angle_alpha   90.00000000
_cell_angle_beta   90.00000000
_cell_angle_gamma   90.00000000
_symmetry_Int_Tables_number   1
_chemical_formula_structural   SmNi2
_chemical_formula_sum   'Sm2 Ni4'
_cell_volume   126.02017935
_cell_formula_units_Z   2
loop_
 _symmetry_equiv_pos_site_id
 _symmetry_equiv_pos_as_xyz
  1  'x, y, z'
loop_
 _atom_site_type_symbol
 _atom_site_label
 _atom_site_symmetry_multiplicity
 _atom_site_fract_x
 _atom_site_fract_y
 _atom_site_fract_z
 _atom_site_occupancy
  Sm  Sm0  1  0.00000000  0.49998700  0.50000001  1
  Sm  Sm1  1  0.00000000  0.99998400  0.00000003  1
  Ni  Ni2  1  0.50000002  0.99995800  0.33312003  1
  Ni  Ni3  1  0.50000002  0.49995700  0.83400800  1
  Ni  Ni4  1  0.50000002  0.49995700  0.16599201  1
  Ni  Ni5  1  0.50000002  0.99995800  0.66688002  1
