# generated using pymatgen
data_BeH2
_symmetry_space_group_name_H-M   'P 1'
_cell_length_a   3.41955709
_cell_length_b   3.43182397
_cell_length_c   6.02824879
_cell_angle_alpha   106.53764343
_cell_angle_beta   90.00000000
_cell_angle_gamma   90.00000000
_symmetry_Int_Tables_number   1
_chemical_formula_structural   BeH2
_chemical_formula_sum   'Be2 H4'
_cell_volume   67.81696859
_cell_formula_units_Z   2
loop_
 _symmetry_equiv_pos_site_id
 _symmetry_equiv_pos_as_xyz
  1  'x, y, z'
loop_
 _atom_site_type_symbol
 _atom_site_label
 _atom_site_symmetry_multiplicity
 _atom_site_fract_x
 _atom_site_fract_y
 _atom_site_fract_z
 _atom_site_occupancy
  Be  Be0  1  0.74999998  0.66287502  0.32575003  1
  Be  Be1  1  0.24999999  0.33712501  0.67425002  1
  H  H2  1  0.74999998  0.94878902  0.89757805  1
  H  H3  1  0.24999999  0.05121100  0.10242200  1
  H  H4  1  0.24999999  0.13536800  0.27073601  1
  H  H5  1  0.74999998  0.86463202  0.72926404  1
