# generated using pymatgen
data_MgGe2
_symmetry_space_group_name_H-M   'P 1'
_cell_length_a   4.34769392
_cell_length_b   5.51800776
_cell_length_c   5.51800776
_cell_angle_alpha   77.92100525
_cell_angle_beta   66.79917908
_cell_angle_gamma   66.79917908
_symmetry_Int_Tables_number   1
_chemical_formula_structural   MgGe2
_chemical_formula_sum   'Mg2 Ge4'
_cell_volume   111.60564501
_cell_formula_units_Z   2
loop_
 _symmetry_equiv_pos_site_id
 _symmetry_equiv_pos_as_xyz
  1  'x, y, z'
loop_
 _atom_site_type_symbol
 _atom_site_label
 _atom_site_symmetry_multiplicity
 _atom_site_fract_x
 _atom_site_fract_y
 _atom_site_fract_z
 _atom_site_occupancy
  Mg  Mg0  1  0.45844898  0.54155104  0.54155100  1
  Mg  Mg1  1  0.53920996  0.96079006  0.96079001  1
  Ge  Ge2  1  0.83734697  0.96486106  0.36044497  1
  Ge  Ge3  1  0.16382297  0.53605003  0.13630399  1
  Ge  Ge4  1  0.16382400  0.13630401  0.53604901  1
  Ge  Ge5  1  0.83734701  0.36044502  0.96486100  1
