# generated using pymatgen
data_CePrNdSn3
_symmetry_space_group_name_H-M   'P 1'
_cell_length_a   4.56512690
_cell_length_b   4.63721800
_cell_length_c   8.74966526
_cell_angle_alpha   74.63339996
_cell_angle_beta   90.00000000
_cell_angle_gamma   90.00000000
_symmetry_Int_Tables_number   1
_chemical_formula_structural   CePrNdSn3
_chemical_formula_sum   'Ce1 Pr1 Nd1 Sn3'
_cell_volume   178.60411979
_cell_formula_units_Z   1
loop_
 _symmetry_equiv_pos_site_id
 _symmetry_equiv_pos_as_xyz
  1  'x, y, z'
loop_
 _atom_site_type_symbol
 _atom_site_label
 _atom_site_symmetry_multiplicity
 _atom_site_fract_x
 _atom_site_fract_y
 _atom_site_fract_z
 _atom_site_occupancy
  Nd  Nd0  1  0.75000002  0.09670700  0.80658598  1
  Pr  Pr1  1  0.25000001  0.90329301  0.19341398  1
  Ce  Ce2  1  0.25000001  0.56938901  0.86122197  1
  Sn  Sn3  1  0.75000002  0.43061100  0.13877799  1
  Sn  Sn4  1  0.25000001  0.25051200  0.49897598  1
  Sn  Sn5  1  0.75000002  0.74948801  0.50102397  1
