# generated using pymatgen
data_Ga
_symmetry_space_group_name_H-M   'P 1'
_cell_length_a   2.79340792
_cell_length_b   5.41268492
_cell_length_c   6.72740269
_cell_angle_alpha   105.79029083
_cell_angle_beta   90.00000000
_cell_angle_gamma   104.95395660
_symmetry_Int_Tables_number   1
_chemical_formula_structural   Ga
_chemical_formula_sum   Ga6
_cell_volume   94.29391345
_cell_formula_units_Z   6
loop_
 _symmetry_equiv_pos_site_id
 _symmetry_equiv_pos_as_xyz
  1  'x, y, z'
loop_
 _atom_site_type_symbol
 _atom_site_label
 _atom_site_symmetry_multiplicity
 _atom_site_fract_x
 _atom_site_fract_y
 _atom_site_fract_z
 _atom_site_occupancy
  Ga  Ga0  1  0.38882999  0.77765995  0.27831796  1
  Ga  Ga1  1  0.99879601  0.99759194  0.99997596  1
  Ga  Ga2  1  0.72673601  0.45347197  0.95557899  1
  Ga  Ga3  1  0.33396699  0.66793396  0.66773197  1
  Ga  Ga4  1  0.05253200  0.10506399  0.60240600  1
  Ga  Ga5  1  0.66580601  0.33161198  0.32932199  1
