# generated using pymatgen
data_ScTl2S
_symmetry_space_group_name_H-M   'P 1'
_cell_length_a   6.60406780
_cell_length_b   8.00802994
_cell_length_c   8.00803089
_cell_angle_alpha   60.00000381
_cell_angle_beta   90.00000000
_cell_angle_gamma   90.00000000
_symmetry_Int_Tables_number   1
_chemical_formula_structural   ScTl2S
_chemical_formula_sum   'Sc2 Tl4 S2'
_cell_volume   366.76982635
_cell_formula_units_Z   2
loop_
 _symmetry_equiv_pos_site_id
 _symmetry_equiv_pos_as_xyz
  1  'x, y, z'
loop_
 _atom_site_type_symbol
 _atom_site_label
 _atom_site_symmetry_multiplicity
 _atom_site_fract_x
 _atom_site_fract_y
 _atom_site_fract_z
 _atom_site_occupancy
  Tl  Tl0  1  0.00000000  0.00000000  0.00000000  1
  Sc  Sc1  1  0.50000001  0.00000000  0.00000000  1
  Sc  Sc2  1  0.75000002  0.00000000  0.69782397  1
  S  S3  1  0.25000001  0.69782399  0.99999998  1
  Tl  Tl4  1  0.25000001  0.30217600  0.69782398  1
  Tl  Tl5  1  0.75000002  0.69782399  0.30217601  1
  S  S6  1  0.75000002  0.30217600  0.00000001  1
  Tl  Tl7  1  0.25000001  0.00000000  0.30217599  1
