# generated using pymatgen
data_NdSn
_symmetry_space_group_name_H-M   'P 1'
_cell_length_a   8.10653687
_cell_length_b   8.10653687
_cell_length_c   8.10653687
_cell_angle_alpha   109.47122192
_cell_angle_beta   109.47122192
_cell_angle_gamma   109.47122192
_symmetry_Int_Tables_number   1
_chemical_formula_structural   NdSn
_chemical_formula_sum   'Nd7 Sn7'
_cell_volume   410.09471705
_cell_formula_units_Z   7
loop_
 _symmetry_equiv_pos_site_id
 _symmetry_equiv_pos_as_xyz
  1  'x, y, z'
loop_
 _atom_site_type_symbol
 _atom_site_label
 _atom_site_symmetry_multiplicity
 _atom_site_fract_x
 _atom_site_fract_y
 _atom_site_fract_z
 _atom_site_occupancy
  Nd  Nd0  1  0.25000001  0.37500000  0.12500002  1
  Nd  Nd1  1  0.12500005  0.87499999  0.25000004  1
  Nd  Nd2  1  0.37500002  0.62499999  0.75000001  1
  Nd  Nd3  1  0.74999998  0.12500000  0.37500001  1
  Nd  Nd4  1  0.87500001  0.74999999  0.62500003  1
  Nd  Nd5  1  0.62499999  0.25000000  0.87499998  1
  Nd  Nd6  1  0.34199599  0.00000000  0.99999996  1
  Sn  Sn7  1  0.65800401  0.65800399  0.15800404  1
  Sn  Sn8  1  0.15800400  0.15800400  0.65800398  1
  Sn  Sn9  1  0.00000003  0.49999999  0.34199601  1
  Sn  Sn10  1  0.00000003  0.49999999  0.84199598  1
  Sn  Sn11  1  0.50000000  0.34199600  0.50000001  1
  Sn  Sn12  1  0.50000003  0.84199599  0.50000003  1
  Sn  Sn13  1  0.84199596  0.00000000  0.00000002  1
