# generated using pymatgen
data_K2BiPb
_symmetry_space_group_name_H-M   'P 1'
_cell_length_a   6.42617607
_cell_length_b   9.66428185
_cell_length_c   9.66428185
_cell_angle_alpha   83.65374756
_cell_angle_beta   70.58120728
_cell_angle_gamma   70.58120728
_symmetry_Int_Tables_number   1
_chemical_formula_structural   K2BiPb
_chemical_formula_sum   'K8 Bi4 Pb4'
_cell_volume   533.85075979
_cell_formula_units_Z   4
loop_
 _symmetry_equiv_pos_site_id
 _symmetry_equiv_pos_as_xyz
  1  'x, y, z'
loop_
 _atom_site_type_symbol
 _atom_site_label
 _atom_site_symmetry_multiplicity
 _atom_site_fract_x
 _atom_site_fract_y
 _atom_site_fract_z
 _atom_site_occupancy
  K  K0  1  0.74999998  0.49999998  0.49999993  1
  K  K1  1  0.24999998  0.49999998  0.49999994  1
  K  K2  1  0.72147197  0.86625197  0.70241190  1
  K  K3  1  0.29013700  0.13374800  0.29758797  1
  K  K4  1  0.77852699  0.29758799  0.13374796  1
  K  K5  1  0.20986398  0.70241198  0.86625192  1
  K  K6  1  0.58772398  0.70241198  0.13374794  1
  K  K7  1  0.42388399  0.29758799  0.86625193  1
  Bi  Bi8  1  0.07611600  0.13374800  0.70241196  1
  Bi  Bi9  1  0.91227597  0.86625197  0.29758792  1
  Pb  Pb10  1  0.75000000  0.00000000  -0.00000002  1
  Pb  Pb11  1  0.16179798  0.49999998  0.17640496  1
  Bi  Bi12  1  0.83820199  0.49999998  0.82359491  1
  Bi  Bi13  1  0.33820297  0.82359497  0.49999993  1
  Pb  Pb14  1  0.66179700  0.17640499  0.49999995  1
  Pb  Pb15  1  0.25000000  0.00000000  0.99999995  1
