# generated using pymatgen
data_Ti3Ni5
_symmetry_space_group_name_H-M   'P 1'
_cell_length_a   4.30274010
_cell_length_b   5.61773491
_cell_length_c   10.92235184
_cell_angle_alpha   90.00000000
_cell_angle_beta   90.00000000
_cell_angle_gamma   90.00000000
_symmetry_Int_Tables_number   1
_chemical_formula_structural   Ti3Ni5
_chemical_formula_sum   'Ti6 Ni10'
_cell_volume   264.01130126
_cell_formula_units_Z   2
loop_
 _symmetry_equiv_pos_site_id
 _symmetry_equiv_pos_as_xyz
  1  'x, y, z'
loop_
 _atom_site_type_symbol
 _atom_site_label
 _atom_site_symmetry_multiplicity
 _atom_site_fract_x
 _atom_site_fract_y
 _atom_site_fract_z
 _atom_site_occupancy
  Ti  Ti0  1  0.49999999  0.15630700  0.64551801  1
  Ti  Ti1  1  0.49999999  0.84369301  0.35448201  1
  Ti  Ti2  1  0.49999999  0.65630701  0.85448201  1
  Ti  Ti3  1  0.49999999  0.34369301  0.14551800  1
  Ti  Ti4  1  0.00000000  0.50000001  0.50000001  1
  Ti  Ti5  1  0.00000000  0.00000000  0.00000000  1
  Ni  Ni6  1  0.49999999  0.18272500  0.89271701  1
  Ni  Ni7  1  0.49999999  0.81727501  0.10728300  1
  Ni  Ni8  1  0.49999999  0.68272501  0.60728301  1
  Ni  Ni9  1  0.49999999  0.31727501  0.39271701  1
  Ni  Ni10  1  0.00000000  0.39887501  0.74210601  1
  Ni  Ni11  1  0.00000000  0.60112501  0.25789400  1
  Ni  Ni12  1  0.00000000  0.00000000  0.50000001  1
  Ni  Ni13  1  0.00000000  0.50000001  0.00000000  1
  Ni  Ni14  1  0.00000000  0.10112500  0.24210600  1
  Ni  Ni15  1  0.00000000  0.89887501  0.75789401  1
