# generated using pymatgen
data_PrNdNi4
_symmetry_space_group_name_H-M   'P 1'
_cell_length_a   5.14899206
_cell_length_b   5.19108057
_cell_length_c   5.16017008
_cell_angle_alpha   119.80322266
_cell_angle_beta   90.00000000
_cell_angle_gamma   119.73215485
_symmetry_Int_Tables_number   1
_chemical_formula_structural   PrNdNi4
_chemical_formula_sum   'Pr1 Nd1 Ni4'
_cell_volume   98.20882101
_cell_formula_units_Z   1
loop_
 _symmetry_equiv_pos_site_id
 _symmetry_equiv_pos_as_xyz
  1  'x, y, z'
loop_
 _atom_site_type_symbol
 _atom_site_label
 _atom_site_symmetry_multiplicity
 _atom_site_fract_x
 _atom_site_fract_y
 _atom_site_fract_z
 _atom_site_occupancy
  Nd  Nd0  1  0.87422201  0.74844403  0.12422205  1
  Pr  Pr1  1  0.12577800  0.25155601  0.87577800  1
  Ni  Ni2  1  0.50000001  0.50000002  0.50000002  1
  Ni  Ni3  1  0.00000001  0.50000002  0.50000002  1
  Ni  Ni4  1  0.50000002  1.00000004  1.00000005  1
  Ni  Ni5  1  0.49999999  0.00000000  0.49999999  1
