# generated using pymatgen
data_Be12Fe
_symmetry_space_group_name_H-M   'P 1'
_cell_length_a   4.21303797
_cell_length_b   5.58828878
_cell_length_c   5.58828878
_cell_angle_alpha   81.83101654
_cell_angle_beta   67.85496521
_cell_angle_gamma   67.85496521
_symmetry_Int_Tables_number   1
_chemical_formula_structural   Be12Fe
_chemical_formula_sum   'Be12 Fe1'
_cell_volume   112.87381614
_cell_formula_units_Z   1
loop_
 _symmetry_equiv_pos_site_id
 _symmetry_equiv_pos_as_xyz
  1  'x, y, z'
loop_
 _atom_site_type_symbol
 _atom_site_label
 _atom_site_symmetry_multiplicity
 _atom_site_fract_x
 _atom_site_fract_y
 _atom_site_fract_z
 _atom_site_occupancy
  Be  Be0  1  0.71699001  0.78301002  0.78301004  1
  Be  Be1  1  0.00000000  0.35240601  0.64759403  1
  Be  Be2  1  0.64759400  0.35240601  0.35240602  1
  Be  Be3  1  0.35240600  0.64759402  0.64759403  1
  Be  Be4  1  0.50000000  0.21699001  0.78301003  1
  Be  Be5  1  0.50000000  0.50000001  0.00000001  1
  Be  Be6  1  0.28301000  0.21699001  0.21699001  1
  Be  Be7  1  0.00000000  0.64759402  0.35240602  1
  Be  Be8  1  0.50000001  0.78301002  0.21699002  1
  Be  Be9  1  0.00000000  0.00000000  0.50000002  1
  Be  Be10  1  0.50000001  1.00000003  0.50000003  1
  Be  Be11  1  0.00000000  0.50000001  1.00000004  1
  Fe  Fe12  1  0.00000000  0.00000000  0.00000000  1
