# generated using pymatgen
data_Li6CrO11
_symmetry_space_group_name_H-M   'P 1'
_cell_length_a   3.22821593
_cell_length_b   6.96456718
_cell_length_c   10.97636223
_cell_angle_alpha   108.29537964
_cell_angle_beta   90.00000000
_cell_angle_gamma   90.00000000
_symmetry_Int_Tables_number   1
_chemical_formula_structural   Li6CrO11
_chemical_formula_sum   'Li6 Cr1 O11'
_cell_volume   234.30826167
_cell_formula_units_Z   1
loop_
 _symmetry_equiv_pos_site_id
 _symmetry_equiv_pos_as_xyz
  1  'x, y, z'
loop_
 _atom_site_type_symbol
 _atom_site_label
 _atom_site_symmetry_multiplicity
 _atom_site_fract_x
 _atom_site_fract_y
 _atom_site_fract_z
 _atom_site_occupancy
  Cr  Cr0  1  1.00000002  0.98038999  0.99375303  1
  Li  Li1  1  0.50000001  0.16547900  0.33032500  1
  Li  Li2  1  0.50000001  0.52272100  0.00583602  1
  Li  Li3  1  -0.00000000  0.33469000  0.66948601  1
  Li  Li4  1  1.00000002  0.67490099  0.35052102  1
  Li  Li5  1  0.50000001  0.82770499  0.65391703  1
  O  O6  1  -0.00000000  0.69218099  0.00214902  1
  Li  Li7  1  0.50000001  0.73380099  0.46729702  1
  O  O8  1  0.50000001  0.06709700  0.12405500  1
  O  O9  1  1.00000002  0.96853499  0.32910303  1
  O  O10  1  1.00000002  0.30928800  0.00204601  1
  O  O11  1  1.00000002  0.63919099  0.66687502  1
  O  O12  1  0.50000001  0.26831600  0.53587801  1
  O  O13  1  0.50000001  0.60585899  0.21807602  1
  O  O14  1  0.50000001  0.39225500  0.79943901  1
  O  O15  1  1.00000002  0.02689100  0.66576100  1
  O  O16  1  1.00000002  0.36089100  0.32971601  1
  O  O17  1  0.50000001  0.92980999  0.85576803  1
