# generated using pymatgen
data_Ca5Mg
_symmetry_space_group_name_H-M   'P 1'
_cell_length_a   3.25720406
_cell_length_b   3.25720358
_cell_length_c   15.99347115
_cell_angle_alpha   90.00000000
_cell_angle_beta   90.00000000
_cell_angle_gamma   120.00000000
_symmetry_Int_Tables_number   1
_chemical_formula_structural   Ca5Mg
_chemical_formula_sum   'Ca5 Mg1'
_cell_volume   146.94784891
_cell_formula_units_Z   1
loop_
 _symmetry_equiv_pos_site_id
 _symmetry_equiv_pos_as_xyz
  1  'x, y, z'
loop_
 _atom_site_type_symbol
 _atom_site_label
 _atom_site_symmetry_multiplicity
 _atom_site_fract_x
 _atom_site_fract_y
 _atom_site_fract_z
 _atom_site_occupancy
  Ca  Ca0  1  0.33333328  0.66666666  0.50000000  1
  Ca  Ca1  1  0.00000000  0.00000000  0.32265100  1
  Ca  Ca2  1  0.33333328  0.66666666  0.16135100  1
  Ca  Ca3  1  0.00000000  0.00000000  0.00000000  1
  Ca  Ca4  1  0.33333328  0.66666666  0.83864899  1
  Mg  Mg5  1  0.00000000  0.00000000  0.67734899  1
