# generated using pymatgen
data_K4MnOF6
_symmetry_space_group_name_H-M   'P 1'
_cell_length_a   6.20148182
_cell_length_b   7.00771332
_cell_length_c   7.00771332
_cell_angle_alpha   111.15460205
_cell_angle_beta   90.00000000
_cell_angle_gamma   90.00000000
_symmetry_Int_Tables_number   1
_chemical_formula_structural   K4MnOF6
_chemical_formula_sum   'K4 Mn1 O1 F6'
_cell_volume   284.01953667
_cell_formula_units_Z   1
loop_
 _symmetry_equiv_pos_site_id
 _symmetry_equiv_pos_as_xyz
  1  'x, y, z'
loop_
 _atom_site_type_symbol
 _atom_site_label
 _atom_site_symmetry_multiplicity
 _atom_site_fract_x
 _atom_site_fract_y
 _atom_site_fract_z
 _atom_site_occupancy
  K  K0  1  0.75000002  0.48303599  0.80867496  1
  K  K1  1  0.75000002  0.80867498  0.48303594  1
  K  K2  1  0.25000001  0.51696398  0.19132496  1
  K  K3  1  0.25000001  0.19132499  0.51696398  1
  Mn  Mn4  1  0.25000001  0.91165797  0.91165793  1
  F  F5  1  0.75000002  0.08834200  0.08834199  1
  F  F6  1  0.25000001  0.65012998  0.65012995  1
  O  O7  1  0.75000002  0.34986999  0.34986997  1
  F  F8  1  0.50000001  0.12455800  0.87544199  1
  F  F9  1  -0.00000000  0.87544197  0.12455794  1
  F  F10  1  -0.00000000  0.12455800  0.87544199  1
  F  F11  1  0.50000001  0.87544197  0.12455794  1
