# generated using pymatgen
data_Li4Al2Co3
_symmetry_space_group_name_H-M   'P 1'
_cell_length_a   5.41457987
_cell_length_b   5.41457987
_cell_length_c   5.41457987
_cell_angle_alpha   60.00000000
_cell_angle_beta   60.00000000
_cell_angle_gamma   60.00000000
_symmetry_Int_Tables_number   1
_chemical_formula_structural   Li4Al2Co3
_chemical_formula_sum   'Li4 Al2 Co3'
_cell_volume   112.24817657
_cell_formula_units_Z   1
loop_
 _symmetry_equiv_pos_site_id
 _symmetry_equiv_pos_as_xyz
  1  'x, y, z'
loop_
 _atom_site_type_symbol
 _atom_site_label
 _atom_site_symmetry_multiplicity
 _atom_site_fract_x
 _atom_site_fract_y
 _atom_site_fract_z
 _atom_site_occupancy
  Li  Li0  1  0.24999999  0.24999999  0.24999999  1
  Li  Li1  1  0.74999997  0.74999997  0.74999997  1
  Li  Li2  1  0.77416597  0.77416597  0.22583399  1
  Al  Al3  1  0.22583399  0.77416597  0.77416597  1
  Li  Li4  1  0.22583399  0.77416597  0.22583399  1
  Co  Co5  1  0.22583399  0.22583399  0.77416597  1
  Co  Co6  1  0.77416597  0.22583399  0.22583399  1
  Co  Co7  1  0.77416597  0.22583399  0.77416597  1
  Al  Al8  1  0.00000000  0.00000000  0.00000000  1
