# generated using pymatgen
data_Hf5Zr2Ga9
_symmetry_space_group_name_H-M   'P 1'
_cell_length_a   5.52209997
_cell_length_b   8.11752415
_cell_length_c   8.11752319
_cell_angle_alpha   120.00000000
_cell_angle_beta   90.00000000
_cell_angle_gamma   90.00000000
_symmetry_Int_Tables_number   1
_chemical_formula_structural   Hf5Zr2Ga9
_chemical_formula_sum   'Hf5 Zr2 Ga9'
_cell_volume   315.12439425
_cell_formula_units_Z   1
loop_
 _symmetry_equiv_pos_site_id
 _symmetry_equiv_pos_as_xyz
  1  'x, y, z'
loop_
 _atom_site_type_symbol
 _atom_site_label
 _atom_site_symmetry_multiplicity
 _atom_site_fract_x
 _atom_site_fract_y
 _atom_site_fract_z
 _atom_site_occupancy
  Hf  Hf0  1  -0.00000000  0.33333332  0.66666664  1
  Zr  Zr1  1  1.00000001  0.66666663  0.33333328  1
  Zr  Zr2  1  0.50000000  0.66666663  0.33333328  1
  Ga  Ga3  1  0.50000000  0.33333332  0.66666664  1
  Hf  Hf4  1  0.25000000  0.24379999  -0.00000002  1
  Hf  Hf5  1  0.25000000  0.75619996  0.75619994  1
  Hf  Hf6  1  0.25000000  0.00000000  0.24380000  1
  Hf  Hf7  1  0.75000000  0.75619996  -0.00000005  1
  Ga  Ga8  1  0.75000000  0.24379999  0.24379998  1
  Ga  Ga9  1  0.75000000  0.00000000  0.75619999  1
  Ga  Ga10  1  0.25000000  0.60422197  0.99999995  1
  Ga  Ga11  1  0.25000000  0.39577798  0.39577797  1
  Ga  Ga12  1  0.25000000  0.00000000  0.60422200  1
  Ga  Ga13  1  0.75000000  0.39577798  -0.00000003  1
  Ga  Ga14  1  0.75000000  0.60422197  0.60422195  1
  Ga  Ga15  1  0.75000000  0.00000000  0.39577800  1
