# generated using pymatgen
data_Nd6Zr2Sn7Pt2O
_symmetry_space_group_name_H-M   'P 1'
_cell_length_a   6.55965996
_cell_length_b   8.27064228
_cell_length_c   8.27064133
_cell_angle_alpha   120.00000000
_cell_angle_beta   90.00000000
_cell_angle_gamma   90.00000000
_symmetry_Int_Tables_number   1
_chemical_formula_structural   Nd6Zr2Sn7Pt2O
_chemical_formula_sum   'Nd6 Zr2 Sn7 Pt2 O1'
_cell_volume   388.58889293
_cell_formula_units_Z   1
loop_
 _symmetry_equiv_pos_site_id
 _symmetry_equiv_pos_as_xyz
  1  'x, y, z'
loop_
 _atom_site_type_symbol
 _atom_site_label
 _atom_site_symmetry_multiplicity
 _atom_site_fract_x
 _atom_site_fract_y
 _atom_site_fract_z
 _atom_site_occupancy
  Nd  Nd0  1  0.50000000  0.66666662  0.33333327  1
  Nd  Nd1  1  0.50000000  0.33333331  0.66666662  1
  Nd  Nd2  1  -0.00000000  0.33333331  0.66666662  1
  Nd  Nd3  1  -0.00000000  0.66666662  0.33333327  1
  Nd  Nd4  1  0.75000000  0.00000000  0.75106998  1
  Nd  Nd5  1  0.75000000  0.75106995  -0.00000006  1
  Zr  Zr6  1  0.75000000  0.24892998  0.24892997  1
  Zr  Zr7  1  0.25000000  0.00000000  0.24892999  1
  Sn  Sn8  1  0.25000000  0.24892998  0.99999995  1
  Sn  Sn9  1  0.25000000  0.75106995  0.75106992  1
  Sn  Sn10  1  0.75000000  0.00000000  0.39091099  1
  Sn  Sn11  1  0.75000000  0.39091097  -0.00000003  1
  Sn  Sn12  1  0.75000000  0.60908896  0.60908894  1
  Sn  Sn13  1  0.25000000  0.00000000  0.60908898  1
  O  O14  1  0.25000000  0.60908896  0.99999992  1
  Sn  Sn15  1  0.25000000  0.39091097  0.39091096  1
  Pt  Pt16  1  0.50000000  0.00000000  -0.00000000  1
  Pt  Pt17  1  0.00000000  0.00000000  0.00000000  1
