# generated using pymatgen
data_CeGa3
_symmetry_space_group_name_H-M   'P 1'
_cell_length_a   5.64783192
_cell_length_b   5.64783096
_cell_length_c   8.83423710
_cell_angle_alpha   90.00000000
_cell_angle_beta   90.00000000
_cell_angle_gamma   120.00000763
_symmetry_Int_Tables_number   1
_chemical_formula_structural   CeGa3
_chemical_formula_sum   'Ce3 Ga9'
_cell_volume   244.04117234
_cell_formula_units_Z   3
loop_
 _symmetry_equiv_pos_site_id
 _symmetry_equiv_pos_as_xyz
  1  'x, y, z'
loop_
 _atom_site_type_symbol
 _atom_site_label
 _atom_site_symmetry_multiplicity
 _atom_site_fract_x
 _atom_site_fract_y
 _atom_site_fract_z
 _atom_site_occupancy
  Ce  Ce0  1  0.66666669  0.33333335  0.94151199  1
  Ce  Ce1  1  0.33333337  0.66666671  0.44151200  1
  Ce  Ce2  1  0.33333337  0.66666671  0.05848800  1
  Ga  Ga3  1  0.66666669  0.33333335  0.55848799  1
  Ga  Ga4  1  0.00000000  0.00000000  0.00000000  1
  Ga  Ga5  1  0.00000000  0.00000000  0.49999999  1
  Ga  Ga6  1  0.16703505  0.83296505  0.74999999  1
  Ga  Ga7  1  0.83296505  0.66593004  0.25000000  1
  Ga  Ga8  1  0.33407001  0.16703501  0.25000000  1
  Ga  Ga9  1  0.66593005  0.83296505  0.74999999  1
  Ga  Ga10  1  0.16703502  0.33407002  0.74999999  1
  Ga  Ga11  1  0.83296502  0.16703501  0.25000000  1
