# generated using pymatgen
data_LiCu3Se2
_symmetry_space_group_name_H-M   'P 1'
_cell_length_a   4.02161217
_cell_length_b   4.89582396
_cell_length_c   4.89582396
_cell_angle_alpha   118.84796143
_cell_angle_beta   90.00000000
_cell_angle_gamma   90.00000000
_symmetry_Int_Tables_number   1
_chemical_formula_structural   LiCu3Se2
_chemical_formula_sum   'Li1 Cu3 Se2'
_cell_volume   84.43214794
_cell_formula_units_Z   1
loop_
 _symmetry_equiv_pos_site_id
 _symmetry_equiv_pos_as_xyz
  1  'x, y, z'
loop_
 _atom_site_type_symbol
 _atom_site_label
 _atom_site_symmetry_multiplicity
 _atom_site_fract_x
 _atom_site_fract_y
 _atom_site_fract_z
 _atom_site_occupancy
  Li  Li0  1  -0.00000000  0.49999997  0.49999996  1
  Cu  Cu1  1  0.49999998  0.00000000  -0.00000000  1
  Cu  Cu2  1  0.99999996  0.83350195  0.16649796  1
  Cu  Cu3  1  -0.00000000  0.16649799  0.83350196  1
  Se  Se4  1  0.49999998  0.49999997  -0.00000002  1
  Se  Se5  1  0.49999998  0.00000000  0.49999998  1
