# generated using pymatgen
data_CaMgPd
_symmetry_space_group_name_H-M   'P 1'
_cell_length_a   4.41139984
_cell_length_b   7.32808495
_cell_length_c   8.52922535
_cell_angle_alpha   90.00000000
_cell_angle_beta   90.00000000
_cell_angle_gamma   90.00000000
_symmetry_Int_Tables_number   1
_chemical_formula_structural   CaMgPd
_chemical_formula_sum   'Ca4 Mg4 Pd4'
_cell_volume   275.72522968
_cell_formula_units_Z   4
loop_
 _symmetry_equiv_pos_site_id
 _symmetry_equiv_pos_as_xyz
  1  'x, y, z'
loop_
 _atom_site_type_symbol
 _atom_site_label
 _atom_site_symmetry_multiplicity
 _atom_site_fract_x
 _atom_site_fract_y
 _atom_site_fract_z
 _atom_site_occupancy
  Ca  Ca0  1  0.25000001  0.02974600  0.32227699  1
  Ca  Ca1  1  0.25000001  0.52974600  0.17772299  1
  Ca  Ca2  1  0.75000003  0.97025401  0.67772297  1
  Ca  Ca3  1  0.75000003  0.47025400  0.82227697  1
  Mg  Mg4  1  0.75000003  0.35053300  0.43463198  1
  Mg  Mg5  1  0.25000001  0.14946700  0.93463196  1
  Mg  Mg6  1  0.75000003  0.85053301  0.06536800  1
  Mg  Mg7  1  0.25000001  0.64946700  0.56536798  1
  Pd  Pd8  1  0.75000003  0.23241200  0.12384399  1
  Pd  Pd9  1  0.75000003  0.73241201  0.37615598  1
  Pd  Pd10  1  0.25000001  0.76758801  0.87615596  1
  Pd  Pd11  1  0.25000001  0.26758800  0.62384397  1
