# generated using pymatgen
data_VSbMo2S5O9
_symmetry_space_group_name_H-M   'P 1'
_cell_length_a   7.22766781
_cell_length_b   7.22766781
_cell_length_c   7.22766781
_cell_angle_alpha   60.00000000
_cell_angle_beta   60.00000000
_cell_angle_gamma   60.00000000
_symmetry_Int_Tables_number   1
_chemical_formula_structural   VSbMo2S5O9
_chemical_formula_sum   'V1 Sb1 Mo2 S5 O9'
_cell_volume   266.98050689
_cell_formula_units_Z   1
loop_
 _symmetry_equiv_pos_site_id
 _symmetry_equiv_pos_as_xyz
  1  'x, y, z'
loop_
 _atom_site_type_symbol
 _atom_site_label
 _atom_site_symmetry_multiplicity
 _atom_site_fract_x
 _atom_site_fract_y
 _atom_site_fract_z
 _atom_site_occupancy
  V  V0  1  0.00000000  0.00000000  0.00000000  1
  Sb  Sb1  1  0.75000001  0.75000001  0.75000001  1
  Mo  Mo2  1  0.37500001  0.37500001  0.87500001  1
  Mo  Mo3  1  0.87500001  0.37500001  0.37500001  1
  S  S4  1  0.37500001  0.37500001  0.37500001  1
  S  S5  1  0.37500001  0.87500001  0.37500001  1
  S  S6  1  0.05933200  0.44066801  0.44066801  1
  S  S7  1  0.30933200  0.69066801  0.69066801  1
  O  O8  1  0.05933200  0.05933200  0.44066801  1
  S  S9  1  0.05933200  0.44066801  0.05933200  1
  O  O10  1  0.44066801  0.05933200  0.44066801  1
  O  O11  1  0.44066801  0.44066801  0.05933200  1
  O  O12  1  0.44066801  0.05933200  0.05933200  1
  O  O13  1  0.30933200  0.69066801  0.30933200  1
  O  O14  1  0.69066801  0.30933200  0.69066801  1
  O  O15  1  0.69066801  0.30933200  0.30933200  1
  O  O16  1  0.30933200  0.30933200  0.69066801  1
  O  O17  1  0.69066801  0.69066801  0.30933200  1
