# generated using pymatgen
data_Al2Fe6(BRu3)3
_symmetry_space_group_name_H-M   'P 1'
_cell_length_a   5.65095806
_cell_length_b   5.65095806
_cell_length_c   8.94389534
_cell_angle_alpha   90.00000000
_cell_angle_beta   90.00000000
_cell_angle_gamma   90.00000000
_symmetry_Int_Tables_number   1
_chemical_formula_structural   Al2Fe6(BRu3)3
_chemical_formula_sum   'Al2 Fe6 B3 Ru9'
_cell_volume   285.60833463
_cell_formula_units_Z   1
loop_
 _symmetry_equiv_pos_site_id
 _symmetry_equiv_pos_as_xyz
  1  'x, y, z'
loop_
 _atom_site_type_symbol
 _atom_site_label
 _atom_site_symmetry_multiplicity
 _atom_site_fract_x
 _atom_site_fract_y
 _atom_site_fract_z
 _atom_site_occupancy
  Al  Al0  1  0.83152699  0.83152699  0.74999997  1
  Al  Al1  1  0.83152699  0.16847300  0.24999999  1
  Fe  Fe2  1  0.16847300  0.83152699  0.24999999  1
  Fe  Fe3  1  0.16847300  0.16847300  0.74999997  1
  Fe  Fe4  1  0.20604600  0.64402799  0.59075898  1
  Fe  Fe5  1  0.79395399  0.35597200  0.59075898  1
  Fe  Fe6  1  0.64402799  0.79395399  0.40924098  1
  Fe  Fe7  1  0.35597200  0.20604600  0.40924098  1
  Ru  Ru8  1  0.20604600  0.35597200  0.09075900  1
  Ru  Ru9  1  0.35597200  0.79395399  0.90924097  1
  Ru  Ru10  1  0.64402799  0.20604600  0.90924097  1
  Ru  Ru11  1  0.79395399  0.64402799  0.09075900  1
  Ru  Ru12  1  0.00000000  0.00000000  0.49999998  1
  Ru  Ru13  1  0.00000000  0.00000000  0.00000000  1
  B  B14  1  0.49999999  0.49999999  0.74999997  1
  Ru  Ru15  1  0.49999999  0.49999999  0.24999999  1
  B  B16  1  0.00000000  0.49999999  0.87186097  1
  Ru  Ru17  1  0.49999999  0.00000000  0.12813900  1
  B  B18  1  0.49999999  0.00000000  0.62813898  1
  Ru  Ru19  1  0.00000000  0.49999999  0.37186099  1
