# generated using pymatgen
data_TaNb3S4
_symmetry_space_group_name_H-M   'P 1'
_cell_length_a   7.06293297
_cell_length_b   7.10019398
_cell_length_c   7.12809896
_cell_angle_alpha   92.59676361
_cell_angle_beta   91.05286407
_cell_angle_gamma   100.62583160
_symmetry_Int_Tables_number   1
_chemical_formula_structural   TaNb3S4
_chemical_formula_sum   'Ta2 Nb6 S8'
_cell_volume   350.84080585
_cell_formula_units_Z   2
loop_
 _symmetry_equiv_pos_site_id
 _symmetry_equiv_pos_as_xyz
  1  'x, y, z'
loop_
 _atom_site_type_symbol
 _atom_site_label
 _atom_site_symmetry_multiplicity
 _atom_site_fract_x
 _atom_site_fract_y
 _atom_site_fract_z
 _atom_site_occupancy
  Nb  Nb0  1  0.90746197  0.66903299  0.94445001  1
  Nb  Nb1  1  0.09253798  0.33096700  0.05555000  1
  Nb  Nb2  1  0.25037295  0.89360399  0.55596800  1
  Ta  Ta3  1  0.74962700  0.10639600  0.44403201  1
  Ta  Ta4  1  0.53804796  0.74401399  0.40988601  1
  Nb  Nb5  1  0.46195199  0.25598600  0.59011400  1
  Nb  Nb6  1  0.58801495  0.95330099  0.74950601  1
  Nb  Nb7  1  0.41198500  0.04669900  0.25049400  1
  S  S8  1  0.78594799  0.29390900  0.76603000  1
  S  S9  1  0.21405196  0.70609099  0.23397001  1
  S  S10  1  0.70141695  0.91194399  0.12162103  1
  S  S11  1  0.29858300  0.08805600  0.87837899  1
  S  S12  1  0.85622196  0.80425999  0.58940802  1
  S  S13  1  0.14377799  0.19574000  0.41059200  1
  S  S14  1  0.37895497  0.61287099  0.71953900  1
  S  S15  1  0.62104498  0.38712900  0.28046101  1
