# generated using pymatgen
data_Ce2MgGa6
_symmetry_space_group_name_H-M   'P 1'
_cell_length_a   4.96796989
_cell_length_b   4.96796989
_cell_length_c   11.22401428
_cell_angle_alpha   90.00000000
_cell_angle_beta   90.00000000
_cell_angle_gamma   120.00000000
_symmetry_Int_Tables_number   1
_chemical_formula_structural   Ce2MgGa6
_chemical_formula_sum   'Ce2 Mg1 Ga6'
_cell_volume   239.90359340
_cell_formula_units_Z   1
loop_
 _symmetry_equiv_pos_site_id
 _symmetry_equiv_pos_as_xyz
  1  'x, y, z'
loop_
 _atom_site_type_symbol
 _atom_site_label
 _atom_site_symmetry_multiplicity
 _atom_site_fract_x
 _atom_site_fract_y
 _atom_site_fract_z
 _atom_site_occupancy
  Ce  Ce0  1  0.33333332  0.66666665  0.17033200  1
  Ce  Ce1  1  0.33333332  0.66666665  0.50224499  1
  Mg  Mg2  1  0.33333332  0.66666665  0.83414498  1
  Ga  Ga3  1  0.66666667  0.33333332  0.00322800  1
  Ga  Ga4  1  0.00000000  0.00000000  0.30970099  1
  Ga  Ga5  1  0.00000000  0.00000000  0.69828498  1
  Ga  Ga6  1  0.66666667  0.33333332  0.35090299  1
  Ga  Ga7  1  0.66666667  0.33333332  0.65248198  1
  Ga  Ga8  1  0.00000000  0.00000000  0.00077800  1
