# generated using pymatgen
data_BaLiNdSm(Ni2O5)2
_symmetry_space_group_name_H-M   'P 1'
_cell_length_a   5.53324795
_cell_length_b   5.53324795
_cell_length_c   8.64367771
_cell_angle_alpha   108.66744995
_cell_angle_beta   108.66744995
_cell_angle_gamma   90.00000000
_symmetry_Int_Tables_number   1
_chemical_formula_structural   BaLiNdSm(Ni2O5)2
_chemical_formula_sum   'Ba1 Li1 Nd1 Sm1 Ni4 O10'
_cell_volume   235.97764160
_cell_formula_units_Z   1
loop_
 _symmetry_equiv_pos_site_id
 _symmetry_equiv_pos_as_xyz
  1  'x, y, z'
loop_
 _atom_site_type_symbol
 _atom_site_label
 _atom_site_symmetry_multiplicity
 _atom_site_fract_x
 _atom_site_fract_y
 _atom_site_fract_z
 _atom_site_occupancy
  Li  Li0  1  0.99876799  0.49876800  0.99753601  1
  Ba  Ba1  1  0.49876798  0.99876800  0.99753601  1
  Nd  Nd2  1  0.24828998  0.74829000  0.49658000  1
  Sm  Sm3  1  0.74828999  0.24829000  0.49658000  1
  Ni  Ni4  1  0.86887598  0.86887600  0.73775199  1
  Ni  Ni5  1  0.13512700  0.13512700  0.27025401  1
  Ni  Ni6  1  0.62540598  0.62540600  0.25081198  1
  Ni  Ni7  1  0.35623099  0.35623100  0.71246202  1
  O  O8  1  0.59728400  0.08982700  0.68711102  1
  O  O9  1  0.08982699  0.59728400  0.68711101  1
  O  O10  1  0.59728399  0.59728400  0.68711100  1
  O  O11  1  0.08982700  0.08982700  0.68711103  1
  O  O12  1  0.41258798  0.90572700  0.31831498  1
  O  O13  1  0.90572699  0.41258800  0.31831499  1
  O  O14  1  0.41258799  0.41258800  0.31831500  1
  O  O15  1  0.90572698  0.90572700  0.31831497  1
  O  O16  1  0.50854899  0.50854900  0.01709798  1
  O  O17  1  0.00084100  0.00084100  0.00168200  1
