# generated using pymatgen
data_Li9FeO10
_symmetry_space_group_name_H-M   'P 1'
_cell_length_a   5.26470518
_cell_length_b   5.51250696
_cell_length_c   7.89198446
_cell_angle_alpha   103.60675049
_cell_angle_beta   104.37367249
_cell_angle_gamma   104.07605743
_symmetry_Int_Tables_number   1
_chemical_formula_structural   Li9FeO10
_chemical_formula_sum   'Li9 Fe1 O10'
_cell_volume   204.27792482
_cell_formula_units_Z   1
loop_
 _symmetry_equiv_pos_site_id
 _symmetry_equiv_pos_as_xyz
  1  'x, y, z'
loop_
 _atom_site_type_symbol
 _atom_site_label
 _atom_site_symmetry_multiplicity
 _atom_site_fract_x
 _atom_site_fract_y
 _atom_site_fract_z
 _atom_site_occupancy
  Li  Li0  1  0.22399004  0.88998602  0.38310302  1
  Li  Li1  1  0.41949000  0.29933501  0.80747803  1
  Li  Li2  1  0.50000001  0.50000001  0.50000002  1
  Li  Li3  1  0.58051002  0.70066501  0.19252202  1
  Li  Li4  1  0.77600998  0.11001400  0.61689702  1
  Li  Li5  1  0.00000002  0.50000001  0.00000001  1
  Li  Li6  1  0.70823002  0.88808302  0.89840504  1
  Li  Li7  1  0.29177000  0.11191700  0.10159501  1
  Li  Li8  1  0.10911403  0.69468201  0.70089203  1
  Fe  Fe9  1  0.89088599  0.30531801  0.29910802  1
  O  O10  1  0.05695100  0.03078500  0.82979202  1
  O  O11  1  0.35708202  0.66781301  0.92708903  1
  O  O12  1  0.13789301  0.33759701  0.55053002  1
  O  O13  1  0.21294202  0.52109201  0.24957402  1
  O  O14  1  0.44582103  0.88996602  0.65905903  1
  O  O15  1  0.55417899  0.11003400  0.34094101  1
  O  O16  1  0.78705800  0.47890801  0.75042603  1
  O  O17  1  0.86210701  0.66240301  0.44947003  1
  O  O18  1  0.64291800  0.33218701  0.07291101  1
  O  O19  1  0.94304902  0.96921502  0.17020803  1
