# generated using pymatgen
data_Ce2Fe3Ir2Ru3
_symmetry_space_group_name_H-M   'P 1'
_cell_length_a   5.57838202
_cell_length_b   7.80159664
_cell_length_c   7.80159664
_cell_angle_alpha   76.31819916
_cell_angle_beta   69.05231476
_cell_angle_gamma   69.05231476
_symmetry_Int_Tables_number   1
_chemical_formula_structural   Ce2Fe3Ir2Ru3
_chemical_formula_sum   'Ce4 Fe6 Ru6 Ir4'
_cell_volume   293.82086094
_cell_formula_units_Z   2
loop_
 _symmetry_equiv_pos_site_id
 _symmetry_equiv_pos_as_xyz
  1  'x, y, z'
loop_
 _atom_site_type_symbol
 _atom_site_label
 _atom_site_symmetry_multiplicity
 _atom_site_fract_x
 _atom_site_fract_y
 _atom_site_fract_z
 _atom_site_occupancy
  Ce  Ce0  1  0.63018400  0.60611800  0.13351404  1
  Ce  Ce1  1  0.36981600  0.39388200  0.86648603  1
  Ce  Ce2  1  0.13018400  0.13351400  0.60611801  1
  Ce  Ce3  1  0.86981600  0.86648600  0.39388206  1
  Fe  Fe4  1  0.25000000  0.50000000  0.50000003  1
  Fe  Fe5  1  0.75000000  0.50000000  0.50000004  1
  Fe  Fe6  1  0.48622100  0.76377900  0.76377905  1
  Fe  Fe7  1  0.01377900  0.23622100  0.23622101  1
  Fe  Fe8  1  0.51377900  0.23622100  0.23622102  1
  Fe  Fe9  1  0.98622100  0.76377900  0.76377906  1
  Ru  Ru10  1  0.89115899  0.26036600  0.95731604  1
  Ru  Ru11  1  0.10884101  0.73963400  0.04268403  1
  Ru  Ru12  1  0.39115901  0.95731600  0.26036605  1
  Ir  Ir13  1  0.60884099  0.04268400  0.73963402  1
  Ir  Ir14  1  0.25000000  0.00000000  0.00000000  1
  Ir  Ir15  1  0.74999999  0.00000000  0.00000001  1
  Ru  Ru16  1  0.86611900  0.51642800  0.75133404  1
  Ru  Ru17  1  0.13388101  0.48357200  0.24866602  1
  Ru  Ru18  1  0.36611901  0.75133400  0.51642804  1
  Ir  Ir19  1  0.63388100  0.24866600  0.48357203  1
