# generated using pymatgen
data_Ce3AlGe8
_symmetry_space_group_name_H-M   'P 1'
_cell_length_a   4.49507713
_cell_length_b   7.18648386
_cell_length_c   7.42084599
_cell_angle_alpha   90.00000000
_cell_angle_beta   90.00000000
_cell_angle_gamma   90.00000000
_symmetry_Int_Tables_number   1
_chemical_formula_structural   Ce3AlGe8
_chemical_formula_sum   'Ce3 Al1 Ge8'
_cell_volume   239.72151910
_cell_formula_units_Z   1
loop_
 _symmetry_equiv_pos_site_id
 _symmetry_equiv_pos_as_xyz
  1  'x, y, z'
loop_
 _atom_site_type_symbol
 _atom_site_label
 _atom_site_symmetry_multiplicity
 _atom_site_fract_x
 _atom_site_fract_y
 _atom_site_fract_z
 _atom_site_occupancy
  Ce  Ce0  1  0.74999998  0.97647902  0.18492400  1
  Ce  Ce1  1  0.74999998  0.47647901  0.31507600  1
  Ce  Ce2  1  0.24999999  0.52352101  0.68492400  1
  Al  Al3  1  0.24999999  0.02352100  0.81507600  1
  Ge  Ge4  1  0.74999998  0.20082100  0.58506300  1
  Ge  Ge5  1  0.24999999  0.29917901  0.08506300  1
  Ge  Ge6  1  0.24999999  0.79917902  0.41493700  1
  Ge  Ge7  1  0.74999998  0.70082101  0.91493700  1
  Ge  Ge8  1  0.74999998  0.32325601  0.91134600  1
  Ge  Ge9  1  0.24999999  0.67674401  0.08865400  1
  Ge  Ge10  1  0.24999999  0.17674400  0.41134600  1
  Ge  Ge11  1  0.74999998  0.82325602  0.58865400  1
