# generated using pymatgen
data_Hf6ZrNi12
_symmetry_space_group_name_H-M   'P 1'
_cell_length_a   6.77890015
_cell_length_b   6.77890015
_cell_length_c   6.77890015
_cell_angle_alpha   82.45922852
_cell_angle_beta   82.45922852
_cell_angle_gamma   82.45922852
_symmetry_Int_Tables_number   1
_chemical_formula_structural   Hf6ZrNi12
_chemical_formula_sum   'Hf6 Zr1 Ni12'
_cell_volume   304.08225647
_cell_formula_units_Z   1
loop_
 _symmetry_equiv_pos_site_id
 _symmetry_equiv_pos_as_xyz
  1  'x, y, z'
loop_
 _atom_site_type_symbol
 _atom_site_label
 _atom_site_symmetry_multiplicity
 _atom_site_fract_x
 _atom_site_fract_y
 _atom_site_fract_z
 _atom_site_occupancy
  Hf  Hf0  1  0.33475900  0.33475901  0.33475898  1
  Zr  Zr1  1  0.66524100  0.66524102  0.66524095  1
  Hf  Hf2  1  0.64742800  0.64742802  0.16221296  1
  Hf  Hf3  1  0.64742801  0.16221301  0.64742796  1
  Hf  Hf4  1  0.89952800  0.89952803  0.89952793  1
  Ni  Ni5  1  0.10047200  0.10047200  0.10047199  1
  Hf  Hf6  1  0.00000000  0.00000000  0.49999999  1
  Hf  Hf7  1  0.50000002  0.00000000  -0.00000001  1
  Ni  Ni8  1  -0.00000002  0.50000002  -0.00000001  1
  Ni  Ni9  1  0.29902899  0.70097102  -0.00000002  1
  Ni  Ni10  1  -0.00000001  0.29902901  0.70097098  1
  Ni  Ni11  1  0.70097102  0.00000000  0.29902897  1
  Ni  Ni12  1  0.70097101  0.29902901  -0.00000002  1
  Ni  Ni13  1  -0.00000002  0.70097102  0.29902898  1
  Ni  Ni14  1  0.29902901  0.00000000  0.70097097  1
  Ni  Ni15  1  0.35257198  0.83778703  0.35257196  1
  Ni  Ni16  1  0.35257200  0.35257201  0.83778696  1
  Ni  Ni17  1  0.83778701  0.35257201  0.35257196  1
  Ni  Ni18  1  0.16221298  0.64742802  0.64742796  1
