# generated using pymatgen
data_Mg12GaCu2Ni
_symmetry_space_group_name_H-M   'P 1'
_cell_length_a   4.19089794
_cell_length_b   6.81529284
_cell_length_c   13.67793655
_cell_angle_alpha   90.00000000
_cell_angle_beta   90.00000000
_cell_angle_gamma   90.00000000
_symmetry_Int_Tables_number   1
_chemical_formula_structural   Mg12GaCu2Ni
_chemical_formula_sum   'Mg12 Ga1 Cu2 Ni1'
_cell_volume   390.67191450
_cell_formula_units_Z   1
loop_
 _symmetry_equiv_pos_site_id
 _symmetry_equiv_pos_as_xyz
  1  'x, y, z'
loop_
 _atom_site_type_symbol
 _atom_site_label
 _atom_site_symmetry_multiplicity
 _atom_site_fract_x
 _atom_site_fract_y
 _atom_site_fract_z
 _atom_site_occupancy
  Mg  Mg0  1  0.27225700  0.71034802  0.62883902  1
  Mg  Mg1  1  0.77225701  0.78965202  0.37116101  1
  Mg  Mg2  1  0.72774301  0.21034801  0.87116103  1
  Mg  Mg3  1  0.22774300  0.28965201  0.12883900  1
  Mg  Mg4  1  0.49920701  0.70581302  0.87760703  1
  Mg  Mg5  1  0.99920701  0.79418702  0.12239300  1
  Mg  Mg6  1  0.50079301  0.20581300  0.62239302  1
  Mg  Mg7  1  0.00079300  0.29418701  0.37760701  1
  Ni  Ni8  1  0.77219201  0.91289702  0.72686502  1
  Mg  Mg9  1  0.27219200  0.58710301  0.27313501  1
  Ga  Ga10  1  0.22780800  0.41289701  0.77313503  1
  Mg  Mg11  1  0.72780801  0.08710300  0.22686501  1
  Cu  Cu12  1  0.76966201  0.51765301  0.52802102  1
  Cu  Cu13  1  0.26966200  0.98234702  0.47197902  1
  Mg  Mg14  1  0.23033800  0.01765300  0.97197903  1
  Mg  Mg15  1  0.73033801  0.48234701  0.02802100  1
