# generated using pymatgen
data_Dy8ErGe7
_symmetry_space_group_name_H-M   'P 1'
_cell_length_a   6.11107302
_cell_length_b   7.95744705
_cell_length_c   8.19942665
_cell_angle_alpha   90.00000000
_cell_angle_beta   90.00000000
_cell_angle_gamma   90.00000000
_symmetry_Int_Tables_number   1
_chemical_formula_structural   Dy8ErGe7
_chemical_formula_sum   'Dy8 Er1 Ge7'
_cell_volume   398.72614659
_cell_formula_units_Z   1
loop_
 _symmetry_equiv_pos_site_id
 _symmetry_equiv_pos_as_xyz
  1  'x, y, z'
loop_
 _atom_site_type_symbol
 _atom_site_label
 _atom_site_symmetry_multiplicity
 _atom_site_fract_x
 _atom_site_fract_y
 _atom_site_fract_z
 _atom_site_occupancy
  Dy  Dy0  1  0.04667000  0.63030300  0.86195604  1
  Dy  Dy1  1  0.54667000  0.86969699  0.13804401  1
  Dy  Dy2  1  0.95333000  0.13030300  0.63804403  1
  Dy  Dy3  1  0.45333000  0.36969700  0.36195602  1
  Dy  Dy4  1  0.95333000  0.36969700  0.13804401  1
  Dy  Dy5  1  0.45333000  0.13030300  0.86195604  1
  Dy  Dy6  1  0.04667000  0.86969699  0.36195602  1
  Dy  Dy7  1  0.54667000  0.63030300  0.63804403  1
  Er  Er8  1  0.63257300  0.06465200  0.40422502  1
  Ge  Ge9  1  0.13257300  0.43534800  0.59577503  1
  Ge  Ge10  1  0.36742700  0.56465200  0.09577500  1
  Ge  Ge11  1  0.86742700  0.93534799  0.90422504  1
  Ge  Ge12  1  0.36742700  0.93534799  0.59577503  1
  Ge  Ge13  1  0.86742700  0.56465200  0.40422502  1
  Ge  Ge14  1  0.63257300  0.43534800  0.90422504  1
  Ge  Ge15  1  0.13257300  0.06465200  0.09577500  1
