# generated using pymatgen
data_Li4MnB3N4
_symmetry_space_group_name_H-M   'P 1'
_cell_length_a   3.78608608
_cell_length_b   3.78608608
_cell_length_c   10.04668427
_cell_angle_alpha   100.86086273
_cell_angle_beta   100.86086273
_cell_angle_gamma   90.00000000
_symmetry_Int_Tables_number   1
_chemical_formula_structural   Li4MnB3N4
_chemical_formula_sum   'Li4 Mn1 B3 N4'
_cell_volume   138.80649252
_cell_formula_units_Z   1
loop_
 _symmetry_equiv_pos_site_id
 _symmetry_equiv_pos_as_xyz
  1  'x, y, z'
loop_
 _atom_site_type_symbol
 _atom_site_label
 _atom_site_symmetry_multiplicity
 _atom_site_fract_x
 _atom_site_fract_y
 _atom_site_fract_z
 _atom_site_occupancy
  Li  Li0  1  0.49999999  0.49999999  1.00000000  1
  Li  Li1  1  0.68373798  0.68373798  0.36747600  1
  Li  Li2  1  0.31626199  0.31626199  0.63252400  1
  Li  Li3  1  0.89988698  0.89988698  0.79977400  1
  Mn  Mn4  1  0.10011300  0.10011300  0.20022600  1
  B  B5  1  0.00000000  0.00000000  0.00000000  1
  B  B6  1  0.80191098  0.80191098  0.60382200  1
  B  B7  1  0.19808900  0.19808900  0.39617800  1
  N  N8  1  0.90217798  0.40217799  0.80435600  1
  N  N9  1  0.40217799  0.90217798  0.80435600  1
  N  N10  1  0.09782200  0.59782199  0.19564400  1
  N  N11  1  0.59782199  0.09782200  0.19564400  1
