# generated using pymatgen
data_Nd2Ni7
_symmetry_space_group_name_H-M   'P 1'
_cell_length_a   4.15054798
_cell_length_b   8.90907192
_cell_length_c   8.90907192
_cell_angle_alpha   120.00000000
_cell_angle_beta   90.00000000
_cell_angle_gamma   90.00000000
_symmetry_Int_Tables_number   1
_chemical_formula_structural   Nd2Ni7
_chemical_formula_sum   'Nd4 Ni14'
_cell_volume   285.29949335
_cell_formula_units_Z   2
loop_
 _symmetry_equiv_pos_site_id
 _symmetry_equiv_pos_as_xyz
  1  'x, y, z'
loop_
 _atom_site_type_symbol
 _atom_site_label
 _atom_site_symmetry_multiplicity
 _atom_site_fract_x
 _atom_site_fract_y
 _atom_site_fract_z
 _atom_site_occupancy
  Nd  Nd0  1  0.50000000  0.66666668  0.33333336  1
  Nd  Nd1  1  0.50000000  0.33333334  0.66666670  1
  Nd  Nd2  1  0.00000000  0.00000000  0.00000000  1
  Nd  Nd3  1  0.50000000  0.72639201  0.72639204  1
  Ni  Ni4  1  0.50000000  0.00000000  0.27360801  1
  Ni  Ni5  1  0.50000000  0.27360801  0.00000001  1
  Ni  Ni6  1  1.00000000  0.48475101  0.48475103  1
  Ni  Ni7  1  0.00000000  0.00000000  0.51524902  1
  Ni  Ni8  1  -0.00000000  0.51524901  0.00000001  1
  Ni  Ni9  1  -0.00000000  0.82407502  0.19334503  1
  Ni  Ni10  1  1.00000000  0.36927001  0.17592501  1
  Ni  Ni11  1  -0.00000000  0.80665502  0.63073004  1
  Ni  Ni12  1  -0.00000000  0.19334500  0.82407504  1
  Ni  Ni13  1  1.00000000  0.17592500  0.36927002  1
  Ni  Ni14  1  -0.00000000  0.63073001  0.80665505  1
  Ni  Ni15  1  0.50000000  0.29190101  0.29190102  1
  Ni  Ni16  1  0.50000000  0.00000000  0.70809903  1
  Ni  Ni17  1  0.50000000  0.70809901  0.00000001  1
