# generated using pymatgen
data_LiMn4O13
_symmetry_space_group_name_H-M   'P 1'
_cell_length_a   7.80902910
_cell_length_b   7.80902910
_cell_length_c   7.80902910
_cell_angle_alpha   109.47122192
_cell_angle_beta   109.47122192
_cell_angle_gamma   109.47122192
_symmetry_Int_Tables_number   1
_chemical_formula_structural   LiMn4O13
_chemical_formula_sum   'Li1 Mn4 O13'
_cell_volume   366.58037617
_cell_formula_units_Z   1
loop_
 _symmetry_equiv_pos_site_id
 _symmetry_equiv_pos_as_xyz
  1  'x, y, z'
loop_
 _atom_site_type_symbol
 _atom_site_label
 _atom_site_symmetry_multiplicity
 _atom_site_fract_x
 _atom_site_fract_y
 _atom_site_fract_z
 _atom_site_occupancy
  Mn  Mn0  1  0.25000003  0.50000001  0.75000002  1
  Li  Li1  1  0.75000003  0.50000001  0.25000004  1
  Mn  Mn2  1  0.50000001  0.25000001  0.75000002  1
  Mn  Mn3  1  0.50000005  0.75000002  0.25000005  1
  Mn  Mn4  1  0.25000005  0.75000002  0.50000004  1
  O  O5  1  0.75000001  0.25000001  0.50000003  1
  O  O6  1  0.35237902  0.35237901  0.70475802  1
  O  O7  1  0.70475802  0.35237901  0.35237903  1
  O  O8  1  0.00000004  0.64762102  0.35237903  1
  O  O9  1  0.64762102  0.35237901  1.00000002  1
  O  O10  1  0.35237904  0.64762102  1.00000003  1
  O  O11  1  0.35237904  0.70475802  0.35237904  1
  O  O12  1  0.64762106  1.00000003  0.35237907  1
  O  O13  1  0.00000002  0.35237901  0.64762101  1
  O  O14  1  0.64762102  0.29524201  0.64762102  1
  O  O15  1  0.35237906  1.00000003  0.64762106  1
  O  O16  1  0.29524204  0.64762102  0.64762104  1
  O  O17  1  0.64762104  0.64762102  0.29524205  1
