# generated using pymatgen
data_Hf4Sn7Pt6
_symmetry_space_group_name_H-M   'P 1'
_cell_length_a   7.14886808
_cell_length_b   7.14886808
_cell_length_c   7.14886808
_cell_angle_alpha   109.47122192
_cell_angle_beta   109.47122192
_cell_angle_gamma   109.47122192
_symmetry_Int_Tables_number   1
_chemical_formula_structural   Hf4Sn7Pt6
_chemical_formula_sum   'Hf4 Sn7 Pt6'
_cell_volume   281.24832082
_cell_formula_units_Z   1
loop_
 _symmetry_equiv_pos_site_id
 _symmetry_equiv_pos_as_xyz
  1  'x, y, z'
loop_
 _atom_site_type_symbol
 _atom_site_label
 _atom_site_symmetry_multiplicity
 _atom_site_fract_x
 _atom_site_fract_y
 _atom_site_fract_z
 _atom_site_occupancy
  Hf  Hf0  1  0.50000008  1.00000006  0.00000007  1
  Hf  Hf1  1  0.50000005  0.50000003  0.50000005  1
  Hf  Hf2  1  0.00000000  0.00000000  0.50000001  1
  Hf  Hf3  1  0.00000003  0.50000003  0.00000003  1
  Sn  Sn4  1  0.50000006  0.75000005  0.25000006  1
  Sn  Sn5  1  0.25000004  0.50000003  0.75000005  1
  Sn  Sn6  1  0.75000005  0.50000003  0.25000005  1
  Sn  Sn7  1  0.25000006  0.75000005  0.50000006  1
  Pt  Pt8  1  0.75000004  0.25000002  0.50000004  1
  Pt  Pt9  1  0.50000003  0.25000002  0.75000004  1
  Pt  Pt10  1  0.00000000  0.00000000  0.00000000  1
  Sn  Sn11  1  0.00000002  0.30958602  0.30958602  1
  Pt  Pt12  1  0.69041408  1.00000006  0.69041409  1
  Pt  Pt13  1  0.30958607  1.00000006  0.30958607  1
  Sn  Sn14  1  0.30958603  0.30958602  1.00000005  1
  Pt  Pt15  1  0.69041406  0.69041404  1.00000008  1
  Sn  Sn16  1  0.00000004  0.69041404  0.69041405  1
