# generated using pymatgen
data_Mg6InAg2Sn
_symmetry_space_group_name_H-M   'P 1'
_cell_length_a   4.44423819
_cell_length_b   4.44423819
_cell_length_c   15.87831497
_cell_angle_alpha   98.04476929
_cell_angle_beta   98.04476929
_cell_angle_gamma   90.00000000
_symmetry_Int_Tables_number   1
_chemical_formula_structural   Mg6InAg2Sn
_chemical_formula_sum   'Mg6 In1 Ag2 Sn1'
_cell_volume   307.41304420
_cell_formula_units_Z   1
loop_
 _symmetry_equiv_pos_site_id
 _symmetry_equiv_pos_as_xyz
  1  'x, y, z'
loop_
 _atom_site_type_symbol
 _atom_site_label
 _atom_site_symmetry_multiplicity
 _atom_site_fract_x
 _atom_site_fract_y
 _atom_site_fract_z
 _atom_site_occupancy
  Mg  Mg0  1  0.40273799  0.40273799  0.80547600  1
  Mg  Mg1  1  0.80181098  0.80181097  0.60362202  1
  Mg  Mg2  1  0.19818900  0.19818899  0.39637800  1
  Mg  Mg3  1  0.59726199  0.59726198  0.19452401  1
  Mg  Mg4  1  0.00000000  0.00000000  0.00000000  1
  Mg  Mg5  1  0.09370100  0.09370100  0.18740200  1
  Ag  Ag6  1  0.49999999  0.49999998  0.00000001  1
  Ag  Ag7  1  0.90629898  0.90629897  0.81259802  1
  Sn  Sn8  1  0.30034599  0.30034599  0.60069200  1
  In  In9  1  0.69965399  0.69965398  0.39930802  1
