# generated using pymatgen
data_DyAlGe2
_symmetry_space_group_name_H-M   'P 1'
_cell_length_a   5.62162113
_cell_length_b   6.87625313
_cell_length_c   7.69892406
_cell_angle_alpha   90.00000000
_cell_angle_beta   90.00000000
_cell_angle_gamma   90.00000000
_symmetry_Int_Tables_number   1
_chemical_formula_structural   DyAlGe2
_chemical_formula_sum   'Dy4 Al4 Ge8'
_cell_volume   297.60722115
_cell_formula_units_Z   4
loop_
 _symmetry_equiv_pos_site_id
 _symmetry_equiv_pos_as_xyz
  1  'x, y, z'
loop_
 _atom_site_type_symbol
 _atom_site_label
 _atom_site_symmetry_multiplicity
 _atom_site_fract_x
 _atom_site_fract_y
 _atom_site_fract_z
 _atom_site_occupancy
  Dy  Dy0  1  0.85347098  0.25000000  0.53336400  1
  Dy  Dy1  1  0.64652898  0.25000000  0.03336400  1
  Dy  Dy2  1  0.14652900  0.74999999  0.46663600  1
  Dy  Dy3  1  0.35347099  0.74999999  0.96663599  1
  Al  Al4  1  0.15384500  0.25000000  0.87793399  1
  Al  Al5  1  0.34615499  0.25000000  0.37793400  1
  Al  Al6  1  0.84615498  0.74999999  0.12206600  1
  Al  Al7  1  0.65384498  0.74999999  0.62206599  1
  Ge  Ge8  1  0.40625399  0.05000700  0.67549099  1
  Ge  Ge9  1  0.09374600  0.44999299  0.17549100  1
  Ge  Ge10  1  0.59374599  0.55000699  0.32450900  1
  Ge  Ge11  1  0.90625398  0.94999298  0.82450899  1
  Ge  Ge12  1  0.59374599  0.94999298  0.32450900  1
  Ge  Ge13  1  0.90625398  0.55000699  0.82450899  1
  Ge  Ge14  1  0.40625399  0.44999299  0.67549099  1
  Ge  Ge15  1  0.09374600  0.05000700  0.17549100  1
