# generated using pymatgen
data_Nd5Sn3
_symmetry_space_group_name_H-M   'P 1'
_cell_length_a   6.62604380
_cell_length_b   9.61351204
_cell_length_c   9.61351204
_cell_angle_alpha   120.00000000
_cell_angle_beta   90.00000000
_cell_angle_gamma   90.00000000
_symmetry_Int_Tables_number   1
_chemical_formula_structural   Nd5Sn3
_chemical_formula_sum   'Nd10 Sn6'
_cell_volume   530.33352620
_cell_formula_units_Z   2
loop_
 _symmetry_equiv_pos_site_id
 _symmetry_equiv_pos_as_xyz
  1  'x, y, z'
loop_
 _atom_site_type_symbol
 _atom_site_label
 _atom_site_symmetry_multiplicity
 _atom_site_fract_x
 _atom_site_fract_y
 _atom_site_fract_z
 _atom_site_occupancy
  Nd  Nd0  1  -0.00000000  0.33333334  0.66666670  1
  Nd  Nd1  1  -0.00000000  0.66666667  0.33333336  1
  Nd  Nd2  1  0.50000002  0.66666667  0.33333336  1
  Nd  Nd3  1  0.50000002  0.33333334  0.66666670  1
  Nd  Nd4  1  0.25000001  0.24844400  0.00000001  1
  Nd  Nd5  1  0.25000001  0.75155601  0.75155604  1
  Nd  Nd6  1  0.25000001  0.00000000  0.24844401  1
  Nd  Nd7  1  0.75000002  0.75155601  0.00000002  1
  Nd  Nd8  1  0.75000002  0.24844400  0.24844401  1
  Nd  Nd9  1  0.75000002  0.00000000  0.75155602  1
  Sn  Sn10  1  0.25000001  0.61301300  0.00000001  1
  Sn  Sn11  1  0.25000001  0.38698700  0.38698702  1
  Sn  Sn12  1  0.25000001  0.00000000  0.61301302  1
  Sn  Sn13  1  0.75000002  0.38698700  0.00000001  1
  Sn  Sn14  1  0.75000002  0.61301300  0.61301303  1
  Sn  Sn15  1  0.75000002  0.00000000  0.38698701  1
