# generated using pymatgen
data_Tc3Os4
_symmetry_space_group_name_H-M   'P 1'
_cell_length_a   7.59783459
_cell_length_b   7.59844542
_cell_length_c   7.60305357
_cell_angle_alpha   60.41523361
_cell_angle_beta   60.40370941
_cell_angle_gamma   60.43948364
_symmetry_Int_Tables_number   1
_chemical_formula_structural   Tc3Os4
_chemical_formula_sum   'Tc6 Os8'
_cell_volume   313.31951827
_cell_formula_units_Z   2
loop_
 _symmetry_equiv_pos_site_id
 _symmetry_equiv_pos_as_xyz
  1  'x, y, z'
loop_
 _atom_site_type_symbol
 _atom_site_label
 _atom_site_symmetry_multiplicity
 _atom_site_fract_x
 _atom_site_fract_y
 _atom_site_fract_z
 _atom_site_occupancy
  Tc  Tc0  1  0.12575802  0.62536300  0.12537200  1
  Tc  Tc1  1  0.87434802  0.37494400  0.87464098  1
  Tc  Tc2  1  0.49965301  0.00022900  0.49980699  1
  Tc  Tc3  1  0.49989402  0.49979500  0.49995399  1
  Tc  Tc4  1  0.50038903  0.99969300  0.99994999  1
  Tc  Tc5  1  0.99998902  0.00008800  0.50004397  1
  Os  Os6  1  0.26637101  0.22574100  0.26627999  1
  Os  Os7  1  0.73364002  0.23376100  0.27431898  1
  Os  Os8  1  0.74215002  0.24211200  0.74239898  1
  Os  Os9  1  0.27419001  0.23341600  0.73407799  1
  Os  Os10  1  0.25798802  0.75809800  0.25772700  1
  Os  Os11  1  0.72585903  0.76629100  0.26630099  1
  Os  Os12  1  0.73344303  0.77435700  0.73338898  1
  Os  Os13  1  0.26632202  0.76611500  0.72573800  1
