# generated using pymatgen
data_Ce2AlSi2
_symmetry_space_group_name_H-M   'P 1'
_cell_length_a   3.80016208
_cell_length_b   7.70306015
_cell_length_c   7.70306015
_cell_angle_alpha   90.00000000
_cell_angle_beta   90.00000000
_cell_angle_gamma   90.00000000
_symmetry_Int_Tables_number   1
_chemical_formula_structural   Ce2AlSi2
_chemical_formula_sum   'Ce4 Al2 Si4'
_cell_volume   225.49073275
_cell_formula_units_Z   2
loop_
 _symmetry_equiv_pos_site_id
 _symmetry_equiv_pos_as_xyz
  1  'x, y, z'
loop_
 _atom_site_type_symbol
 _atom_site_label
 _atom_site_symmetry_multiplicity
 _atom_site_fract_x
 _atom_site_fract_y
 _atom_site_fract_z
 _atom_site_occupancy
  Ce  Ce0  1  0.49999999  0.67435199  0.17435200  1
  Ce  Ce1  1  0.49999999  0.32564799  0.82564798  1
  Ce  Ce2  1  0.49999999  0.17435200  0.32564799  1
  Ce  Ce3  1  0.49999999  0.82564798  0.67435199  1
  Al  Al4  1  0.99999998  0.49999999  0.49999999  1
  Al  Al5  1  0.00000000  0.00000000  0.00000000  1
  Si  Si6  1  0.99999998  0.12149200  0.62149199  1
  Si  Si7  1  0.00000000  0.87850798  0.37850799  1
  Si  Si8  1  0.99999998  0.62149199  0.87850798  1
  Si  Si9  1  0.00000000  0.37850799  0.12149200  1
