# generated using pymatgen
data_MgPO3
_symmetry_space_group_name_H-M   'P 1'
_cell_length_a   5.27278233
_cell_length_b   6.74082184
_cell_length_c   6.74102926
_cell_angle_alpha   86.57382965
_cell_angle_beta   82.21797180
_cell_angle_gamma   82.22003937
_symmetry_Int_Tables_number   1
_chemical_formula_structural   MgPO3
_chemical_formula_sum   'Mg4 P4 O12'
_cell_volume   234.99435294
_cell_formula_units_Z   4
loop_
 _symmetry_equiv_pos_site_id
 _symmetry_equiv_pos_as_xyz
  1  'x, y, z'
loop_
 _atom_site_type_symbol
 _atom_site_label
 _atom_site_symmetry_multiplicity
 _atom_site_fract_x
 _atom_site_fract_y
 _atom_site_fract_z
 _atom_site_occupancy
  Mg  Mg0  1  0.75000095  0.26998000  0.73001797  1
  Mg  Mg1  1  0.24999695  0.73001000  0.26999302  1
  Mg  Mg2  1  0.24999998  0.09280400  0.90719497  1
  Mg  Mg3  1  0.75000092  0.90719100  0.09280702  1
  P  P4  1  0.78872395  0.39532500  0.20861999  1
  P  P5  1  0.71127993  0.79138300  0.60467200  1
  P  P6  1  0.21127996  0.60467200  0.79137700  1
  P  P7  1  0.28871998  0.20862000  0.39532799  1
  O  O8  1  0.59859796  0.28973000  0.42888499  1
  O  O9  1  0.90140393  0.57112000  0.71026398  1
  O  O10  1  0.40140194  0.71027800  0.57111600  1
  O  O11  1  0.09859697  0.42888900  0.28973701  1
  O  O12  1  0.11501499  0.14766000  0.62210699  1
  O  O13  1  0.38499096  0.37789800  0.85232698  1
  O  O14  1  0.88498592  0.85233300  0.37787800  1
  O  O15  1  0.61500494  0.62212000  0.14766901  1
  O  O16  1  0.86000395  0.21323400  0.02356399  1
  O  O17  1  0.63999092  0.97643700  0.78676500  1
  O  O18  1  0.13999295  0.78676600  0.97643700  1
  O  O19  1  0.36000998  0.02355000  0.21324199  1
