# generated using pymatgen
data_La3CeO4
_symmetry_space_group_name_H-M   'P 1'
_cell_length_a   5.34572220
_cell_length_b   5.34572220
_cell_length_c   6.53453207
_cell_angle_alpha   114.14431000
_cell_angle_beta   114.14431000
_cell_angle_gamma   90.00000000
_symmetry_Int_Tables_number   1
_chemical_formula_structural   La3CeO4
_chemical_formula_sum   'La3 Ce1 O4'
_cell_volume   152.32166999
_cell_formula_units_Z   1
loop_
 _symmetry_equiv_pos_site_id
 _symmetry_equiv_pos_as_xyz
  1  'x, y, z'
loop_
 _atom_site_type_symbol
 _atom_site_label
 _atom_site_symmetry_multiplicity
 _atom_site_fract_x
 _atom_site_fract_y
 _atom_site_fract_z
 _atom_site_occupancy
  Ce  Ce0  1  0.49999994  0.49999996  -0.00000007  1
  La  La1  1  0.24999994  0.74999994  0.49999992  1
  La  La2  1  0.00000000  0.00000000  0.00000000  1
  La  La3  1  0.74999994  0.24999998  0.49999993  1
  O  O4  1  0.49454490  0.99454492  0.98908987  1
  O  O5  1  0.00545497  0.50545496  0.01090996  1
  O  O6  1  0.74454490  0.74454494  0.48908989  1
  O  O7  1  0.25545497  0.25545498  0.51090996  1
