# generated using pymatgen
data_Ce7Sn2BiO10
_symmetry_space_group_name_H-M   'P 1'
_cell_length_a   6.37230396
_cell_length_b   7.34728193
_cell_length_c   9.48257828
_cell_angle_alpha   90.00000000
_cell_angle_beta   90.00000000
_cell_angle_gamma   90.00000000
_symmetry_Int_Tables_number   1
_chemical_formula_structural   Ce7Sn2BiO10
_chemical_formula_sum   'Ce7 Sn2 Bi1 O10'
_cell_volume   443.96591127
_cell_formula_units_Z   1
loop_
 _symmetry_equiv_pos_site_id
 _symmetry_equiv_pos_as_xyz
  1  'x, y, z'
loop_
 _atom_site_type_symbol
 _atom_site_label
 _atom_site_symmetry_multiplicity
 _atom_site_fract_x
 _atom_site_fract_y
 _atom_site_fract_z
 _atom_site_occupancy
  Ce  Ce0  1  0.56545400  0.12103300  0.74999998  1
  Ce  Ce1  1  0.93454601  0.62103301  0.74999998  1
  Ce  Ce2  1  0.43454600  0.87896701  0.24999999  1
  Ce  Ce3  1  0.06545400  0.37896700  0.24999999  1
  Ce  Ce4  1  0.50000000  0.50000000  0.00000000  1
  Ce  Ce5  1  0.00000000  0.00000000  0.49999999  1
  Ce  Ce6  1  0.50000000  0.50000000  0.49999999  1
  Bi  Bi7  1  0.00000000  0.00000000  0.00000000  1
  Sn  Sn8  1  0.34253500  0.18055100  0.43903999  1
  Sn  Sn9  1  0.15746500  0.68055101  0.06096000  1
  O  O10  1  0.65746500  0.81944901  0.93903997  1
  O  O11  1  0.84253500  0.31944900  0.56095998  1
  O  O12  1  0.65746500  0.81944901  0.56095998  1
  O  O13  1  0.84253500  0.31944900  0.93903997  1
  O  O14  1  0.34253500  0.18055100  0.06096000  1
  O  O15  1  0.15746500  0.68055101  0.43903999  1
  O  O16  1  0.35032600  0.45937100  0.74999998  1
  O  O17  1  0.14967400  0.95937101  0.74999998  1
  O  O18  1  0.64967400  0.54062900  0.24999999  1
  O  O19  1  0.85032600  0.04062900  0.24999999  1
