# generated using pymatgen
data_Li6VO9
_symmetry_space_group_name_H-M   'P 1'
_cell_length_a   5.06690788
_cell_length_b   5.69429207
_cell_length_c   7.25376129
_cell_angle_alpha   109.73168945
_cell_angle_beta   90.00000000
_cell_angle_gamma   116.41765594
_symmetry_Int_Tables_number   1
_chemical_formula_structural   Li6VO9
_chemical_formula_sum   'Li6 V1 O9'
_cell_volume   173.60497735
_cell_formula_units_Z   1
loop_
 _symmetry_equiv_pos_site_id
 _symmetry_equiv_pos_as_xyz
  1  'x, y, z'
loop_
 _atom_site_type_symbol
 _atom_site_label
 _atom_site_symmetry_multiplicity
 _atom_site_fract_x
 _atom_site_fract_y
 _atom_site_fract_z
 _atom_site_occupancy
  Li  Li0  1  0.14029502  0.25575501  0.21825402  1
  Li  Li1  1  0.11546002  0.25575501  0.71825402  1
  Li  Li2  1  0.88454006  0.74424503  0.28174604  1
  Li  Li3  1  0.85970506  0.74424503  0.78174604  1
  Li  Li4  1  0.50000001  0.00000000  0.50000000  1
  Li  Li5  1  0.50000001  0.00000000  0.00000000  1
  O  O6  1  0.85197604  0.37953002  0.15425302  1
  V  V7  1  0.68769302  0.00000000  0.75000000  1
  O  O8  1  0.07632905  0.83726404  0.55856205  1
  O  O9  1  0.76093507  0.83726404  0.05856205  1
  O  O10  1  0.14802404  0.62047003  0.84574704  1
  O  O11  1  0.92367103  0.16273601  0.44143801  1
  O  O12  1  0.31230701  0.00000000  0.25000000  1
  O  O13  1  0.47244605  0.62047003  0.34574704  1
  O  O14  1  0.23906501  0.16273601  0.94143801  1
  O  O15  1  0.52755403  0.37953002  0.65425302  1
