# generated using pymatgen
data_Nd2Ge3
_symmetry_space_group_name_H-M   'P 1'
_cell_length_a   3.89777398
_cell_length_b   4.16114378
_cell_length_c   7.53479719
_cell_angle_alpha   106.02927399
_cell_angle_beta   104.99006653
_cell_angle_gamma   90.00000000
_symmetry_Int_Tables_number   1
_chemical_formula_structural   Nd2Ge3
_chemical_formula_sum   'Nd2 Ge3'
_cell_volume   113.12379343
_cell_formula_units_Z   1
loop_
 _symmetry_equiv_pos_site_id
 _symmetry_equiv_pos_as_xyz
  1  'x, y, z'
loop_
 _atom_site_type_symbol
 _atom_site_label
 _atom_site_symmetry_multiplicity
 _atom_site_fract_x
 _atom_site_fract_y
 _atom_site_fract_z
 _atom_site_occupancy
  Nd  Nd0  1  0.87202201  0.37202202  0.74404403  1
  Nd  Nd1  1  0.12482400  0.12482401  0.24964801  1
  Ge  Ge2  1  0.53705301  0.53705303  0.07410601  1
  Ge  Ge3  1  0.29803201  0.79803204  0.59606402  1
  Ge  Ge4  1  0.70407001  0.70407004  0.40814002  1
