# generated using pymatgen
data_HfZr2Sn
_symmetry_space_group_name_H-M   'P 1'
_cell_length_a   4.80536604
_cell_length_b   5.99192190
_cell_length_c   5.99192238
_cell_angle_alpha   60.00000000
_cell_angle_beta   90.00000000
_cell_angle_gamma   90.00000000
_symmetry_Int_Tables_number   1
_chemical_formula_structural   HfZr2Sn
_chemical_formula_sum   'Hf2 Zr4 Sn2'
_cell_volume   149.41335901
_cell_formula_units_Z   2
loop_
 _symmetry_equiv_pos_site_id
 _symmetry_equiv_pos_as_xyz
  1  'x, y, z'
loop_
 _atom_site_type_symbol
 _atom_site_label
 _atom_site_symmetry_multiplicity
 _atom_site_fract_x
 _atom_site_fract_y
 _atom_site_fract_z
 _atom_site_occupancy
  Zr  Zr0  1  0.74999999  0.67906102  0.16046998  1
  Hf  Hf1  1  0.74999999  0.16046901  0.16046999  1
  Zr  Zr2  1  0.74999999  0.16046901  0.67906198  1
  Zr  Zr3  1  0.25000000  0.32093901  0.83952998  1
  Zr  Zr4  1  0.25000000  0.83953103  0.83952996  1
  Hf  Hf5  1  0.25000000  0.83953103  0.32093797  1
  Sn  Sn6  1  0.25000000  0.33333334  0.33333332  1
  Sn  Sn7  1  0.74999999  0.66666669  0.66666664  1
