# generated using pymatgen
data_BaAcTl6
_symmetry_space_group_name_H-M   'P 1'
_cell_length_a   6.49230623
_cell_length_b   7.98016977
_cell_length_c   7.98016930
_cell_angle_alpha   120.00000000
_cell_angle_beta   90.00000000
_cell_angle_gamma   90.00000000
_symmetry_Int_Tables_number   1
_chemical_formula_structural   BaAcTl6
_chemical_formula_sum   'Ba1 Ac1 Tl6'
_cell_volume   358.05839779
_cell_formula_units_Z   1
loop_
 _symmetry_equiv_pos_site_id
 _symmetry_equiv_pos_as_xyz
  1  'x, y, z'
loop_
 _atom_site_type_symbol
 _atom_site_label
 _atom_site_symmetry_multiplicity
 _atom_site_fract_x
 _atom_site_fract_y
 _atom_site_fract_z
 _atom_site_occupancy
  Ac  Ac0  1  0.24999999  0.66666666  0.33333328  1
  Ba  Ba1  1  0.74999997  0.33333333  0.66666663  1
  Tl  Tl2  1  0.74999997  0.83396300  0.16603694  1
  Tl  Tl3  1  0.74999997  0.33207400  0.16603697  1
  Tl  Tl4  1  0.74999997  0.83396300  0.66792593  1
  Tl  Tl5  1  0.24999999  0.16603700  0.83396298  1
  Tl  Tl6  1  0.24999999  0.66792600  0.83396294  1
  Tl  Tl7  1  0.24999999  0.16603700  0.33207398  1
