# generated using pymatgen
data_Ce3AlGe8
_symmetry_space_group_name_H-M   'P 1'
_cell_length_a   4.31497192
_cell_length_b   7.01027584
_cell_length_c   7.18880606
_cell_angle_alpha   90.00000000
_cell_angle_beta   90.00000000
_cell_angle_gamma   90.00000000
_symmetry_Int_Tables_number   1
_chemical_formula_structural   Ce3AlGe8
_chemical_formula_sum   'Ce3 Al1 Ge8'
_cell_volume   217.45522552
_cell_formula_units_Z   1
loop_
 _symmetry_equiv_pos_site_id
 _symmetry_equiv_pos_as_xyz
  1  'x, y, z'
loop_
 _atom_site_type_symbol
 _atom_site_label
 _atom_site_symmetry_multiplicity
 _atom_site_fract_x
 _atom_site_fract_y
 _atom_site_fract_z
 _atom_site_occupancy
  Ce  Ce0  1  0.75000001  0.01020500  0.18672800  1
  Ce  Ce1  1  0.25000000  0.48979501  0.68672799  1
  Ce  Ce2  1  0.75000001  0.51020501  0.31327200  1
  Al  Al3  1  0.25000000  0.98979502  0.81327199  1
  Ge  Ge4  1  0.25000000  0.30375401  0.10574900  1
  Ge  Ge5  1  0.25000000  0.80375402  0.39425100  1
  Ge  Ge6  1  0.75000001  0.69624602  0.89425099  1
  Ge  Ge7  1  0.75000001  0.19624600  0.60574900  1
  Ge  Ge8  1  0.25000000  0.65341101  0.06655100  1
  Ge  Ge9  1  0.25000000  0.15341100  0.43344900  1
  Ge  Ge10  1  0.75000001  0.84658902  0.56655100  1
  Ge  Ge11  1  0.75000001  0.34658901  0.93344899  1
