# generated using pymatgen
data_Mg
_symmetry_space_group_name_H-M   'P 1'
_cell_length_a   3.20581794
_cell_length_b   5.54938364
_cell_length_c   7.40698814
_cell_angle_alpha   107.56739807
_cell_angle_beta   90.00000000
_cell_angle_gamma   106.78878784
_symmetry_Int_Tables_number   1
_chemical_formula_structural   Mg
_chemical_formula_sum   Mg6
_cell_volume   119.72246610
_cell_formula_units_Z   6
loop_
 _symmetry_equiv_pos_site_id
 _symmetry_equiv_pos_as_xyz
  1  'x, y, z'
loop_
 _atom_site_type_symbol
 _atom_site_label
 _atom_site_symmetry_multiplicity
 _atom_site_fract_x
 _atom_site_fract_y
 _atom_site_fract_z
 _atom_site_occupancy
  Mg  Mg0  1  0.97510492  0.95020999  0.98782995  1
  Mg  Mg1  1  0.62632099  0.25264200  0.73332898  1
  Mg  Mg2  1  0.67059698  0.34119400  0.33652898  1
  Mg  Mg3  1  0.34242294  0.68484599  0.64685896  1
  Mg  Mg4  1  0.95078793  0.90157599  0.38250795  1
  Mg  Mg5  1  0.26809895  0.53619799  0.07961197  1
