# generated using pymatgen
data_Li3VO4
_symmetry_space_group_name_H-M   'P 1'
_cell_length_a   5.33271599
_cell_length_b   5.33271599
_cell_length_c   6.24773359
_cell_angle_alpha   91.43888092
_cell_angle_beta   91.43888092
_cell_angle_gamma   91.59276581
_symmetry_Int_Tables_number   1
_chemical_formula_structural   Li3VO4
_chemical_formula_sum   'Li6 V2 O8'
_cell_volume   177.48829996
_cell_formula_units_Z   2
loop_
 _symmetry_equiv_pos_site_id
 _symmetry_equiv_pos_as_xyz
  1  'x, y, z'
loop_
 _atom_site_type_symbol
 _atom_site_label
 _atom_site_symmetry_multiplicity
 _atom_site_fract_x
 _atom_site_fract_y
 _atom_site_fract_z
 _atom_site_occupancy
  Li  Li0  1  0.19146401  0.16837400  0.26742799  1
  Li  Li1  1  0.30116303  0.69883702  -0.00000000  1
  Li  Li2  1  0.67302603  0.32697401  0.49999998  1
  Li  Li3  1  0.32032903  0.67967102  0.49999998  1
  V  V4  1  0.83162605  0.80853602  0.73257197  1
  Li  Li5  1  0.67578703  0.32421301  -0.00000001  1
  Li  Li6  1  0.18560901  0.17074900  0.74853698  1
  V  V7  1  0.82925105  0.81439102  0.25146298  1
  O  O8  1  0.30984602  0.30133401  0.98043997  1
  O  O9  1  0.30737402  0.30572201  0.54466298  1
  O  O10  1  0.77440003  0.12566600  0.23915199  1
  O  O11  1  0.13139003  0.79854202  0.25032899  1
  O  O12  1  0.87433403  0.22560001  0.76084797  1
  O  O13  1  0.20145803  0.86861003  0.74967097  1
  O  O14  1  0.69866604  0.69015402  0.01955999  1
  O  O15  1  0.69427804  0.69262602  0.45533698  1
