# generated using pymatgen
data_CeFe2H7
_symmetry_space_group_name_H-M   'P 1'
_cell_length_a   5.35077810
_cell_length_b   5.35415936
_cell_length_c   5.35415936
_cell_angle_alpha   89.99404907
_cell_angle_beta   60.25174713
_cell_angle_gamma   119.74825287
_symmetry_Int_Tables_number   1
_chemical_formula_structural   CeFe2H7
_chemical_formula_sum   'Ce1 Fe2 H7'
_cell_volume   109.27845847
_cell_formula_units_Z   1
loop_
 _symmetry_equiv_pos_site_id
 _symmetry_equiv_pos_as_xyz
  1  'x, y, z'
loop_
 _atom_site_type_symbol
 _atom_site_label
 _atom_site_symmetry_multiplicity
 _atom_site_fract_x
 _atom_site_fract_y
 _atom_site_fract_z
 _atom_site_occupancy
  H  H0  1  0.49894000  0.24916501  0.75083502  1
  Ce  Ce1  1  0.50222001  0.75250903  0.24749097  1
  Fe  Fe2  1  0.99999601  0.49977902  0.99974303  1
  Fe  Fe3  1  0.99999601  0.00025700  0.50022104  1
  H  H4  1  0.99703301  0.21095601  0.21413402  1
  H  H5  1  0.99703301  0.78586603  0.78904400  1
  H  H6  1  0.49986600  0.23222101  0.23392201  1
  H  H7  1  0.49986601  0.76607803  0.76777899  1
  H  H8  1  0.03428800  0.30439001  0.69561000  1
  H  H9  1  0.97076301  0.69878002  0.30121999  1
