# generated using pymatgen
data_Nd3Ni2
_symmetry_space_group_name_H-M   'P 1'
_cell_length_a   3.65982604
_cell_length_b   6.89035320
_cell_length_c   9.51605892
_cell_angle_alpha   104.88677216
_cell_angle_beta   90.00000000
_cell_angle_gamma   105.40118408
_symmetry_Int_Tables_number   1
_chemical_formula_structural   Nd3Ni2
_chemical_formula_sum   'Nd6 Ni4'
_cell_volume   222.98819263
_cell_formula_units_Z   2
loop_
 _symmetry_equiv_pos_site_id
 _symmetry_equiv_pos_as_xyz
  1  'x, y, z'
loop_
 _atom_site_type_symbol
 _atom_site_label
 _atom_site_symmetry_multiplicity
 _atom_site_fract_x
 _atom_site_fract_y
 _atom_site_fract_z
 _atom_site_occupancy
  Nd  Nd0  1  0.14409598  0.28819200  0.36722700  1
  Nd  Nd1  1  0.85590394  0.71180800  0.63277300  1
  Nd  Nd2  1  0.59720098  0.19440200  0.67293198  1
  Nd  Nd3  1  0.40279894  0.80559801  0.32706801  1
  Nd  Nd4  1  0.86837594  0.73675200  0.00258302  1
  Nd  Nd5  1  0.13162398  0.26324800  0.99741697  1
  Ni  Ni6  1  0.25630696  0.51261400  0.77341299  1
  Ni  Ni7  1  0.74369296  0.48738600  0.22658701  1
  Ni  Ni8  1  0.46528893  0.93057801  0.85562900  1
  Ni  Ni9  1  0.53471099  0.06942200  0.14437100  1
