# generated using pymatgen
data_LiCaMnBr5
_symmetry_space_group_name_H-M   'P 1'
_cell_length_a   5.62089062
_cell_length_b   5.62089062
_cell_length_c   5.79684305
_cell_angle_alpha   60.99908447
_cell_angle_beta   60.99908447
_cell_angle_gamma   59.99999237
_symmetry_Int_Tables_number   1
_chemical_formula_structural   LiCaMnBr5
_chemical_formula_sum   'Li1 Ca1 Mn1 Br5'
_cell_volume   131.42641544
_cell_formula_units_Z   1
loop_
 _symmetry_equiv_pos_site_id
 _symmetry_equiv_pos_as_xyz
  1  'x, y, z'
loop_
 _atom_site_type_symbol
 _atom_site_label
 _atom_site_symmetry_multiplicity
 _atom_site_fract_x
 _atom_site_fract_y
 _atom_site_fract_z
 _atom_site_occupancy
  Li  Li0  1  0.50000002  0.50000001  0.49999996  1
  Ca  Ca1  1  0.00000000  0.00000000  0.00000000  1
  Mn  Mn2  1  0.86582603  0.68174501  0.22799595  1
  Br  Br3  1  0.22443302  0.86582601  0.22799596  1
  Br  Br4  1  0.31825502  0.77556701  0.77200396  1
  Br  Br5  1  0.77556702  0.13417400  0.77200397  1
  Br  Br6  1  0.13417401  0.31825500  0.77200398  1
  Br  Br7  1  0.68174502  0.22443300  0.22799597  1
