# generated using pymatgen
data_SrCa3HfZr3O12
_symmetry_space_group_name_H-M   'P 1'
_cell_length_a   5.64676905
_cell_length_b   5.79170179
_cell_length_c   8.08516026
_cell_angle_alpha   90.00000000
_cell_angle_beta   90.00000000
_cell_angle_gamma   89.97439575
_symmetry_Int_Tables_number   1
_chemical_formula_structural   SrCa3HfZr3O12
_chemical_formula_sum   'Sr1 Ca3 Hf1 Zr3 O12'
_cell_volume   264.42030819
_cell_formula_units_Z   1
loop_
 _symmetry_equiv_pos_site_id
 _symmetry_equiv_pos_as_xyz
  1  'x, y, z'
loop_
 _atom_site_type_symbol
 _atom_site_label
 _atom_site_symmetry_multiplicity
 _atom_site_fract_x
 _atom_site_fract_y
 _atom_site_fract_z
 _atom_site_occupancy
  Ca  Ca0  1  0.48864998  0.54133298  0.49999998  1
  Ca  Ca1  1  0.01237700  0.04538300  0.49999998  1
  Ca  Ca2  1  0.51170098  0.45479798  0.00000000  1
  Sr  Sr3  1  0.98952296  0.95632496  0.00000000  1
  Hf  Hf4  1  0.00034398  0.50000198  0.24757799  1
  Zr  Zr5  1  0.49934900  0.00016200  0.75199098  1
  Zr  Zr6  1  0.00034398  0.50000198  0.75242198  1
  Zr  Zr7  1  0.49934900  0.00016200  0.24800899  1
  O  O8  1  0.59929396  0.97939696  0.49999998  1
  O  O9  1  0.92073398  0.46633398  0.49999998  1
  O  O10  1  0.40185300  0.03102100  0.00000000  1
  O  O11  1  0.10131498  0.53403998  0.00000000  1
  O  O12  1  0.20147697  0.79655297  0.30029399  1
  O  O13  1  0.28981299  0.28802699  0.70542598  1
  O  O14  1  0.79355199  0.20684799  0.80390797  1
  O  O15  1  0.70274097  0.70409397  0.19622999  1
  O  O16  1  0.79355199  0.20684799  0.19609199  1
  O  O17  1  0.70274097  0.70409397  0.80376997  1
  O  O18  1  0.20147697  0.79655297  0.69970598  1
  O  O19  1  0.28981299  0.28802699  0.29457399  1
