# generated using pymatgen
data_Nb(BN3)2
_symmetry_space_group_name_H-M   'P 1'
_cell_length_a   4.70958614
_cell_length_b   5.02942801
_cell_length_c   5.02942753
_cell_angle_alpha   120.00000000
_cell_angle_beta   90.00000000
_cell_angle_gamma   90.00000000
_symmetry_Int_Tables_number   1
_chemical_formula_structural   Nb(BN3)2
_chemical_formula_sum   'Nb1 B2 N6'
_cell_volume   103.16931025
_cell_formula_units_Z   1
loop_
 _symmetry_equiv_pos_site_id
 _symmetry_equiv_pos_as_xyz
  1  'x, y, z'
loop_
 _atom_site_type_symbol
 _atom_site_label
 _atom_site_symmetry_multiplicity
 _atom_site_fract_x
 _atom_site_fract_y
 _atom_site_fract_z
 _atom_site_occupancy
  Nb  Nb0  1  0.49999998  0.66666665  0.33333331  1
  B  B1  1  0.49999998  0.33333332  0.66666667  1
  B  B2  1  0.00000000  0.00000000  0.00000000  1
  N  N3  1  0.74434998  0.67666998  0.67666998  1
  N  N4  1  0.74434998  0.00000000  0.32333001  1
  N  N5  1  0.25564999  0.00000000  0.67667002  1
  N  N6  1  0.74434998  0.32332999  1.00000001  1
  N  N7  1  0.25564999  0.32332999  0.32332999  1
  N  N8  1  0.25564999  0.67666998  -0.00000003  1
