# generated using pymatgen
data_Mg5P(HO4)2
_symmetry_space_group_name_H-M   'P 1'
_cell_length_a   3.07818103
_cell_length_b   7.63866425
_cell_length_c   7.72331715
_cell_angle_alpha   87.00803375
_cell_angle_beta   78.50595093
_cell_angle_gamma   78.37767029
_symmetry_Int_Tables_number   1
_chemical_formula_structural   Mg5P(HO4)2
_chemical_formula_sum   'Mg5 P1 H2 O8'
_cell_volume   174.29547742
_cell_formula_units_Z   1
loop_
 _symmetry_equiv_pos_site_id
 _symmetry_equiv_pos_as_xyz
  1  'x, y, z'
loop_
 _atom_site_type_symbol
 _atom_site_label
 _atom_site_symmetry_multiplicity
 _atom_site_fract_x
 _atom_site_fract_y
 _atom_site_fract_z
 _atom_site_occupancy
  Mg  Mg0  1  0.64457301  0.20611899  0.50463500  1
  Mg  Mg1  1  0.85142205  0.50187299  0.79524999  1
  Mg  Mg2  1  0.35545510  0.79386698  0.49531595  1
  Mg  Mg3  1  0.14857106  0.49813299  0.20478197  1
  Mg  Mg4  1  0.09153101  0.06094500  0.75608200  1
  P  P5  1  0.90848011  0.93901997  0.24391396  1
  H  H6  1  0.15373310  0.75893998  0.93356795  1
  H  H7  1  0.84628101  0.24100299  0.06644401  1
  O  O8  1  0.16221300  0.04631500  0.62893800  1
  O  O9  1  0.83780811  0.95362797  0.37106395  1
  O  O10  1  0.21136908  0.62995198  0.94723196  1
  O  O11  1  0.78858403  0.37012499  0.05278899  1
  O  O12  1  0.53649307  0.63756898  0.28954397  1
  O  O13  1  0.46348104  0.36247699  0.71048999  1
  O  O14  1  0.16393704  0.30043999  0.37170098  1
  O  O15  1  0.83606908  0.69959498  0.62824997  1
