# generated using pymatgen
data_Ca3CdPb2
_symmetry_space_group_name_H-M   'P 1'
_cell_length_a   4.81772995
_cell_length_b   7.46134996
_cell_length_c   8.95410824
_cell_angle_alpha   90.00000000
_cell_angle_beta   90.00000000
_cell_angle_gamma   90.00000000
_symmetry_Int_Tables_number   1
_chemical_formula_structural   Ca3CdPb2
_chemical_formula_sum   'Ca6 Cd2 Pb4'
_cell_volume   321.87126214
_cell_formula_units_Z   2
loop_
 _symmetry_equiv_pos_site_id
 _symmetry_equiv_pos_as_xyz
  1  'x, y, z'
loop_
 _atom_site_type_symbol
 _atom_site_label
 _atom_site_symmetry_multiplicity
 _atom_site_fract_x
 _atom_site_fract_y
 _atom_site_fract_z
 _atom_site_occupancy
  Ca  Ca0  1  0.75000001  0.84351600  0.07600300  1
  Ca  Ca1  1  0.25000000  0.15648400  0.92399698  1
  Ca  Ca2  1  0.75000001  0.34351600  0.42399699  1
  Ca  Ca3  1  0.25000000  0.65648400  0.57600298  1
  Ca  Ca4  1  0.25000000  0.51937300  0.18093700  1
  Ca  Ca5  1  0.75000001  0.48062700  0.81906298  1
  Cd  Cd6  1  0.25000000  0.01937300  0.31906299  1
  Cd  Cd7  1  0.75000001  0.98062700  0.68093698  1
  Pb  Pb8  1  0.25000000  0.75138800  0.89669698  1
  Pb  Pb9  1  0.75000001  0.24861200  0.10330300  1
  Pb  Pb10  1  0.25000000  0.25138800  0.60330298  1
  Pb  Pb11  1  0.75000001  0.74861200  0.39669699  1
