# generated using pymatgen
data_Ce2SnPd5
_symmetry_space_group_name_H-M   'P 1'
_cell_length_a   4.30442905
_cell_length_b   4.30442905
_cell_length_c   9.41990852
_cell_angle_alpha   90.00000000
_cell_angle_beta   90.00000000
_cell_angle_gamma   90.00000000
_symmetry_Int_Tables_number   1
_chemical_formula_structural   Ce2SnPd5
_chemical_formula_sum   'Ce2 Sn1 Pd5'
_cell_volume   174.53309645
_cell_formula_units_Z   1
loop_
 _symmetry_equiv_pos_site_id
 _symmetry_equiv_pos_as_xyz
  1  'x, y, z'
loop_
 _atom_site_type_symbol
 _atom_site_label
 _atom_site_symmetry_multiplicity
 _atom_site_fract_x
 _atom_site_fract_y
 _atom_site_fract_z
 _atom_site_occupancy
  Ce  Ce0  1  0.00000000  0.49999999  0.83279904  1
  Ce  Ce1  1  0.49999999  0.00000000  0.16720101  1
  Sn  Sn2  1  0.49999999  0.49999999  0.50000003  1
  Pd  Pd3  1  0.00000000  0.00000000  0.50000003  1
  Pd  Pd4  1  0.00000000  0.49999999  0.32441602  1
  Pd  Pd5  1  0.49999999  0.00000000  0.67558403  1
  Pd  Pd6  1  0.49999999  0.49999999  0.00000000  1
  Pd  Pd7  1  0.00000000  0.00000000  0.00000000  1
