# generated using pymatgen
data_LiFe3(NiO4)2
_symmetry_space_group_name_H-M   'P 1'
_cell_length_a   5.86882401
_cell_length_b   5.94685221
_cell_length_c   5.94685221
_cell_angle_alpha   60.66763306
_cell_angle_beta   60.43309402
_cell_angle_gamma   60.43309402
_symmetry_Int_Tables_number   1
_chemical_formula_structural   LiFe3(NiO4)2
_chemical_formula_sum   'Li1 Fe3 Ni2 O8'
_cell_volume   148.45492635
_cell_formula_units_Z   1
loop_
 _symmetry_equiv_pos_site_id
 _symmetry_equiv_pos_as_xyz
  1  'x, y, z'
loop_
 _atom_site_type_symbol
 _atom_site_label
 _atom_site_symmetry_multiplicity
 _atom_site_fract_x
 _atom_site_fract_y
 _atom_site_fract_z
 _atom_site_occupancy
  Li  Li0  1  0.49999999  0.49999999  0.49999999  1
  Fe  Fe1  1  0.50000000  0.00000000  -0.00000001  1
  Fe  Fe2  1  0.11856199  0.63143798  0.13143801  1
  Fe  Fe3  1  0.88143800  0.36856199  0.86856197  1
  Ni  Ni4  1  0.99999999  0.99999997  0.49999999  1
  Ni  Ni5  1  0.50000000  0.00000000  0.49999998  1
  O  O6  1  0.75126899  0.75547498  0.74198698  1
  O  O7  1  0.75126900  0.24198699  0.25547498  1
  O  O8  1  0.26103200  0.23610899  0.73610898  1
  O  O9  1  0.24873100  0.24452499  0.25801299  1
  O  O10  1  0.23324999  0.76389098  0.26389100  1
  O  O11  1  0.24873099  0.75801298  0.74452499  1
  O  O12  1  0.76675000  0.23610899  0.73610897  1
  O  O13  1  0.73896799  0.76389098  0.26389100  1
