# generated using pymatgen
data_ZrMn(NiO)3
_symmetry_space_group_name_H-M   'P 1'
_cell_length_a   5.43103838
_cell_length_b   5.43103838
_cell_length_c   5.86912775
_cell_angle_alpha   62.43991470
_cell_angle_beta   62.43991470
_cell_angle_gamma   59.99999237
_symmetry_Int_Tables_number   1
_chemical_formula_structural   ZrMn(NiO)3
_chemical_formula_sum   'Zr1 Mn1 Ni3 O3'
_cell_volume   126.73387914
_cell_formula_units_Z   1
loop_
 _symmetry_equiv_pos_site_id
 _symmetry_equiv_pos_as_xyz
  1  'x, y, z'
loop_
 _atom_site_type_symbol
 _atom_site_label
 _atom_site_symmetry_multiplicity
 _atom_site_fract_x
 _atom_site_fract_y
 _atom_site_fract_z
 _atom_site_occupancy
  Mn  Mn0  1  0.49999999  0.50000002  0.50000003  1
  Zr  Zr1  1  0.00000000  0.00000000  0.00000000  1
  Ni  Ni2  1  0.36324200  0.09364800  0.76756802  1
  Ni  Ni3  1  0.09364798  0.77554203  0.76756803  1
  Ni  Ni4  1  0.22445798  0.63675802  0.23243202  1
  O  O5  1  0.90635201  0.22445801  0.23243202  1
  O  O6  1  0.63675798  0.90635203  0.23243204  1
  O  O7  1  0.77554200  0.36324201  0.76756803  1
