# generated using pymatgen
data_UGe3
_symmetry_space_group_name_H-M   'P 1'
_cell_length_a   4.33484983
_cell_length_b   4.33484983
_cell_length_c   9.51196861
_cell_angle_alpha   90.00000000
_cell_angle_beta   90.00000000
_cell_angle_gamma   90.00000000
_symmetry_Int_Tables_number   1
_chemical_formula_structural   UGe3
_chemical_formula_sum   'U2 Ge6'
_cell_volume   178.73867061
_cell_formula_units_Z   2
loop_
 _symmetry_equiv_pos_site_id
 _symmetry_equiv_pos_as_xyz
  1  'x, y, z'
loop_
 _atom_site_type_symbol
 _atom_site_label
 _atom_site_symmetry_multiplicity
 _atom_site_fract_x
 _atom_site_fract_y
 _atom_site_fract_z
 _atom_site_occupancy
  U  U0  1  0.00000000  0.50000002  0.74763303  1
  U  U1  1  0.50000002  0.00000000  0.25236701  1
  Ge  Ge2  1  0.50000002  0.50000002  0.50000002  1
  Ge  Ge3  1  0.00000000  0.00000000  0.50000002  1
  Ge  Ge4  1  0.50000002  0.50000002  0.00000000  1
  Ge  Ge5  1  0.00000000  0.00000000  0.00000000  1
  Ge  Ge6  1  0.00000000  0.50000002  0.33163601  1
  Ge  Ge7  1  0.50000002  0.00000000  0.66836403  1
