# generated using pymatgen
data_Nd9Ni7Sn4
_symmetry_space_group_name_H-M   'P 1'
_cell_length_a   7.25485802
_cell_length_b   7.83345699
_cell_length_c   7.83345699
_cell_angle_alpha   90.00000000
_cell_angle_beta   90.00000000
_cell_angle_gamma   90.00000000
_symmetry_Int_Tables_number   1
_chemical_formula_structural   Nd9Ni7Sn4
_chemical_formula_sum   'Nd9 Ni7 Sn4'
_cell_volume   445.18020409
_cell_formula_units_Z   1
loop_
 _symmetry_equiv_pos_site_id
 _symmetry_equiv_pos_as_xyz
  1  'x, y, z'
loop_
 _atom_site_type_symbol
 _atom_site_label
 _atom_site_symmetry_multiplicity
 _atom_site_fract_x
 _atom_site_fract_y
 _atom_site_fract_z
 _atom_site_occupancy
  Nd  Nd0  1  0.50000000  0.67682400  0.32317600  1
  Nd  Nd1  1  0.50000000  0.32317600  0.67682400  1
  Nd  Nd2  1  0.00000000  0.17682400  0.17682400  1
  Nd  Nd3  1  0.00000000  0.82317600  0.82317600  1
  Nd  Nd4  1  0.50000000  0.84159600  0.84159600  1
  Nd  Nd5  1  0.50000000  0.15840400  0.15840400  1
  Nd  Nd6  1  0.00000000  0.34159600  0.65840400  1
  Nd  Nd7  1  0.00000000  0.65840400  0.34159600  1
  Sn  Sn8  1  0.25000000  0.50000000  0.00000000  1
  Nd  Nd9  1  0.75000000  0.00000000  0.50000000  1
  Sn  Sn10  1  0.75000000  0.50000000  0.00000000  1
  Sn  Sn11  1  0.25000000  0.00000000  0.50000000  1
  Ni  Ni12  1  0.23258300  0.86569400  0.13430600  1
  Ni  Ni13  1  0.23258300  0.13430600  0.86569400  1
  Ni  Ni14  1  0.73258300  0.36569400  0.36569400  1
  Ni  Ni15  1  0.73258300  0.63430600  0.63430600  1
  Sn  Sn16  1  0.76741700  0.13430600  0.86569400  1
  Ni  Ni17  1  0.76741700  0.86569400  0.13430600  1
  Ni  Ni18  1  0.26741700  0.63430600  0.63430600  1
  Ni  Ni19  1  0.26741700  0.36569400  0.36569400  1
