# generated using pymatgen
data_Ba2Li2Mn2O9
_symmetry_space_group_name_H-M   'P 1'
_cell_length_a   5.86239815
_cell_length_b   5.86239815
_cell_length_c   7.19450188
_cell_angle_alpha   90.00000000
_cell_angle_beta   90.00000000
_cell_angle_gamma   120.00000000
_symmetry_Int_Tables_number   1
_chemical_formula_structural   Ba2Li2Mn2O9
_chemical_formula_sum   'Ba2 Li2 Mn2 O9'
_cell_volume   214.13220187
_cell_formula_units_Z   1
loop_
 _symmetry_equiv_pos_site_id
 _symmetry_equiv_pos_as_xyz
  1  'x, y, z'
loop_
 _atom_site_type_symbol
 _atom_site_label
 _atom_site_symmetry_multiplicity
 _atom_site_fract_x
 _atom_site_fract_y
 _atom_site_fract_z
 _atom_site_occupancy
  Li  Li0  1  0.00000000  0.00000000  0.00000000  1
  Ba  Ba1  1  0.66666666  0.33333335  0.33199501  1
  Ba  Ba2  1  0.33333335  0.66666670  0.66800501  1
  Li  Li3  1  0.00000000  0.00000000  0.50000001  1
  Mn  Mn4  1  0.66666666  0.33333335  0.82070101  1
  Mn  Mn5  1  0.33333335  0.66666670  0.17929900  1
  O  O6  1  0.17129001  0.34258002  0.32620701  1
  O  O7  1  0.17129003  0.82871005  0.32620701  1
  O  O8  1  0.65742002  0.82871005  0.32620701  1
  O  O9  1  0.34258000  0.17129001  0.67379301  1
  O  O10  1  0.82870999  0.17129001  0.67379301  1
  O  O11  1  0.82871001  0.65742004  0.67379301  1
  O  O12  1  0.50000001  0.50000003  -0.00000000  1
  O  O13  1  0.00000002  0.50000003  -0.00000000  1
  O  O14  1  0.50000003  1.00000005  -0.00000000  1
