# generated using pymatgen
data_CaO2
_symmetry_space_group_name_H-M   'P 1'
_cell_length_a   6.82721853
_cell_length_b   6.82721853
_cell_length_c   6.82721853
_cell_angle_alpha   106.83650970
_cell_angle_beta   106.83650970
_cell_angle_gamma   114.87982941
_symmetry_Int_Tables_number   1
_chemical_formula_structural   CaO2
_chemical_formula_sum   'Ca4 O8'
_cell_volume   243.31530458
_cell_formula_units_Z   4
loop_
 _symmetry_equiv_pos_site_id
 _symmetry_equiv_pos_as_xyz
  1  'x, y, z'
loop_
 _atom_site_type_symbol
 _atom_site_label
 _atom_site_symmetry_multiplicity
 _atom_site_fract_x
 _atom_site_fract_y
 _atom_site_fract_z
 _atom_site_occupancy
  Ca  Ca0  1  0.24999996  0.74999997  0.49999999  1
  Ca  Ca1  1  0.49999997  0.49999998  0.00000000  1
  Ca  Ca2  1  0.74999998  0.24999999  0.50000000  1
  Ca  Ca3  1  0.00000000  0.00000000  0.00000000  1
  O  O4  1  0.02545796  0.84849697  0.17696099  1
  O  O5  1  0.67153595  0.84849697  0.82303899  1
  O  O6  1  0.59849698  0.27545799  0.67696100  1
  O  O7  1  0.59849695  0.92153597  0.32303899  1
  O  O8  1  0.72454197  0.40150299  0.32303900  1
  O  O9  1  0.07846398  0.40150299  0.67696099  1
  O  O10  1  0.15150295  0.97454197  0.82303898  1
  O  O11  1  0.15150298  0.32846399  0.17696100  1
