# generated using pymatgen
data_LaCe2SmBH11
_symmetry_space_group_name_H-M   'P 1'
_cell_length_a   5.19944477
_cell_length_b   5.66993809
_cell_length_c   6.18205595
_cell_angle_alpha   90.00000000
_cell_angle_beta   90.00000000
_cell_angle_gamma   90.00000000
_symmetry_Int_Tables_number   1
_chemical_formula_structural   LaCe2SmBH11
_chemical_formula_sum   'La1 Ce2 Sm1 B1 H11'
_cell_volume   182.25028553
_cell_formula_units_Z   1
loop_
 _symmetry_equiv_pos_site_id
 _symmetry_equiv_pos_as_xyz
  1  'x, y, z'
loop_
 _atom_site_type_symbol
 _atom_site_label
 _atom_site_symmetry_multiplicity
 _atom_site_fract_x
 _atom_site_fract_y
 _atom_site_fract_z
 _atom_site_occupancy
  Sm  Sm0  1  0.25000001  0.01101800  0.32947100  1
  La  La1  1  0.25000001  0.51101799  0.17052900  1
  Ce  Ce2  1  0.75000003  0.98898198  0.67052901  1
  Ce  Ce3  1  0.75000003  0.48898199  0.82947101  1
  B  B4  1  0.08048400  0.35537999  0.53369800  1
  H  H5  1  0.41951602  0.85537999  0.96630201  1
  H  H6  1  0.58048403  0.64461999  0.46630200  1
  H  H7  1  0.91951604  0.14462000  0.03369800  1
  H  H8  1  0.91951604  0.64461999  0.46630200  1
  H  H9  1  0.58048403  0.14462000  0.03369800  1
  H  H10  1  0.41951602  0.35537999  0.53369800  1
  H  H11  1  0.08048400  0.85537999  0.96630201  1
  H  H12  1  0.25000001  0.17757900  0.82047701  1
  H  H13  1  0.25000001  0.67757899  0.67952301  1
  H  H14  1  0.75000003  0.82242099  0.17952300  1
  H  H15  1  0.75000003  0.32242100  0.32047700  1
