# generated using pymatgen
data_Li2Ca3MgMnCrO8
_symmetry_space_group_name_H-M   'P 1'
_cell_length_a   5.66420984
_cell_length_b   6.21681118
_cell_length_c   7.46587992
_cell_angle_alpha   90.00000000
_cell_angle_beta   90.00000000
_cell_angle_gamma   90.00000000
_symmetry_Int_Tables_number   1
_chemical_formula_structural   Li2Ca3MgMnCrO8
_chemical_formula_sum   'Li2 Ca3 Mg1 Mn1 Cr1 O8'
_cell_volume   262.89844157
_cell_formula_units_Z   1
loop_
 _symmetry_equiv_pos_site_id
 _symmetry_equiv_pos_as_xyz
  1  'x, y, z'
loop_
 _atom_site_type_symbol
 _atom_site_label
 _atom_site_symmetry_multiplicity
 _atom_site_fract_x
 _atom_site_fract_y
 _atom_site_fract_z
 _atom_site_occupancy
  Mg  Mg0  1  0.50416601  0.82817098  0.25580400  1
  Ca  Ca1  1  0.00416600  0.17182900  0.24419600  1
  Ca  Ca2  1  0.00416600  0.17182900  0.75580401  1
  Li  Li3  1  0.50416601  0.82817098  0.74419601  1
  Li  Li4  1  0.49974301  0.34081599  0.00000000  1
  Ca  Ca5  1  0.99974303  0.65918398  0.50000001  1
  Cr  Cr6  1  0.01450300  0.67521198  -0.00000000  1
  Mn  Mn7  1  0.51450301  0.32478799  0.50000001  1
  O  O8  1  0.92016803  0.80464798  0.21535800  1
  O  O9  1  0.42016801  0.19535199  0.28464200  1
  O  O10  1  0.42016801  0.19535199  0.71535801  1
  O  O11  1  0.92016803  0.80464798  0.78464201  1
  O  O12  1  0.34442701  0.69202598  0.00000000  1
  O  O13  1  0.84442702  0.30797399  0.50000001  1
  O  O14  1  0.90556003  0.39008499  0.00000000  1
  O  O15  1  0.40556001  0.60991598  0.50000001  1
