# generated using pymatgen
data_Ca3MnSiP12
_symmetry_space_group_name_H-M   'P 1'
_cell_length_a   5.61108589
_cell_length_b   5.61108589
_cell_length_c   8.60074902
_cell_angle_alpha   90.00000000
_cell_angle_beta   90.00000000
_cell_angle_gamma   120.00000000
_symmetry_Int_Tables_number   1
_chemical_formula_structural   Ca3MnSiP12
_chemical_formula_sum   'Ca3 Mn1 Si1 P12'
_cell_volume   234.50966136
_cell_formula_units_Z   1
loop_
 _symmetry_equiv_pos_site_id
 _symmetry_equiv_pos_as_xyz
  1  'x, y, z'
loop_
 _atom_site_type_symbol
 _atom_site_label
 _atom_site_symmetry_multiplicity
 _atom_site_fract_x
 _atom_site_fract_y
 _atom_site_fract_z
 _atom_site_occupancy
  Ca  Ca0  1  0.00000000  0.00000000  0.29385300  1
  Ca  Ca1  1  0.00000000  0.00000000  0.70614700  1
  Mn  Mn2  1  0.33333334  0.66666668  -0.00000000  1
  Ca  Ca3  1  0.66666668  0.33333334  -0.00000000  1
  P  P4  1  0.33333334  0.66666668  0.33249500  1
  Si  Si5  1  0.66666668  0.33333334  0.33249500  1
  P  P6  1  0.66666668  0.33333334  0.66750500  1
  P  P7  1  0.33333334  0.66666668  0.66750500  1
  P  P8  1  0.50000001  0.00000000  0.16434300  1
  P  P9  1  0.50000001  0.50000001  0.16434300  1
  P  P10  1  -0.00000000  0.50000001  0.16434300  1
  P  P11  1  0.50000001  0.00000000  0.83565700  1
  P  P12  1  0.50000001  0.50000001  0.83565700  1
  P  P13  1  -0.00000000  0.50000001  0.83565700  1
  P  P14  1  0.50000001  0.00000000  0.50000000  1
  P  P15  1  0.50000001  0.50000001  0.50000000  1
  P  P16  1  -0.00000000  0.50000001  0.50000000  1
