# generated using pymatgen
data_Hf4Ni7Sn
_symmetry_space_group_name_H-M   'P 1'
_cell_length_a   5.24206161
_cell_length_b   5.24193478
_cell_length_c   8.76665020
_cell_angle_alpha   90.00000000
_cell_angle_beta   90.00000000
_cell_angle_gamma   119.85107422
_symmetry_Int_Tables_number   1
_chemical_formula_structural   Hf4Ni7Sn
_chemical_formula_sum   'Hf4 Ni7 Sn1'
_cell_volume   208.93337736
_cell_formula_units_Z   1
loop_
 _symmetry_equiv_pos_site_id
 _symmetry_equiv_pos_as_xyz
  1  'x, y, z'
loop_
 _atom_site_type_symbol
 _atom_site_label
 _atom_site_symmetry_multiplicity
 _atom_site_fract_x
 _atom_site_fract_y
 _atom_site_fract_z
 _atom_site_occupancy
  Hf  Hf0  1  0.33333330  0.66661200  0.56264499  1
  Hf  Hf1  1  0.66936697  0.33064500  0.43553399  1
  Hf  Hf2  1  0.66936697  0.33064500  0.06446600  1
  Hf  Hf3  1  0.33333330  0.66661200  0.93735498  1
  Ni  Ni4  1  0.99690297  0.00311900  0.49546999  1
  Ni  Ni5  1  0.99690297  0.00311900  0.00453000  1
  Ni  Ni6  1  0.34042998  0.16846900  0.74999998  1
  Ni  Ni7  1  0.83152595  0.65957300  0.74999998  1
  Ni  Ni8  1  0.83115097  0.16885800  0.74999998  1
  Ni  Ni9  1  0.64627095  0.82183100  0.24999999  1
  Ni  Ni10  1  0.17815598  0.35371100  0.24999999  1
  Sn  Sn11  1  0.17319396  0.82680500  0.24999999  1
