# generated using pymatgen
data_Li7MnP10
_symmetry_space_group_name_H-M   'P 1'
_cell_length_a   5.72182894
_cell_length_b   6.30158281
_cell_length_c   9.99319935
_cell_angle_alpha   90.00000000
_cell_angle_beta   90.00000000
_cell_angle_gamma   115.48371124
_symmetry_Int_Tables_number   1
_chemical_formula_structural   Li7MnP10
_chemical_formula_sum   'Li7 Mn1 P10'
_cell_volume   325.26414066
_cell_formula_units_Z   1
loop_
 _symmetry_equiv_pos_site_id
 _symmetry_equiv_pos_as_xyz
  1  'x, y, z'
loop_
 _atom_site_type_symbol
 _atom_site_label
 _atom_site_symmetry_multiplicity
 _atom_site_fract_x
 _atom_site_fract_y
 _atom_site_fract_z
 _atom_site_occupancy
  Li  Li0  1  0.61766105  0.98357701  0.80707497  1
  Li  Li1  1  0.38233900  0.01642300  0.19292499  1
  Li  Li2  1  0.38233903  0.51642301  0.30707499  1
  Li  Li3  1  0.61766103  0.48357700  0.69292498  1
  Li  Li4  1  0.26028903  0.50094901  0.87156897  1
  Li  Li5  1  0.73971103  0.49905101  0.12843100  1
  Li  Li6  1  0.73971106  0.99905101  0.37156899  1
  Mn  Mn7  1  0.26028900  0.00094900  0.62843098  1
  P  P8  1  0.00000002  0.50000001  0.49999998  1
  P  P9  1  0.00000000  0.00000000  0.00000000  1
  P  P10  1  0.01334404  0.73438901  0.81285797  1
  P  P11  1  0.98665602  0.26561100  0.18714199  1
  P  P12  1  0.98665605  0.76561101  0.31285799  1
  P  P13  1  0.01334401  0.23438900  0.68714198  1
  P  P14  1  0.47025004  0.73984701  0.55515998  1
  P  P15  1  0.52975002  0.26015300  0.44483998  1
  P  P16  1  0.52975004  0.76015301  0.05516000  1
  P  P17  1  0.47025002  0.23984700  0.94483997  1
