# generated using pymatgen
data_La8Bi9Pb
_symmetry_space_group_name_H-M   'P 1'
_cell_length_a   7.18835783
_cell_length_b   9.67636395
_cell_length_c   9.67636395
_cell_angle_alpha   120.00000000
_cell_angle_beta   90.00000000
_cell_angle_gamma   90.00000000
_symmetry_Int_Tables_number   1
_chemical_formula_structural   La8Bi9Pb
_chemical_formula_sum   'La8 Bi9 Pb1'
_cell_volume   582.88745520
_cell_formula_units_Z   1
loop_
 _symmetry_equiv_pos_site_id
 _symmetry_equiv_pos_as_xyz
  1  'x, y, z'
loop_
 _atom_site_type_symbol
 _atom_site_label
 _atom_site_symmetry_multiplicity
 _atom_site_fract_x
 _atom_site_fract_y
 _atom_site_fract_z
 _atom_site_occupancy
  La  La0  1  0.75000002  0.23074500  -0.00000000  1
  La  La1  1  0.75000002  0.76925500  0.76925500  1
  La  La2  1  0.75000002  1.00000001  0.23074500  1
  La  La3  1  0.25000001  0.76925500  1.00000000  1
  La  La4  1  0.25000001  0.23074500  0.23074500  1
  La  La5  1  0.25000001  1.00000001  0.76925500  1
  La  La6  1  0.50000001  0.33333334  0.66666667  1
  La  La7  1  0.50000001  0.66666667  0.33333333  1
  Bi  Bi8  1  1.00000002  0.66666667  0.33333333  1
  Bi  Bi9  1  -0.00000000  0.33333334  0.66666667  1
  Bi  Bi10  1  0.50000001  0.00000000  -0.00000000  1
  Bi  Bi11  1  0.00000000  0.00000000  0.00000000  1
  Bi  Bi12  1  0.75000002  0.59555600  -0.00000000  1
  Bi  Bi13  1  0.75000002  0.40444400  0.40444400  1
  Bi  Bi14  1  0.75000002  1.00000001  0.59555600  1
  Bi  Bi15  1  0.25000001  0.40444400  -0.00000000  1
  Pb  Pb16  1  0.25000001  0.59555600  0.59555600  1
  Bi  Bi17  1  0.25000001  1.00000001  0.40444400  1
