# generated using pymatgen
data_LiMn2
_symmetry_space_group_name_H-M   'P 1'
_cell_length_a   4.26363802
_cell_length_b   4.26363802
_cell_length_c   18.29459763
_cell_angle_alpha   90.00000000
_cell_angle_beta   90.00000000
_cell_angle_gamma   120.00000000
_symmetry_Int_Tables_number   1
_chemical_formula_structural   LiMn2
_chemical_formula_sum   'Li4 Mn8'
_cell_volume   288.01436300
_cell_formula_units_Z   4
loop_
 _symmetry_equiv_pos_site_id
 _symmetry_equiv_pos_as_xyz
  1  'x, y, z'
loop_
 _atom_site_type_symbol
 _atom_site_label
 _atom_site_symmetry_multiplicity
 _atom_site_fract_x
 _atom_site_fract_y
 _atom_site_fract_z
 _atom_site_occupancy
  Li  Li0  1  0.66666667  0.33333335  0.87373602  1
  Li  Li1  1  0.66666667  0.33333335  0.37495401  1
  Li  Li2  1  0.66666667  0.33333335  0.62504601  1
  Li  Li3  1  0.66666667  0.33333335  0.12626400  1
  Mn  Mn4  1  0.33333335  0.66666670  0.50000001  1
  Mn  Mn5  1  0.00000000  0.00000000  0.75090402  1
  Mn  Mn6  1  0.00000000  0.00000000  0.24909601  1
  Mn  Mn7  1  0.33333335  0.66666670  0.74893002  1
  Mn  Mn8  1  0.33333335  0.66666670  0.25107001  1
  Mn  Mn9  1  0.00000000  0.00000000  0.00000000  1
  Mn  Mn10  1  0.00000000  0.00000000  0.50000001  1
  Mn  Mn11  1  0.33333335  0.66666670  1.00000002  1
