# generated using pymatgen
data_Nd3Sn
_symmetry_space_group_name_H-M   'P 1'
_cell_length_a   8.62865829
_cell_length_b   8.62865829
_cell_length_c   10.25798512
_cell_angle_alpha   114.87136841
_cell_angle_beta   114.87136841
_cell_angle_gamma   90.00000000
_symmetry_Int_Tables_number   1
_chemical_formula_structural   Nd3Sn
_chemical_formula_sum   'Nd12 Sn4'
_cell_volume   613.95854431
_cell_formula_units_Z   4
loop_
 _symmetry_equiv_pos_site_id
 _symmetry_equiv_pos_as_xyz
  1  'x, y, z'
loop_
 _atom_site_type_symbol
 _atom_site_label
 _atom_site_symmetry_multiplicity
 _atom_site_fract_x
 _atom_site_fract_y
 _atom_site_fract_z
 _atom_site_occupancy
  Nd  Nd0  1  0.49999998  0.49999998  -0.00000001  1
  Nd  Nd1  1  0.00000000  0.00000000  0.00000000  1
  Nd  Nd2  1  0.53471197  0.68296097  0.71767297  1
  Nd  Nd3  1  0.18296099  0.03471200  0.71767299  1
  Nd  Nd4  1  0.03471199  0.53471198  0.71767298  1
  Nd  Nd5  1  0.68296097  0.18296099  0.71767298  1
  Nd  Nd6  1  0.46528798  0.31703899  0.28232699  1
  Nd  Nd7  1  0.81703896  0.96528796  0.28232698  1
  Nd  Nd8  1  0.96528796  0.46528798  0.28232698  1
  Nd  Nd9  1  0.31703898  0.81703897  0.28232698  1
  Nd  Nd10  1  0.24999999  0.24999999  0.49999999  1
  Nd  Nd11  1  0.74999996  0.74999997  0.49999998  1
  Sn  Sn12  1  0.87877396  0.62122597  -0.00000001  1
  Sn  Sn13  1  0.12122599  0.37877398  0.99999998  1
  Sn  Sn14  1  0.37877398  0.87877396  -0.00000001  1
  Sn  Sn15  1  0.62122597  0.12122600  -0.00000001  1
