# generated using pymatgen
data_Li2VO5
_symmetry_space_group_name_H-M   'P 1'
_cell_length_a   3.05319905
_cell_length_b   3.06649590
_cell_length_c   7.50933266
_cell_angle_alpha   100.96031189
_cell_angle_beta   90.00000000
_cell_angle_gamma   90.00000000
_symmetry_Int_Tables_number   1
_chemical_formula_structural   Li2VO5
_chemical_formula_sum   'Li2 V1 O5'
_cell_volume   69.02458341
_cell_formula_units_Z   1
loop_
 _symmetry_equiv_pos_site_id
 _symmetry_equiv_pos_as_xyz
  1  'x, y, z'
loop_
 _atom_site_type_symbol
 _atom_site_label
 _atom_site_symmetry_multiplicity
 _atom_site_fract_x
 _atom_site_fract_y
 _atom_site_fract_z
 _atom_site_occupancy
  Li  Li0  1  0.74999999  0.57023902  0.21909800  1
  Li  Li1  1  0.25000000  0.42976101  0.78090202  1
  V  V2  1  0.74999999  0.88972003  0.77968702  1
  O  O3  1  0.25000000  0.11028000  0.22031301  1
  O  O4  1  0.25000000  0.90494703  0.61979601  1
  O  O5  1  0.74999999  0.09505300  0.38020401  1
  O  O6  1  0.25000000  0.68029302  0.37894201  1
  O  O7  1  0.74999999  0.31970701  0.62105802  1
