# generated using pymatgen
data_Li3MgGa2
_symmetry_space_group_name_H-M   'P 1'
_cell_length_a   5.30408669
_cell_length_b   5.30408669
_cell_length_c   5.30408669
_cell_angle_alpha   104.90889740
_cell_angle_beta   104.90889740
_cell_angle_gamma   119.04093170
_symmetry_Int_Tables_number   1
_chemical_formula_structural   Li3MgGa2
_chemical_formula_sum   'Li3 Mg1 Ga2'
_cell_volume   112.43219622
_cell_formula_units_Z   1
loop_
 _symmetry_equiv_pos_site_id
 _symmetry_equiv_pos_as_xyz
  1  'x, y, z'
loop_
 _atom_site_type_symbol
 _atom_site_label
 _atom_site_symmetry_multiplicity
 _atom_site_fract_x
 _atom_site_fract_y
 _atom_site_fract_z
 _atom_site_occupancy
  Li  Li0  1  0.08402003  0.91597906  0.50000005  1
  Li  Li1  1  0.41598004  0.58402104  0.50000004  1
  Li  Li2  1  0.91598006  0.41598003  0.83196006  1
  Mg  Mg3  1  0.58402003  0.08402001  0.16804002  1
  Ga  Ga4  1  0.00000000  0.00000000  0.00000000  1
  Ga  Ga5  1  0.50000004  0.50000003  0.00000002  1
