# generated using pymatgen
data_LiVO4
_symmetry_space_group_name_H-M   'P 1'
_cell_length_a   5.08240175
_cell_length_b   5.32201719
_cell_length_c   6.51893187
_cell_angle_alpha   111.79687500
_cell_angle_beta   110.56072998
_cell_angle_gamma   95.42874146
_symmetry_Int_Tables_number   1
_chemical_formula_structural   LiVO4
_chemical_formula_sum   'Li2 V2 O8'
_cell_volume   148.06911404
_cell_formula_units_Z   2
loop_
 _symmetry_equiv_pos_site_id
 _symmetry_equiv_pos_as_xyz
  1  'x, y, z'
loop_
 _atom_site_type_symbol
 _atom_site_label
 _atom_site_symmetry_multiplicity
 _atom_site_fract_x
 _atom_site_fract_y
 _atom_site_fract_z
 _atom_site_occupancy
  Li  Li0  1  0.61857901  0.36857900  0.73715798  1
  Li  Li1  1  0.38142101  0.63142100  0.26284199  1
  V  V2  1  0.14780701  0.89780700  0.79561400  1
  V  V3  1  0.85219301  0.10219300  0.20438597  1
  O  O4  1  0.99886301  0.21425900  0.93682097  1
  O  O5  1  0.43795801  0.72256200  0.93682099  1
  O  O6  1  0.00113701  0.78574100  0.06317900  1
  O  O7  1  0.56204201  0.27743800  0.06317898  1
  O  O8  1  0.79012601  0.63094500  0.57970698  1
  O  O9  1  0.28958101  0.94876200  0.57970699  1
  O  O10  1  0.20987401  0.36905500  0.42029299  1
  O  O11  1  0.71041901  0.05123800  0.42029298  1
