# generated using pymatgen
data_CeAl2Si3
_symmetry_space_group_name_H-M   'P 1'
_cell_length_a   4.12918997
_cell_length_b   6.51772785
_cell_length_c   8.12179470
_cell_angle_alpha   90.00000000
_cell_angle_beta   104.72644043
_cell_angle_gamma   90.00000000
_symmetry_Int_Tables_number   1
_chemical_formula_structural   CeAl2Si3
_chemical_formula_sum   'Ce2 Al4 Si6'
_cell_volume   211.40106722
_cell_formula_units_Z   2
loop_
 _symmetry_equiv_pos_site_id
 _symmetry_equiv_pos_as_xyz
  1  'x, y, z'
loop_
 _atom_site_type_symbol
 _atom_site_label
 _atom_site_symmetry_multiplicity
 _atom_site_fract_x
 _atom_site_fract_y
 _atom_site_fract_z
 _atom_site_occupancy
  Ce  Ce0  1  0.88256801  0.75000002  0.76513598  1
  Ce  Ce1  1  0.11743200  0.25000001  0.23486399  1
  Al  Al2  1  0.68988800  0.94846202  0.37977599  1
  Al  Al3  1  0.31011200  0.05153800  0.62022398  1
  Si  Si4  1  0.31011200  0.44846201  0.62022398  1
  Al  Al5  1  0.68988800  0.55153801  0.37977599  1
  Al  Al6  1  0.92501901  0.25000001  0.85003798  1
  Si  Si7  1  0.07498100  0.75000002  0.14996200  1
  Si  Si8  1  0.50000000  0.50000001  -0.00000000  1
  Si  Si9  1  0.50000000  1.00000002  -0.00000000  1
  Si  Si10  1  0.77717201  0.25000001  0.55434399  1
  Si  Si11  1  0.22282800  0.75000002  0.44565599  1
