# generated using pymatgen
data_Ce3GaPd10
_symmetry_space_group_name_H-M   'P 1'
_cell_length_a   4.24246597
_cell_length_b   8.15267181
_cell_length_c   8.15267181
_cell_angle_alpha   73.50067139
_cell_angle_beta   74.91873932
_cell_angle_gamma   74.91873932
_symmetry_Int_Tables_number   1
_chemical_formula_structural   Ce3GaPd10
_chemical_formula_sum   'Ce3 Ga1 Pd10'
_cell_volume   255.71689754
_cell_formula_units_Z   1
loop_
 _symmetry_equiv_pos_site_id
 _symmetry_equiv_pos_as_xyz
  1  'x, y, z'
loop_
 _atom_site_type_symbol
 _atom_site_label
 _atom_site_symmetry_multiplicity
 _atom_site_fract_x
 _atom_site_fract_y
 _atom_site_fract_z
 _atom_site_occupancy
  Ce  Ce0  1  0.00000000  0.00000000  0.00000000  1
  Ce  Ce1  1  0.30615897  0.69384096  0.69384098  1
  Ce  Ce2  1  0.69384099  0.30615898  0.30615899  1
  Ga  Ga3  1  -0.00000002  0.49999997  0.49999999  1
  Pd  Pd4  1  0.34349400  0.02663100  0.28637998  1
  Pd  Pd5  1  0.65650596  0.97336894  0.71361999  1
  Pd  Pd6  1  0.34349499  0.28637898  0.02663100  1
  Pd  Pd7  1  0.65650498  0.71362096  0.97336896  1
  Pd  Pd8  1  0.13728400  0.14610599  0.57932697  1
  Pd  Pd9  1  0.86271597  0.85389395  0.42067300  1
  Pd  Pd10  1  0.13728298  0.57932796  0.14610601  1
  Pd  Pd11  1  0.86271699  0.42067197  0.85389396  1
  Pd  Pd12  1  0.49999998  0.69289596  0.30710400  1
  Pd  Pd13  1  0.49999999  0.30710398  0.69289597  1
