# generated using pymatgen
data_NdSn
_symmetry_space_group_name_H-M   'P 1'
_cell_length_a   6.39547014
_cell_length_b   8.78872204
_cell_length_c   8.78872204
_cell_angle_alpha   120.00000000
_cell_angle_beta   90.00000000
_cell_angle_gamma   90.00000000
_symmetry_Int_Tables_number   1
_chemical_formula_structural   NdSn
_chemical_formula_sum   'Nd8 Sn8'
_cell_volume   427.81357971
_cell_formula_units_Z   8
loop_
 _symmetry_equiv_pos_site_id
 _symmetry_equiv_pos_as_xyz
  1  'x, y, z'
loop_
 _atom_site_type_symbol
 _atom_site_label
 _atom_site_symmetry_multiplicity
 _atom_site_fract_x
 _atom_site_fract_y
 _atom_site_fract_z
 _atom_site_occupancy
  Nd  Nd0  1  0.99999998  0.33333334  0.66666671  1
  Nd  Nd1  1  0.99999998  0.66666667  0.33333337  1
  Nd  Nd2  1  0.49999999  0.66666667  0.33333337  1
  Nd  Nd3  1  0.49999999  0.33333334  0.66666671  1
  Nd  Nd4  1  0.24999999  0.23937200  1.00000005  1
  Nd  Nd5  1  0.24999999  0.76062801  0.76062806  1
  Nd  Nd6  1  0.24999999  1.00000001  0.23937204  1
  Nd  Nd7  1  0.74999998  0.76062801  1.00000007  1
  Sn  Sn8  1  0.74999998  0.23937200  0.23937202  1
  Sn  Sn9  1  0.74999998  0.00000000  0.76062803  1
  Sn  Sn10  1  0.24999999  0.60635901  1.00000006  1
  Sn  Sn11  1  0.24999999  0.39364100  0.39364103  1
  Sn  Sn12  1  0.24999999  1.00000001  0.60635906  1
  Sn  Sn13  1  0.74999998  0.39364100  1.00000006  1
  Sn  Sn14  1  0.74999998  0.60635901  0.60635905  1
  Sn  Sn15  1  0.74999998  1.00000001  0.39364105  1
