# generated using pymatgen
data_Li5FeO8
_symmetry_space_group_name_H-M   'P 1'
_cell_length_a   6.25803804
_cell_length_b   6.26357269
_cell_length_c   6.26493025
_cell_angle_alpha   60.08374405
_cell_angle_beta   60.13369751
_cell_angle_gamma   60.03838730
_symmetry_Int_Tables_number   1
_chemical_formula_structural   Li5FeO8
_chemical_formula_sum   'Li5 Fe1 O8'
_cell_volume   173.98002046
_cell_formula_units_Z   1
loop_
 _symmetry_equiv_pos_site_id
 _symmetry_equiv_pos_as_xyz
  1  'x, y, z'
loop_
 _atom_site_type_symbol
 _atom_site_label
 _atom_site_symmetry_multiplicity
 _atom_site_fract_x
 _atom_site_fract_y
 _atom_site_fract_z
 _atom_site_occupancy
  Li  Li0  1  0.00000201  0.49999699  0.50000501  1
  Li  Li1  1  0.49999702  0.00000100  0.49999999  1
  Li  Li2  1  0.50000403  0.49999799  0.00000000  1
  Li  Li3  1  0.49999303  0.49999699  0.49999400  1
  Li  Li4  1  0.87527205  0.87442298  0.87506100  1
  Fe  Fe5  1  0.12472701  0.12557600  0.12493800  1
  O  O6  1  0.26723202  0.26895799  0.26620700  1
  O  O7  1  0.73155604  0.73468998  0.30269200  1
  O  O8  1  0.30231103  0.73272398  0.73327501  1
  O  O9  1  0.73256503  0.30260899  0.73199999  1
  O  O10  1  0.69769003  0.26727999  0.26672499  1
  O  O11  1  0.26743603  0.69739198  0.26800001  1
  O  O12  1  0.73276904  0.73103998  0.73379400  1
  O  O13  1  0.26844602  0.26531399  0.69730900  1
