# generated using pymatgen
data_Ga2Ni5
_symmetry_space_group_name_H-M   'P 1'
_cell_length_a   3.95453501
_cell_length_b   3.95453501
_cell_length_c   6.87116623
_cell_angle_alpha   90.00000000
_cell_angle_beta   90.00000000
_cell_angle_gamma   90.00000000
_symmetry_Int_Tables_number   1
_chemical_formula_structural   Ga2Ni5
_chemical_formula_sum   'Ga2 Ni5'
_cell_volume   107.45368265
_cell_formula_units_Z   1
loop_
 _symmetry_equiv_pos_site_id
 _symmetry_equiv_pos_as_xyz
  1  'x, y, z'
loop_
 _atom_site_type_symbol
 _atom_site_label
 _atom_site_symmetry_multiplicity
 _atom_site_fract_x
 _atom_site_fract_y
 _atom_site_fract_z
 _atom_site_occupancy
  Ga  Ga0  1  0.50000000  0.50000000  0.00000000  1
  Ga  Ga1  1  0.00000000  0.00000000  0.49999998  1
  Ni  Ni2  1  0.00000000  0.50000000  0.28696399  1
  Ni  Ni3  1  0.00000000  0.50000000  0.71303598  1
  Ni  Ni4  1  0.50000000  0.00000000  0.28696399  1
  Ni  Ni5  1  0.50000000  0.00000000  0.71303598  1
  Ni  Ni6  1  0.00000000  0.00000000  0.00000000  1
