# generated using pymatgen
data_CsBa2BiO4
_symmetry_space_group_name_H-M   'P 1'
_cell_length_a   4.74392414
_cell_length_b   4.74392414
_cell_length_c   9.41452885
_cell_angle_alpha   90.00000000
_cell_angle_beta   90.00000000
_cell_angle_gamma   90.00000000
_symmetry_Int_Tables_number   1
_chemical_formula_structural   CsBa2BiO4
_chemical_formula_sum   'Cs1 Ba2 Bi1 O4'
_cell_volume   211.87224182
_cell_formula_units_Z   1
loop_
 _symmetry_equiv_pos_site_id
 _symmetry_equiv_pos_as_xyz
  1  'x, y, z'
loop_
 _atom_site_type_symbol
 _atom_site_label
 _atom_site_symmetry_multiplicity
 _atom_site_fract_x
 _atom_site_fract_y
 _atom_site_fract_z
 _atom_site_occupancy
  Ba  Ba0  1  0.00000000  0.00000000  0.00000000  1
  Ba  Ba1  1  0.49999999  0.49999999  -0.00000000  1
  Cs  Cs2  1  -0.00000000  0.49999999  0.67467701  1
  Bi  Bi3  1  0.49999999  0.00000000  0.32532301  1
  O  O4  1  -0.00000000  0.49999999  0.30603500  1
  O  O5  1  0.49999999  0.00000000  0.69396501  1
  O  O6  1  -0.00000000  0.49999999  0.91730601  1
  O  O7  1  0.49999999  0.00000000  0.08269400  1
