# generated using pymatgen
data_BaSr2CaNiTeO11
_symmetry_space_group_name_H-M   'P 1'
_cell_length_a   3.98722196
_cell_length_b   3.98722196
_cell_length_c   13.56230450
_cell_angle_alpha   98.45291138
_cell_angle_beta   98.45291138
_cell_angle_gamma   90.00000000
_symmetry_Int_Tables_number   1
_chemical_formula_structural   BaSr2CaNiTeO11
_chemical_formula_sum   'Ba1 Sr2 Ca1 Ni1 Te1 O11'
_cell_volume   210.90228029
_cell_formula_units_Z   1
loop_
 _symmetry_equiv_pos_site_id
 _symmetry_equiv_pos_as_xyz
  1  'x, y, z'
loop_
 _atom_site_type_symbol
 _atom_site_label
 _atom_site_symmetry_multiplicity
 _atom_site_fract_x
 _atom_site_fract_y
 _atom_site_fract_z
 _atom_site_occupancy
  Ca  Ca0  1  0.25000002  0.75000002  0.50000001  1
  Sr  Sr1  1  0.75000002  0.25000001  0.50000001  1
  Sr  Sr2  1  0.41507002  0.41507001  0.83014000  1
  Ba  Ba3  1  0.58493002  0.58493001  0.16986002  1
  Ni  Ni4  1  0.84550003  0.84550002  0.69100002  1
  Te  Te5  1  0.00000000  0.00000000  0.00000000  1
  O  O6  1  0.15450001  0.15450000  0.30900000  1
  O  O7  1  0.35552302  0.85552302  0.71104601  1
  O  O8  1  0.77394503  0.77394502  0.54789002  1
  O  O9  1  0.22605501  0.22605500  0.45211000  1
  O  O10  1  0.50000001  0.00000000  0.00000001  1
  O  O11  1  0.85552302  0.35552301  0.71104601  1
  O  O12  1  1.00000003  0.50000001  1.00000001  1
  O  O13  1  0.92517503  0.92517502  0.85035002  1
  O  O14  1  0.07482500  0.07482500  0.14965000  1
  O  O15  1  0.14447701  0.64447701  0.28895401  1
  O  O16  1  0.64447702  0.14447700  0.28895401  1
