# generated using pymatgen
data_La10Bi5IO2
_symmetry_space_group_name_H-M   'P 1'
_cell_length_a   6.92606783
_cell_length_b   9.78788567
_cell_length_c   9.78788567
_cell_angle_alpha   120.00000000
_cell_angle_beta   90.00000000
_cell_angle_gamma   90.00000000
_symmetry_Int_Tables_number   1
_chemical_formula_structural   La10Bi5IO2
_chemical_formula_sum   'La10 Bi5 I1 O2'
_cell_volume   574.63906579
_cell_formula_units_Z   1
loop_
 _symmetry_equiv_pos_site_id
 _symmetry_equiv_pos_as_xyz
  1  'x, y, z'
loop_
 _atom_site_type_symbol
 _atom_site_label
 _atom_site_symmetry_multiplicity
 _atom_site_fract_x
 _atom_site_fract_y
 _atom_site_fract_z
 _atom_site_occupancy
  La  La0  1  0.75000002  0.73736903  0.73736903  1
  La  La1  1  0.25000001  0.26263101  0.26263101  1
  La  La2  1  0.75000002  0.00000000  0.26263101  1
  La  La3  1  0.25000001  1.00000004  0.73736903  1
  La  La4  1  0.75000002  0.26263101  0.00000000  1
  La  La5  1  0.25000001  0.73736903  0.00000000  1
  La  La6  1  1.00000002  0.66666669  0.33333335  1
  La  La7  1  1.00000002  0.33333335  0.66666669  1
  La  La8  1  0.50000001  0.33333335  0.66666669  1
  La  La9  1  0.50000001  0.66666669  0.33333335  1
  Bi  Bi10  1  0.75000002  0.38507301  0.38507302  1
  Bi  Bi11  1  0.25000001  0.61492702  0.61492703  1
  Bi  Bi12  1  0.75000002  0.00000000  0.61492702  1
  Bi  Bi13  1  0.25000001  1.00000004  0.38507302  1
  Bi  Bi14  1  0.75000002  0.61492702  0.00000000  1
  I  I15  1  0.25000001  0.38507301  0.00000000  1
  O  O16  1  0.00000000  0.00000000  0.00000000  1
  O  O17  1  0.50000001  0.00000000  -0.00000000  1
