# generated using pymatgen
data_Li(CeAl)2
_symmetry_space_group_name_H-M   'P 1'
_cell_length_a   4.75467062
_cell_length_b   4.75467062
_cell_length_c   5.62637568
_cell_angle_alpha   65.00532532
_cell_angle_beta   65.00532532
_cell_angle_gamma   59.99999237
_symmetry_Int_Tables_number   1
_chemical_formula_structural   Li(CeAl)2
_chemical_formula_sum   'Li1 Ce2 Al2'
_cell_volume   96.15334333
_cell_formula_units_Z   1
loop_
 _symmetry_equiv_pos_site_id
 _symmetry_equiv_pos_as_xyz
  1  'x, y, z'
loop_
 _atom_site_type_symbol
 _atom_site_label
 _atom_site_symmetry_multiplicity
 _atom_site_fract_x
 _atom_site_fract_y
 _atom_site_fract_z
 _atom_site_occupancy
  Ce  Ce0  1  0.59622398  0.59622399  0.21132805  1
  Li  Li1  1  0.40377599  0.40377599  0.78867202  1
  Ce  Ce2  1  0.00000000  0.00000000  0.00000000  1
  Al  Al3  1  0.20888699  0.20888700  0.37333901  1
  Al  Al4  1  0.79111298  0.79111299  0.62666106  1
