# generated using pymatgen
data_CeGa3
_symmetry_space_group_name_H-M   'P 1'
_cell_length_a   5.57353973
_cell_length_b   5.57353973
_cell_length_c   9.65379143
_cell_angle_alpha   73.22159576
_cell_angle_beta   73.22159576
_cell_angle_gamma   60.00000000
_symmetry_Int_Tables_number   1
_chemical_formula_structural   CeGa3
_chemical_formula_sum   'Ce3 Ga9'
_cell_volume   244.85854968
_cell_formula_units_Z   3
loop_
 _symmetry_equiv_pos_site_id
 _symmetry_equiv_pos_as_xyz
  1  'x, y, z'
loop_
 _atom_site_type_symbol
 _atom_site_label
 _atom_site_symmetry_multiplicity
 _atom_site_fract_x
 _atom_site_fract_y
 _atom_site_fract_z
 _atom_site_occupancy
  Ce  Ce0  1  0.18744400  0.18744401  0.43766801  1
  Ce  Ce1  1  0.81262898  0.81262903  0.56211303  1
  Ce  Ce2  1  0.31251899  0.31251901  0.06244301  1
  Ga  Ga3  1  0.68739899  0.68739903  0.93780303  1
  Ga  Ga4  1  0.00004400  0.00004400  0.99986801  1
  Ga  Ga5  1  0.50001999  0.50002002  0.49994002  1
  Ga  Ga6  1  0.24984498  0.75010803  0.75020203  1
  Ga  Ga7  1  0.74995500  0.25023601  0.24985402  1
  Ga  Ga8  1  0.75010800  0.24984501  0.75020202  1
  Ga  Ga9  1  0.25023598  0.74995503  0.24985402  1
  Ga  Ga10  1  0.24984499  0.24984501  0.75020202  1
  Ga  Ga11  1  0.74995498  0.74995503  0.24985403  1
