# generated using pymatgen
data_InCuAgBi
_symmetry_space_group_name_H-M   'P 1'
_cell_length_a   4.33433819
_cell_length_b   4.49713087
_cell_length_c   6.50250292
_cell_angle_alpha   90.00000000
_cell_angle_beta   109.46811676
_cell_angle_gamma   90.00000000
_symmetry_Int_Tables_number   1
_chemical_formula_structural   InCuAgBi
_chemical_formula_sum   'In1 Cu1 Ag1 Bi1'
_cell_volume   119.50083291
_cell_formula_units_Z   1
loop_
 _symmetry_equiv_pos_site_id
 _symmetry_equiv_pos_as_xyz
  1  'x, y, z'
loop_
 _atom_site_type_symbol
 _atom_site_label
 _atom_site_symmetry_multiplicity
 _atom_site_fract_x
 _atom_site_fract_y
 _atom_site_fract_z
 _atom_site_occupancy
  Bi  Bi0  1  0.62980897  0.75000002  0.25961800  1
  In  In1  1  0.37019098  0.25000001  0.74038201  1
  Cu  Cu2  1  0.86313296  0.75000002  0.72626600  1
  Ag  Ag3  1  0.13686699  0.25000001  0.27373400  1
