# generated using pymatgen
data_Hf2ZrTa2Ti2Ni
_symmetry_space_group_name_H-M   'P 1'
_cell_length_a   5.23696280
_cell_length_b   5.23696280
_cell_length_c   5.23696280
_cell_angle_alpha   90.00000000
_cell_angle_beta   90.00000000
_cell_angle_gamma   90.00000000
_symmetry_Int_Tables_number   1
_chemical_formula_structural   Hf2ZrTa2Ti2Ni
_chemical_formula_sum   'Hf2 Zr1 Ta2 Ti2 Ni1'
_cell_volume   143.62778592
_cell_formula_units_Z   1
loop_
 _symmetry_equiv_pos_site_id
 _symmetry_equiv_pos_as_xyz
  1  'x, y, z'
loop_
 _atom_site_type_symbol
 _atom_site_label
 _atom_site_symmetry_multiplicity
 _atom_site_fract_x
 _atom_site_fract_y
 _atom_site_fract_z
 _atom_site_occupancy
  Ta  Ta0  1  0.00000000  0.50000002  0.75874503  1
  Ta  Ta1  1  0.50000002  0.24125501  0.00000000  1
  Hf  Hf2  1  0.75874503  0.00000000  0.50000002  1
  Ti  Ti3  1  0.00000000  0.50000002  0.24125501  1
  Hf  Hf4  1  0.50000002  0.75874503  0.00000000  1
  Zr  Zr5  1  0.24125501  0.00000000  0.50000002  1
  Ti  Ti6  1  0.00000000  0.00000000  0.00000000  1
  Ni  Ni7  1  0.50000002  0.50000002  0.50000002  1
