# generated using pymatgen
data_Eu(Mg2Ge3)3
_symmetry_space_group_name_H-M   'P 1'
_cell_length_a   4.01730490
_cell_length_b   4.03918600
_cell_length_c   21.22891808
_cell_angle_alpha   90.00000000
_cell_angle_beta   90.00000000
_cell_angle_gamma   90.00000000
_symmetry_Int_Tables_number   1
_chemical_formula_structural   Eu(Mg2Ge3)3
_chemical_formula_sum   'Eu1 Mg6 Ge9'
_cell_volume   344.47404734
_cell_formula_units_Z   1
loop_
 _symmetry_equiv_pos_site_id
 _symmetry_equiv_pos_as_xyz
  1  'x, y, z'
loop_
 _atom_site_type_symbol
 _atom_site_label
 _atom_site_symmetry_multiplicity
 _atom_site_fract_x
 _atom_site_fract_y
 _atom_site_fract_z
 _atom_site_occupancy
  Mg  Mg0  1  0.25000001  0.26192000  0.61511603  1
  Eu  Eu1  1  0.25000001  0.23808000  0.11511601  1
  Mg  Mg2  1  0.75000002  0.73808000  0.38488402  1
  Mg  Mg3  1  0.75000002  0.76192000  0.88488404  1
  Mg  Mg4  1  0.25000001  0.76151400  0.75001803  1
  Mg  Mg5  1  0.25000001  0.73848600  0.25001801  1
  Mg  Mg6  1  0.75000002  0.23848600  0.24998201  1
  Ge  Ge7  1  0.75000002  0.26151400  0.74998203  1
  Ge  Ge8  1  0.25000001  0.26178800  0.84140504  1
  Ge  Ge9  1  0.25000001  0.23821200  0.34140501  1
  Ge  Ge10  1  0.75000002  0.73821200  0.15859501  1
  Ge  Ge11  1  0.75000002  0.76178800  0.65859503  1
  Ge  Ge12  1  0.25000001  0.78019700  0.50084102  1
  Ge  Ge13  1  0.25000001  0.71980300  0.00084100  1
  Ge  Ge14  1  0.75000002  0.21980300  0.49915902  1
  Ge  Ge15  1  0.75000002  0.28019700  0.99915904  1
