# generated using pymatgen
data_Nd7SnGe8
_symmetry_space_group_name_H-M   'P 1'
_cell_length_a   5.63169909
_cell_length_b   8.05471706
_cell_length_c   8.18881607
_cell_angle_alpha   90.00000000
_cell_angle_beta   90.00000000
_cell_angle_gamma   90.00000000
_symmetry_Int_Tables_number   1
_chemical_formula_structural   Nd7SnGe8
_chemical_formula_sum   'Nd7 Sn1 Ge8'
_cell_volume   371.45896778
_cell_formula_units_Z   1
loop_
 _symmetry_equiv_pos_site_id
 _symmetry_equiv_pos_as_xyz
  1  'x, y, z'
loop_
 _atom_site_type_symbol
 _atom_site_label
 _atom_site_symmetry_multiplicity
 _atom_site_fract_x
 _atom_site_fract_y
 _atom_site_fract_z
 _atom_site_occupancy
  Nd  Nd0  1  0.39880599  0.53355800  0.25000000  1
  Nd  Nd1  1  0.10119400  0.03355800  0.25000000  1
  Nd  Nd2  1  0.60119399  0.46644200  0.74999999  1
  Nd  Nd3  1  0.89880599  0.96644199  0.74999999  1
  Nd  Nd4  1  0.90495399  0.67182399  0.05546300  1
  Nd  Nd5  1  0.59504599  0.17182400  0.44453700  1
  Sn  Sn6  1  0.09504600  0.32817600  0.55546300  1
  Nd  Nd7  1  0.40495399  0.82817599  0.94453699  1
  Ge  Ge8  1  0.09504600  0.32817600  0.94453699  1
  Ge  Ge9  1  0.40495399  0.82817599  0.55546300  1
  Ge  Ge10  1  0.90495399  0.67182399  0.44453700  1
  Ge  Ge11  1  0.59504599  0.17182400  0.05546300  1
  Ge  Ge12  1  0.61752299  0.87807899  0.25000000  1
  Ge  Ge13  1  0.88247699  0.37807900  0.25000000  1
  Ge  Ge14  1  0.38247699  0.12192100  0.74999999  1
  Ge  Ge15  1  0.11752300  0.62192100  0.74999999  1
