# generated using pymatgen
data_Li2O2
_symmetry_space_group_name_H-M   'P 1'
_cell_length_a   5.02144289
_cell_length_b   5.08531809
_cell_length_c   7.92643213
_cell_angle_alpha   74.94056702
_cell_angle_beta   73.60722351
_cell_angle_gamma   81.99385071
_symmetry_Int_Tables_number   1
_chemical_formula_structural   Li2O2
_chemical_formula_sum   'Li8 O8'
_cell_volume   187.03407032
_cell_formula_units_Z   4
loop_
 _symmetry_equiv_pos_site_id
 _symmetry_equiv_pos_as_xyz
  1  'x, y, z'
loop_
 _atom_site_type_symbol
 _atom_site_label
 _atom_site_symmetry_multiplicity
 _atom_site_fract_x
 _atom_site_fract_y
 _atom_site_fract_z
 _atom_site_occupancy
  Li  Li0  1  0.67627101  0.50056399  0.45570100  1
  Li  Li1  1  0.12406201  0.98553098  0.31703798  1
  Li  Li2  1  0.89332902  0.99201598  0.67356000  1
  Li  Li3  1  0.00962801  0.50220499  0.99703198  1
  Li  Li4  1  0.70457801  0.01702100  0.09422902  1
  Li  Li5  1  0.31214801  0.99408198  0.89578298  1
  Li  Li6  1  0.04517001  0.78558699  0.12226998  1
  Li  Li7  1  0.36372901  0.21105100  0.05314100  1
  O  O8  1  0.09231500  0.21796500  0.46907699  1
  O  O9  1  0.19594701  0.75708399  0.78408998  1
  O  O10  1  0.47798701  0.81715399  0.30563599  1
  O  O11  1  0.54789801  0.18248900  0.68524600  1
  O  O12  1  0.81861401  0.25093200  0.21126901  1
  O  O13  1  0.90084602  0.76854199  0.51899800  1
  O  O14  1  0.65109502  0.79393099  0.94083199  1
  O  O15  1  0.96909601  0.22076000  0.87347001  1
