# generated using pymatgen
data_MgGa5
_symmetry_space_group_name_H-M   'P 1'
_cell_length_a   3.09504104
_cell_length_b   4.85597181
_cell_length_c   8.07613754
_cell_angle_alpha   90.00000000
_cell_angle_beta   101.04713440
_cell_angle_gamma   90.00000000
_symmetry_Int_Tables_number   1
_chemical_formula_structural   MgGa5
_chemical_formula_sum   'Mg1 Ga5'
_cell_volume   119.13057904
_cell_formula_units_Z   1
loop_
 _symmetry_equiv_pos_site_id
 _symmetry_equiv_pos_as_xyz
  1  'x, y, z'
loop_
 _atom_site_type_symbol
 _atom_site_label
 _atom_site_symmetry_multiplicity
 _atom_site_fract_x
 _atom_site_fract_y
 _atom_site_fract_z
 _atom_site_occupancy
  Mg  Mg0  1  0.00277000  0.00000000  0.00554000  1
  Ga  Ga1  1  0.33071500  0.00000000  0.66143002  1
  Ga  Ga2  1  0.66647599  1.00000004  0.33295201  1
  Ga  Ga3  1  0.44465299  0.50000002  0.88930603  1
  Ga  Ga4  1  0.11284100  0.50000002  0.22568201  1
  Ga  Ga5  1  0.77587699  0.50000002  0.55175402  1
