# generated using pymatgen
data_Li5FeO10
_symmetry_space_group_name_H-M   'P 1'
_cell_length_a   5.21822977
_cell_length_b   5.28666067
_cell_length_c   8.77785015
_cell_angle_alpha   104.93183899
_cell_angle_beta   90.00000000
_cell_angle_gamma   119.57273102
_symmetry_Int_Tables_number   1
_chemical_formula_structural   Li5FeO10
_chemical_formula_sum   'Li5 Fe1 O10'
_cell_volume   201.15405983
_cell_formula_units_Z   1
loop_
 _symmetry_equiv_pos_site_id
 _symmetry_equiv_pos_as_xyz
  1  'x, y, z'
loop_
 _atom_site_type_symbol
 _atom_site_label
 _atom_site_symmetry_multiplicity
 _atom_site_fract_x
 _atom_site_fract_y
 _atom_site_fract_z
 _atom_site_occupancy
  Li  Li0  1  0.21907102  0.69648501  0.61916801  1
  Li  Li1  1  0.52258603  0.30351500  0.38083201  1
  Li  Li2  1  0.80141104  0.78690101  0.12983701  1
  Li  Li3  1  0.01451000  0.21309900  0.87016302  1
  O  O4  1  0.20159101  0.50576101  0.75515802  1
  Li  Li5  1  0.16396201  0.00438500  0.79194502  1
  Fe  Fe6  1  0.15957702  0.99561502  0.20805501  1
  O  O7  1  0.83313004  0.49532801  0.54157101  1
  O  O8  1  0.69583003  0.49423901  0.24484201  1
  O  O9  1  0.79004503  0.00000000  0.00000000  1
  O  O10  1  0.33780202  0.50467201  0.45842901  1
  O  O11  1  0.66414204  0.98852002  0.29260701  1
  O  O12  1  0.67562203  0.01148000  0.70739301  1
  O  O13  1  0.29295201  0.00000000  0.50000001  1
  O  O14  1  0.81540704  0.50304701  0.95584602  1
  O  O15  1  0.31236002  0.49695301  0.04415400  1
