# generated using pymatgen
data_BaNd3NbFe5
_symmetry_space_group_name_H-M   'P 1'
_cell_length_a   6.26731682
_cell_length_b   8.03496838
_cell_length_c   8.03496838
_cell_angle_alpha   120.00000000
_cell_angle_beta   90.00000000
_cell_angle_gamma   90.00000000
_symmetry_Int_Tables_number   1
_chemical_formula_structural   BaNd3NbFe5
_chemical_formula_sum   'Ba1 Nd3 Nb1 Fe5'
_cell_volume   350.41333470
_cell_formula_units_Z   1
loop_
 _symmetry_equiv_pos_site_id
 _symmetry_equiv_pos_as_xyz
  1  'x, y, z'
loop_
 _atom_site_type_symbol
 _atom_site_label
 _atom_site_symmetry_multiplicity
 _atom_site_fract_x
 _atom_site_fract_y
 _atom_site_fract_z
 _atom_site_occupancy
  Ba  Ba0  1  0.25000001  0.33333332  0.66666669  1
  Nd  Nd1  1  0.75000002  0.66666665  0.33333337  1
  Nd  Nd2  1  0.00000000  0.00000000  0.00000000  1
  Nd  Nd3  1  0.50000001  0.00000000  -0.00000000  1
  Fe  Fe4  1  0.75000002  0.16324200  0.32648401  1
  Nb  Nb5  1  0.25000001  0.83675798  0.67351605  1
  Fe  Fe6  1  0.75000002  0.16324200  0.83675902  1
  Fe  Fe7  1  0.25000001  0.83675798  0.16324104  1
  Fe  Fe8  1  0.75000002  0.67351698  0.83675904  1
  Fe  Fe9  1  0.25000001  0.32648299  0.16324102  1
