# generated using pymatgen
data_SiH4
_symmetry_space_group_name_H-M   'P 1'
_cell_length_a   4.49441576
_cell_length_b   4.49706221
_cell_length_c   4.49812365
_cell_angle_alpha   89.89303589
_cell_angle_beta   89.75994873
_cell_angle_gamma   89.94808197
_symmetry_Int_Tables_number   1
_chemical_formula_structural   SiH4
_chemical_formula_sum   'Si1 H4'
_cell_volume   90.91358535
_cell_formula_units_Z   1
loop_
 _symmetry_equiv_pos_site_id
 _symmetry_equiv_pos_as_xyz
  1  'x, y, z'
loop_
 _atom_site_type_symbol
 _atom_site_label
 _atom_site_symmetry_multiplicity
 _atom_site_fract_x
 _atom_site_fract_y
 _atom_site_fract_z
 _atom_site_occupancy
  H  H0  1  0.99446104  0.99327303  0.98502201  1
  Si  Si1  1  0.48818002  0.49870702  0.49509601  1
  H  H2  1  0.48251802  0.99962803  0.49918501  1
  H  H3  1  0.98752704  0.50910402  0.51377099  1
  H  H4  1  0.48731402  0.49928602  0.99692603  1
