# generated using pymatgen
data_Li5Cu3O8
_symmetry_space_group_name_H-M   'P 1'
_cell_length_a   6.16841221
_cell_length_b   6.16841221
_cell_length_c   6.47711563
_cell_angle_alpha   61.56446457
_cell_angle_beta   61.56446457
_cell_angle_gamma   59.99999619
_symmetry_Int_Tables_number   1
_chemical_formula_structural   Li5Cu3O8
_chemical_formula_sum   'Li5 Cu3 O8'
_cell_volume   178.27407459
_cell_formula_units_Z   1
loop_
 _symmetry_equiv_pos_site_id
 _symmetry_equiv_pos_as_xyz
  1  'x, y, z'
loop_
 _atom_site_type_symbol
 _atom_site_label
 _atom_site_symmetry_multiplicity
 _atom_site_fract_x
 _atom_site_fract_y
 _atom_site_fract_z
 _atom_site_occupancy
  Li  Li0  1  0.50000001  0.00000000  0.50000001  1
  Li  Li1  1  0.00000000  0.00000000  0.00000000  1
  Li  Li2  1  -0.00000001  0.50000001  0.50000002  1
  Li  Li3  1  0.00000000  0.00000000  0.50000002  1
  Cu  Cu4  1  0.50000000  0.50000001  0.50000001  1
  Li  Li5  1  0.50000000  0.50000001  -0.00000000  1
  Cu  Cu6  1  -0.00000001  0.50000001  0.00000000  1
  Cu  Cu7  1  0.50000001  0.00000000  -0.00000000  1
  O  O8  1  0.73566300  0.73566301  0.79301102  1
  O  O9  1  0.24907000  0.24907000  0.79995402  1
  O  O10  1  0.24906999  0.70190601  0.79995402  1
  O  O11  1  0.75093000  0.29809401  0.20004600  1
  O  O12  1  0.29809399  0.75093001  0.20004600  1
  O  O13  1  0.26433700  0.26433700  0.20698901  1
  O  O14  1  0.70190600  0.24907000  0.79995402  1
  O  O15  1  0.75093000  0.75093001  0.20004600  1
