# generated using pymatgen
data_Nb5Mo3
_symmetry_space_group_name_H-M   'P 1'
_cell_length_a   4.65528202
_cell_length_b   5.75084782
_cell_length_c   5.75084782
_cell_angle_alpha   120.00000000
_cell_angle_beta   90.00000000
_cell_angle_gamma   90.00000000
_symmetry_Int_Tables_number   1
_chemical_formula_structural   Nb5Mo3
_chemical_formula_sum   'Nb5 Mo3'
_cell_volume   133.33383723
_cell_formula_units_Z   1
loop_
 _symmetry_equiv_pos_site_id
 _symmetry_equiv_pos_as_xyz
  1  'x, y, z'
loop_
 _atom_site_type_symbol
 _atom_site_label
 _atom_site_symmetry_multiplicity
 _atom_site_fract_x
 _atom_site_fract_y
 _atom_site_fract_z
 _atom_site_occupancy
  Nb  Nb0  1  0.75000000  0.16970700  0.83029296  1
  Nb  Nb1  1  0.25000000  0.83029301  0.66058594  1
  Nb  Nb2  1  0.25000000  0.33941400  0.16970698  1
  Nb  Nb3  1  0.75000000  0.66058601  0.83029294  1
  Nb  Nb4  1  0.75000000  0.16970700  0.33941398  1
  Mo  Mo5  1  0.25000000  0.83029301  0.16970696  1
  Mo  Mo6  1  0.75000000  0.66666667  0.33333329  1
  Mo  Mo7  1  0.25000000  0.33333334  0.66666663  1
