# generated using pymatgen
data_Li2MnBr4
_symmetry_space_group_name_H-M   'P 1'
_cell_length_a   8.40692425
_cell_length_b   8.40692425
_cell_length_c   8.40692425
_cell_angle_alpha   60.00000000
_cell_angle_beta   60.00000000
_cell_angle_gamma   60.00000000
_symmetry_Int_Tables_number   1
_chemical_formula_structural   Li2MnBr4
_chemical_formula_sum   'Li4 Mn2 Br8'
_cell_volume   420.14229613
_cell_formula_units_Z   2
loop_
 _symmetry_equiv_pos_site_id
 _symmetry_equiv_pos_as_xyz
  1  'x, y, z'
loop_
 _atom_site_type_symbol
 _atom_site_label
 _atom_site_symmetry_multiplicity
 _atom_site_fract_x
 _atom_site_fract_y
 _atom_site_fract_z
 _atom_site_occupancy
  Li  Li0  1  0.37499999  0.37499999  0.37499999  1
  Li  Li1  1  0.37499999  0.87499998  0.37499999  1
  Li  Li2  1  0.37499999  0.37499999  0.87499998  1
  Li  Li3  1  0.87499998  0.37499999  0.37499999  1
  Mn  Mn4  1  0.00000000  0.00000000  0.00000000  1
  Mn  Mn5  1  0.74999998  0.74999998  0.74999998  1
  Br  Br6  1  0.13497800  0.62167398  0.62167398  1
  Br  Br7  1  0.62167298  0.62167398  0.13497900  1
  Br  Br8  1  0.62167298  0.62167398  0.62167398  1
  Br  Br9  1  0.62167298  0.13497900  0.62167398  1
  Br  Br10  1  0.12832700  0.61502098  0.12832600  1
  Br  Br11  1  0.12832700  0.12832600  0.12832600  1
  Br  Br12  1  0.12832700  0.12832600  0.61502098  1
  Br  Br13  1  0.61502198  0.12832600  0.12832600  1
