# generated using pymatgen
data_H2O
_symmetry_space_group_name_H-M   'P 1'
_cell_length_a   5.37630224
_cell_length_b   5.37630224
_cell_length_c   5.37630224
_cell_angle_alpha   87.84071350
_cell_angle_beta   87.84071350
_cell_angle_gamma   87.84071350
_symmetry_Int_Tables_number   1
_chemical_formula_structural   H2O
_chemical_formula_sum   'H10 O5'
_cell_volume   155.07706940
_cell_formula_units_Z   5
loop_
 _symmetry_equiv_pos_site_id
 _symmetry_equiv_pos_as_xyz
  1  'x, y, z'
loop_
 _atom_site_type_symbol
 _atom_site_label
 _atom_site_symmetry_multiplicity
 _atom_site_fract_x
 _atom_site_fract_y
 _atom_site_fract_z
 _atom_site_occupancy
  H  H0  1  0.41397303  0.41397301  0.41397300  1
  H  H1  1  0.98243806  0.74836902  0.29635702  1
  H  H2  1  0.29635703  0.74836902  0.98243800  1
  H  H3  1  0.74836904  0.29635701  0.98243800  1
  H  H4  1  0.74836906  0.98243803  0.29635702  1
  H  H5  1  0.29635704  0.98243803  0.74836901  1
  H  H6  1  0.98243804  0.29635701  0.74836901  1
  H  H7  1  0.01478300  0.01478300  0.01478300  1
  H  H8  1  0.91172804  0.22241501  0.91172800  1
  H  H9  1  0.22241504  0.91172803  0.91172800  1
  O  O10  1  0.91172806  0.91172803  0.22241502  1
  O  O11  1  0.46575702  0.15497201  0.46575700  1
  O  O12  1  0.15497202  0.46575702  0.46575700  1
  O  O13  1  0.46575703  0.46575702  0.15497201  1
  O  O14  1  0.55856004  0.55856002  0.55856001  1
