# generated using pymatgen
data_Ce2DyTlS4
_symmetry_space_group_name_H-M   'P 1'
_cell_length_a   5.69324589
_cell_length_b   5.69324589
_cell_length_c   6.96329689
_cell_angle_alpha   114.12972260
_cell_angle_beta   114.12972260
_cell_angle_gamma   90.00000000
_symmetry_Int_Tables_number   1
_chemical_formula_structural   Ce2DyTlS4
_chemical_formula_sum   'Ce2 Dy1 Tl1 S4'
_cell_volume   184.15911104
_cell_formula_units_Z   1
loop_
 _symmetry_equiv_pos_site_id
 _symmetry_equiv_pos_as_xyz
  1  'x, y, z'
loop_
 _atom_site_type_symbol
 _atom_site_label
 _atom_site_symmetry_multiplicity
 _atom_site_fract_x
 _atom_site_fract_y
 _atom_site_fract_z
 _atom_site_occupancy
  Dy  Dy0  1  0.25000003  0.75000003  0.50000002  1
  Ce  Ce1  1  0.50000003  0.50000002  0.00000003  1
  Ce  Ce2  1  0.00000000  0.00000000  0.00000000  1
  Tl  Tl3  1  0.75000003  0.25000001  0.50000002  1
  S  S4  1  0.50042702  0.00042700  0.00085401  1
  S  S5  1  0.99957305  0.49957302  0.99914602  1
  S  S6  1  0.75042705  0.75042703  0.50085403  1
  S  S7  1  0.24957302  0.24957301  0.49914600  1
