# generated using pymatgen
data_KCu2TeO10
_symmetry_space_group_name_H-M   'P 1'
_cell_length_a   6.51184511
_cell_length_b   6.51184511
_cell_length_c   6.57519436
_cell_angle_alpha   104.75524902
_cell_angle_beta   104.75524902
_cell_angle_gamma   119.05595398
_symmetry_Int_Tables_number   1
_chemical_formula_structural   KCu2TeO10
_chemical_formula_sum   'K1 Cu2 Te1 O10'
_cell_volume   210.75732592
_cell_formula_units_Z   1
loop_
 _symmetry_equiv_pos_site_id
 _symmetry_equiv_pos_as_xyz
  1  'x, y, z'
loop_
 _atom_site_type_symbol
 _atom_site_label
 _atom_site_symmetry_multiplicity
 _atom_site_fract_x
 _atom_site_fract_y
 _atom_site_fract_z
 _atom_site_occupancy
  K  K0  1  0.00000000  0.00000000  0.00000000  1
  Te  Te1  1  0.24999997  0.75000000  0.50000000  1
  Cu  Cu2  1  0.93490802  0.06509200  0.50000002  1
  Cu  Cu3  1  0.56509199  0.43490800  0.50000001  1
  O  O4  1  0.31509197  0.68490800  0.99999999  1
  O  O5  1  0.68490800  0.31509200  1.00000000  1
  O  O6  1  0.84903502  0.03187200  0.16084002  1
  O  O7  1  0.87103199  0.68819500  0.83916002  1
  O  O8  1  0.31180500  0.12896800  0.16084001  1
  O  O9  1  0.96812802  0.15096500  0.83916001  1
  O  O10  1  0.28187198  0.59903500  0.66084000  1
  O  O11  1  0.93819499  0.62103200  0.33916003  1
  O  O12  1  0.37896801  0.06180500  0.66084000  1
  O  O13  1  0.40096497  0.71812800  0.33916001  1
