# generated using pymatgen
data_Li2InGaSn2
_symmetry_space_group_name_H-M   'P 1'
_cell_length_a   4.09086180
_cell_length_b   4.09086180
_cell_length_c   8.42516994
_cell_angle_alpha   90.00000000
_cell_angle_beta   90.00000000
_cell_angle_gamma   90.00000000
_symmetry_Int_Tables_number   1
_chemical_formula_structural   Li2InGaSn2
_chemical_formula_sum   'Li2 In1 Ga1 Sn2'
_cell_volume   140.99648486
_cell_formula_units_Z   1
loop_
 _symmetry_equiv_pos_site_id
 _symmetry_equiv_pos_as_xyz
  1  'x, y, z'
loop_
 _atom_site_type_symbol
 _atom_site_label
 _atom_site_symmetry_multiplicity
 _atom_site_fract_x
 _atom_site_fract_y
 _atom_site_fract_z
 _atom_site_occupancy
  Li  Li0  1  -0.00000000  0.50000002  0.72580000  1
  Li  Li1  1  0.50000002  0.00000000  0.27420000  1
  Ga  Ga2  1  0.00000000  0.00000000  0.00000000  1
  In  In3  1  0.50000002  0.50000002  -0.00000000  1
  Sn  Sn4  1  -0.00000000  0.50000002  0.36850700  1
  Sn  Sn5  1  0.50000002  0.00000000  0.63149300  1
