# generated using pymatgen
data_Li2FeO4
_symmetry_space_group_name_H-M   'P 1'
_cell_length_a   5.51004982
_cell_length_b   5.51300812
_cell_length_c   6.56389999
_cell_angle_alpha   65.16862488
_cell_angle_beta   90.00000000
_cell_angle_gamma   90.00000000
_symmetry_Int_Tables_number   1
_chemical_formula_structural   Li2FeO4
_chemical_formula_sum   'Li4 Fe2 O8'
_cell_volume   180.95706769
_cell_formula_units_Z   2
loop_
 _symmetry_equiv_pos_site_id
 _symmetry_equiv_pos_as_xyz
  1  'x, y, z'
loop_
 _atom_site_type_symbol
 _atom_site_label
 _atom_site_symmetry_multiplicity
 _atom_site_fract_x
 _atom_site_fract_y
 _atom_site_fract_z
 _atom_site_occupancy
  Li  Li0  1  0.00000000  0.65421899  0.69156200  1
  Li  Li1  1  1.00000003  0.34578099  0.30843800  1
  Li  Li2  1  0.50000002  0.84578098  0.30843800  1
  Li  Li3  1  0.50000002  0.15421900  0.69156200  1
  Fe  Fe4  1  0.00000000  0.00000000  0.00000000  1
  Fe  Fe5  1  0.50000002  0.49999999  -0.00000000  1
  O  O6  1  0.79469803  0.29527299  1.00000000  1
  O  O7  1  0.75000002  0.99160398  0.50000000  1
  O  O8  1  0.75000002  0.49160399  0.50000000  1
  O  O9  1  0.70530202  0.79527298  -0.00000000  1
  O  O10  1  0.29469801  0.20472700  -0.00000000  1
  O  O11  1  0.25000001  0.50839599  0.50000000  1
  O  O12  1  0.25000001  0.00839600  0.50000000  1
  O  O13  1  0.20530201  0.70472698  1.00000000  1
