# generated using pymatgen
data_Li2Mn2FeBN5
_symmetry_space_group_name_H-M   'P 1'
_cell_length_a   5.35512495
_cell_length_b   6.12143803
_cell_length_c   6.12143803
_cell_angle_alpha   60.00000000
_cell_angle_beta   90.00000000
_cell_angle_gamma   90.00000000
_symmetry_Int_Tables_number   1
_chemical_formula_structural   Li2Mn2FeBN5
_chemical_formula_sum   'Li2 Mn2 Fe1 B1 N5'
_cell_volume   173.78294569
_cell_formula_units_Z   1
loop_
 _symmetry_equiv_pos_site_id
 _symmetry_equiv_pos_as_xyz
  1  'x, y, z'
loop_
 _atom_site_type_symbol
 _atom_site_label
 _atom_site_symmetry_multiplicity
 _atom_site_fract_x
 _atom_site_fract_y
 _atom_site_fract_z
 _atom_site_occupancy
  Li  Li0  1  0.50000000  0.00000000  0.00000000  1
  Li  Li1  1  0.56818601  0.33333333  0.33333333  1
  Fe  Fe2  1  0.43181400  0.66666667  0.66666667  1
  Mn  Mn3  1  0.06582700  0.66666667  0.66666667  1
  Mn  Mn4  1  0.93417301  0.33333333  0.33333333  1
  B  B5  1  0.75031201  0.51558900  0.96882201  1
  N  N6  1  0.75031201  0.96882200  0.51558899  1
  N  N7  1  0.75031201  0.51558900  0.51558900  1
  N  N8  1  0.24968800  0.48441100  0.03117799  1
  N  N9  1  0.24968800  0.03117800  0.48441101  1
  N  N10  1  0.24968800  0.48441100  0.48441100  1
