# generated using pymatgen
data_Ce2GaNi16
_symmetry_space_group_name_H-M   'P 1'
_cell_length_a   6.46440077
_cell_length_b   6.46440077
_cell_length_c   6.46440077
_cell_angle_alpha   81.80494690
_cell_angle_beta   81.80494690
_cell_angle_gamma   81.80494690
_symmetry_Int_Tables_number   1
_chemical_formula_structural   Ce2GaNi16
_chemical_formula_sum   'Ce2 Ga1 Ni16'
_cell_volume   262.58093211
_cell_formula_units_Z   1
loop_
 _symmetry_equiv_pos_site_id
 _symmetry_equiv_pos_as_xyz
  1  'x, y, z'
loop_
 _atom_site_type_symbol
 _atom_site_label
 _atom_site_symmetry_multiplicity
 _atom_site_fract_x
 _atom_site_fract_y
 _atom_site_fract_z
 _atom_site_occupancy
  Ce  Ce0  1  0.34754300  0.34754300  0.34754296  1
  Ce  Ce1  1  0.65245701  0.65245701  0.65245693  1
  Ni  Ni2  1  0.10276900  0.10276900  0.10276899  1
  Ga  Ga3  1  0.89723101  0.89723101  0.89723090  1
  Ni  Ni4  1  0.00000000  0.00000000  0.50000001  1
  Ni  Ni5  1  0.50000001  0.00000000  -0.00000003  1
  Ni  Ni6  1  -0.00000000  0.50000001  0.99999999  1
  Ni  Ni7  1  0.29842400  0.70157601  -0.00000007  1
  Ni  Ni8  1  -0.00000000  0.29842400  0.70157600  1
  Ni  Ni9  1  0.70157601  0.00000000  0.29842396  1
  Ni  Ni10  1  -0.00000000  0.70157601  0.29842396  1
  Ni  Ni11  1  0.29842400  0.00000000  0.70157600  1
  Ni  Ni12  1  0.70157601  0.29842400  -0.00000007  1
  Ni  Ni13  1  0.65776101  0.65776101  0.15830992  1
  Ni  Ni14  1  0.15831000  0.65776101  0.65776096  1
  Ni  Ni15  1  0.65776101  0.15831000  0.65776096  1
  Ni  Ni16  1  0.34223900  0.34223900  0.84168997  1
  Ni  Ni17  1  0.84169001  0.34223900  0.34223893  1
  Ni  Ni18  1  0.34223900  0.84169001  0.34223893  1
