# generated using pymatgen
data_NaCu5
_symmetry_space_group_name_H-M   'P 1'
_cell_length_a   3.68659091
_cell_length_b   5.56905603
_cell_length_c   5.56905603
_cell_angle_alpha   120.00000000
_cell_angle_beta   90.00000000
_cell_angle_gamma   90.00000000
_symmetry_Int_Tables_number   1
_chemical_formula_structural   NaCu5
_chemical_formula_sum   'Na1 Cu5'
_cell_volume   99.01904990
_cell_formula_units_Z   1
loop_
 _symmetry_equiv_pos_site_id
 _symmetry_equiv_pos_as_xyz
  1  'x, y, z'
loop_
 _atom_site_type_symbol
 _atom_site_label
 _atom_site_symmetry_multiplicity
 _atom_site_fract_x
 _atom_site_fract_y
 _atom_site_fract_z
 _atom_site_occupancy
  Na  Na0  1  0.00000000  0.00000000  0.00000000  1
  Cu  Cu1  1  1.00000002  0.33333333  0.66666667  1
  Cu  Cu2  1  1.00000002  0.66666666  0.33333334  1
  Cu  Cu3  1  0.50000001  0.50000000  1.00000000  1
  Cu  Cu4  1  0.50000001  0.50000000  0.50000000  1
  Cu  Cu5  1  0.50000001  0.00000000  0.50000000  1
