# generated using pymatgen
data_Ga
_symmetry_space_group_name_H-M   'P 1'
_cell_length_a   6.08304596
_cell_length_b   6.08304596
_cell_length_c   7.66549921
_cell_angle_alpha   90.00000000
_cell_angle_beta   90.00000000
_cell_angle_gamma   90.00000000
_symmetry_Int_Tables_number   1
_chemical_formula_structural   Ga
_chemical_formula_sum   Ga14
_cell_volume   283.64990254
_cell_formula_units_Z   14
loop_
 _symmetry_equiv_pos_site_id
 _symmetry_equiv_pos_as_xyz
  1  'x, y, z'
loop_
 _atom_site_type_symbol
 _atom_site_label
 _atom_site_symmetry_multiplicity
 _atom_site_fract_x
 _atom_site_fract_y
 _atom_site_fract_z
 _atom_site_occupancy
  Ga  Ga0  1  0.50000000  0.00000000  0.00000000  1
  Ga  Ga1  1  0.00000000  0.50000000  0.00000000  1
  Ga  Ga2  1  0.50000000  0.50000000  0.16174900  1
  Ga  Ga3  1  0.00000000  0.00000000  0.16174900  1
  Ga  Ga4  1  0.00000000  0.00000000  0.83825098  1
  Ga  Ga5  1  0.50000000  0.50000000  0.83825098  1
  Ga  Ga6  1  0.80774401  0.69225600  0.34950499  1
  Ga  Ga7  1  0.30774400  0.80774401  0.34950499  1
  Ga  Ga8  1  0.69225600  0.19225600  0.34950499  1
  Ga  Ga9  1  0.19225600  0.30774400  0.34950499  1
  Ga  Ga10  1  0.69225600  0.80774401  0.65049498  1
  Ga  Ga11  1  0.19225600  0.69225600  0.65049498  1
  Ga  Ga12  1  0.80774401  0.30774400  0.65049498  1
  Ga  Ga13  1  0.30774400  0.19225600  0.65049498  1
