# generated using pymatgen
data_CsBa3Bi14
_symmetry_space_group_name_H-M   'P 1'
_cell_length_a   7.71392679
_cell_length_b   8.39309502
_cell_length_c   13.82069874
_cell_angle_alpha   90.00000000
_cell_angle_beta   94.50386810
_cell_angle_gamma   90.00000000
_symmetry_Int_Tables_number   1
_chemical_formula_structural   CsBa3Bi14
_chemical_formula_sum   'Cs1 Ba3 Bi14'
_cell_volume   892.04033433
_cell_formula_units_Z   1
loop_
 _symmetry_equiv_pos_site_id
 _symmetry_equiv_pos_as_xyz
  1  'x, y, z'
loop_
 _atom_site_type_symbol
 _atom_site_label
 _atom_site_symmetry_multiplicity
 _atom_site_fract_x
 _atom_site_fract_y
 _atom_site_fract_z
 _atom_site_occupancy
  Cs  Cs0  1  0.00000000  0.00000000  0.00000000  1
  Ba  Ba1  1  0.50000001  0.50000000  0.50000000  1
  Ba  Ba2  1  0.07409500  0.39867300  0.74392201  1
  Ba  Ba3  1  0.42590501  0.89867300  0.75607800  1
  Bi  Bi4  1  0.57409501  0.10132700  0.24392200  1
  Bi  Bi5  1  0.92590502  0.60132700  0.25607799  1
  Bi  Bi6  1  0.20731901  0.67512400  0.90522201  1
  Bi  Bi7  1  0.33804101  0.19274700  0.90626200  1
  Bi  Bi8  1  0.67747102  0.57418500  0.73582600  1
  Bi  Bi9  1  0.82252902  0.07418500  0.76417400  1
  Bi  Bi10  1  0.16195900  0.69274700  0.59373800  1
  Bi  Bi11  1  0.29268101  0.17512400  0.59477800  1
  Bi  Bi12  1  0.70731902  0.82487600  0.40522200  1
  Bi  Bi13  1  0.83804102  0.30725300  0.40626199  1
  Bi  Bi14  1  0.17747100  0.92581500  0.23582600  1
  Bi  Bi15  1  0.32252901  0.42581500  0.26417400  1
  Bi  Bi16  1  0.66195902  0.80725300  0.09373799  1
  Bi  Bi17  1  0.79268102  0.32487600  0.09477799  1
