# generated using pymatgen
data_ThUSnRuPt
_symmetry_space_group_name_H-M   'P 1'
_cell_length_a   4.87609816
_cell_length_b   5.02028704
_cell_length_c   5.05990267
_cell_angle_alpha   92.38052368
_cell_angle_beta   90.00000000
_cell_angle_gamma   90.00000000
_symmetry_Int_Tables_number   1
_chemical_formula_structural   ThUSnRuPt
_chemical_formula_sum   'Th1 U1 Sn1 Ru1 Pt1'
_cell_volume   123.75655064
_cell_formula_units_Z   1
loop_
 _symmetry_equiv_pos_site_id
 _symmetry_equiv_pos_as_xyz
  1  'x, y, z'
loop_
 _atom_site_type_symbol
 _atom_site_label
 _atom_site_symmetry_multiplicity
 _atom_site_fract_x
 _atom_site_fract_y
 _atom_site_fract_z
 _atom_site_occupancy
  U  U0  1  0.99999997  0.48465200  0.88506002  1
  Th  Th1  1  0.49999998  0.00378600  0.13816600  1
  Sn  Sn2  1  0.00000000  0.88938100  0.48394104  1
  Ru  Ru3  1  -0.00000000  0.99814599  0.99090704  1
  Pt  Pt4  1  0.49999998  0.49393500  0.50192602  1
