# generated using pymatgen
data_TiNi2
_symmetry_space_group_name_H-M   'P 1'
_cell_length_a   4.92358732
_cell_length_b   4.92358732
_cell_length_c   4.97798777
_cell_angle_alpha   104.35410309
_cell_angle_beta   104.35410309
_cell_angle_gamma   119.91362762
_symmetry_Int_Tables_number   1
_chemical_formula_structural   TiNi2
_chemical_formula_sum   'Ti2 Ni4'
_cell_volume   90.87400290
_cell_formula_units_Z   2
loop_
 _symmetry_equiv_pos_site_id
 _symmetry_equiv_pos_as_xyz
  1  'x, y, z'
loop_
 _atom_site_type_symbol
 _atom_site_label
 _atom_site_symmetry_multiplicity
 _atom_site_fract_x
 _atom_site_fract_y
 _atom_site_fract_z
 _atom_site_occupancy
  Ti  Ti0  1  0.84169405  0.15830602  0.00000006  1
  Ti  Ti1  1  0.66038109  0.66067006  0.32105109  1
  Ni  Ni2  1  0.33933005  0.33961903  0.67894905  1
  Ni  Ni3  1  0.75018505  0.24981502  0.50000006  1
  Ni  Ni4  1  0.25018509  0.74981507  0.50000008  1
  Ni  Ni5  1  0.15822509  0.84177508  0.00000008  1
