# generated using pymatgen
data_HfTiNi12
_symmetry_space_group_name_H-M   'P 1'
_cell_length_a   3.59824491
_cell_length_b   7.09144592
_cell_length_c   7.09144592
_cell_angle_alpha   90.00000000
_cell_angle_beta   90.00000000
_cell_angle_gamma   90.00000000
_symmetry_Int_Tables_number   1
_chemical_formula_structural   HfTiNi12
_chemical_formula_sum   'Hf1 Ti1 Ni12'
_cell_volume   180.95071774
_cell_formula_units_Z   1
loop_
 _symmetry_equiv_pos_site_id
 _symmetry_equiv_pos_as_xyz
  1  'x, y, z'
loop_
 _atom_site_type_symbol
 _atom_site_label
 _atom_site_symmetry_multiplicity
 _atom_site_fract_x
 _atom_site_fract_y
 _atom_site_fract_z
 _atom_site_occupancy
  Ti  Ti0  1  0.00000000  0.00000000  0.00000000  1
  Hf  Hf1  1  0.50000001  0.50000001  0.50000001  1
  Ni  Ni2  1  1.00000003  0.58523401  0.83710201  1
  Ni  Ni3  1  0.00000000  0.83710201  0.58523401  1
  Ni  Ni4  1  1.00000003  0.16289800  0.41476600  1
  Ni  Ni5  1  0.00000000  0.41476600  0.16289800  1
  Ni  Ni6  1  0.50000001  0.66289801  0.08523400  1
  Ni  Ni7  1  0.50000001  0.91476601  0.33710200  1
  Ni  Ni8  1  0.50000001  0.08523400  0.66289801  1
  Ni  Ni9  1  0.50000001  0.33710200  0.91476601  1
  Ni  Ni10  1  0.00000000  0.72001901  0.27998100  1
  Ni  Ni11  1  0.00000000  0.27998100  0.72001901  1
  Ni  Ni12  1  0.50000001  0.77998101  0.77998101  1
  Ni  Ni13  1  0.50000001  0.22001900  0.22001900  1
