# generated using pymatgen
data_Na
_symmetry_space_group_name_H-M   'P 1'
_cell_length_a   4.71897888
_cell_length_b   8.25162601
_cell_length_c   8.25162506
_cell_angle_alpha   120.00000000
_cell_angle_beta   90.00000000
_cell_angle_gamma   90.00000000
_symmetry_Int_Tables_number   1
_chemical_formula_structural   Na
_chemical_formula_sum   Na8
_cell_volume   278.26442566
_cell_formula_units_Z   8
loop_
 _symmetry_equiv_pos_site_id
 _symmetry_equiv_pos_as_xyz
  1  'x, y, z'
loop_
 _atom_site_type_symbol
 _atom_site_label
 _atom_site_symmetry_multiplicity
 _atom_site_fract_x
 _atom_site_fract_y
 _atom_site_fract_z
 _atom_site_occupancy
  Na  Na0  1  0.25000001  0.33333332  0.66666667  1
  Na  Na1  1  0.75000002  0.66666665  0.33333331  1
  Na  Na2  1  0.25000001  0.38870599  0.08656298  1
  Na  Na3  1  0.75000002  0.08656200  0.69785602  1
  Na  Na4  1  0.75000002  0.61129398  0.91343700  1
  Na  Na5  1  0.25000001  0.91343797  0.30214396  1
  Na  Na6  1  0.25000001  0.69785698  0.61129499  1
  Na  Na7  1  0.75000002  0.30214299  0.38870500  1
