# generated using pymatgen
data_LaInGePd2
_symmetry_space_group_name_H-M   'P 1'
_cell_length_a   4.91228819
_cell_length_b   4.91228819
_cell_length_c   6.74587631
_cell_angle_alpha   111.35193634
_cell_angle_beta   111.35193634
_cell_angle_gamma   90.00000000
_symmetry_Int_Tables_number   1
_chemical_formula_structural   LaInGePd2
_chemical_formula_sum   'La1 In1 Ge1 Pd2'
_cell_volume   139.54392706
_cell_formula_units_Z   1
loop_
 _symmetry_equiv_pos_site_id
 _symmetry_equiv_pos_as_xyz
  1  'x, y, z'
loop_
 _atom_site_type_symbol
 _atom_site_label
 _atom_site_symmetry_multiplicity
 _atom_site_fract_x
 _atom_site_fract_y
 _atom_site_fract_z
 _atom_site_occupancy
  La  La0  1  0.00445000  0.00445000  0.00890000  1
  In  In1  1  0.74270998  0.24270999  0.48542002  1
  Ge  Ge2  1  0.24271000  0.74270998  0.48542002  1
  Pd  Pd3  1  0.38774999  0.38774999  0.77550002  1
  Pd  Pd4  1  0.62237899  0.62237898  0.24475802  1
