# generated using pymatgen
data_CeAl(SiGe)2
_symmetry_space_group_name_H-M   'P 1'
_cell_length_a   3.62227106
_cell_length_b   5.64504004
_cell_length_c   5.64504004
_cell_angle_alpha   120.00000000
_cell_angle_beta   90.00000000
_cell_angle_gamma   90.00000000
_symmetry_Int_Tables_number   1
_chemical_formula_structural   CeAl(SiGe)2
_chemical_formula_sum   'Ce1 Al1 Si2 Ge2'
_cell_volume   99.96446145
_cell_formula_units_Z   1
loop_
 _symmetry_equiv_pos_site_id
 _symmetry_equiv_pos_as_xyz
  1  'x, y, z'
loop_
 _atom_site_type_symbol
 _atom_site_label
 _atom_site_symmetry_multiplicity
 _atom_site_fract_x
 _atom_site_fract_y
 _atom_site_fract_z
 _atom_site_occupancy
  Ce  Ce0  1  0.00000000  0.00000000  0.00000000  1
  Al  Al1  1  -0.00000000  0.66666666  0.33333333  1
  Ge  Ge2  1  0.99999998  0.33333333  0.66666666  1
  Si  Si3  1  0.49999999  0.99999999  0.49999999  1
  Ge  Ge4  1  0.49999999  0.50000000  -0.00000000  1
  Si  Si5  1  0.49999999  0.50000000  0.49999999  1
