# generated using pymatgen
data_K6Bi5I(ClO2)2
_symmetry_space_group_name_H-M   'P 1'
_cell_length_a   6.68767595
_cell_length_b   10.02538872
_cell_length_c   10.16058254
_cell_angle_alpha   90.00000000
_cell_angle_beta   105.11827087
_cell_angle_gamma   90.00000000
_symmetry_Int_Tables_number   1
_chemical_formula_structural   K6Bi5I(ClO2)2
_chemical_formula_sum   'K6 Bi5 I1 Cl2 O4'
_cell_volume   657.65424242
_cell_formula_units_Z   1
loop_
 _symmetry_equiv_pos_site_id
 _symmetry_equiv_pos_as_xyz
  1  'x, y, z'
loop_
 _atom_site_type_symbol
 _atom_site_label
 _atom_site_symmetry_multiplicity
 _atom_site_fract_x
 _atom_site_fract_y
 _atom_site_fract_z
 _atom_site_occupancy
  K  K0  1  0.32011700  0.88221102  0.66494201  1
  K  K1  1  0.67988300  0.11778900  0.33505800  1
  K  K2  1  0.67988300  0.38221101  0.83505801  1
  K  K3  1  0.32011700  0.61778902  0.16494200  1
  K  K4  1  0.00000000  0.00000000  0.00000000  1
  K  K5  1  -0.00000000  0.50000001  0.50000001  1
  Bi  Bi6  1  0.74634500  0.72996102  0.47463200  1
  Bi  Bi7  1  0.25365500  0.27003901  0.52536801  1
  I  I8  1  0.83597200  0.44209201  0.21861499  1
  Bi  Bi9  1  0.74634500  0.77003902  0.97463201  1
  O  O10  1  0.83597200  0.05790800  0.71861500  1
  Bi  Bi11  1  0.16402800  0.55790802  0.78138502  1
  Bi  Bi12  1  0.25365500  0.22996101  0.02536800  1
  O  O13  1  0.16402800  0.94209203  0.28138500  1
  O  O14  1  0.20073200  0.60157802  0.46033901  1
  Cl  Cl15  1  0.79926800  0.39842201  0.53966100  1
  O  O16  1  0.20073200  0.89842203  0.96033902  1
  Cl  Cl17  1  0.79926800  0.10157800  0.03966098  1
