# generated using pymatgen
data_YErNb2(FeS2)4
_symmetry_space_group_name_H-M   'P 1'
_cell_length_a   6.61256123
_cell_length_b   6.61256123
_cell_length_c   10.94956779
_cell_angle_alpha   90.00000000
_cell_angle_beta   90.00000000
_cell_angle_gamma   90.00000000
_symmetry_Int_Tables_number   1
_chemical_formula_structural   YErNb2(FeS2)4
_chemical_formula_sum   'Y1 Er1 Nb2 Fe4 S8'
_cell_volume   478.78042874
_cell_formula_units_Z   1
loop_
 _symmetry_equiv_pos_site_id
 _symmetry_equiv_pos_as_xyz
  1  'x, y, z'
loop_
 _atom_site_type_symbol
 _atom_site_label
 _atom_site_symmetry_multiplicity
 _atom_site_fract_x
 _atom_site_fract_y
 _atom_site_fract_z
 _atom_site_occupancy
  Er  Er0  1  0.00000000  0.00000000  0.75000001  1
  Y  Y1  1  0.00000000  0.00000000  0.25000000  1
  Nb  Nb2  1  0.49999998  0.00000000  0.50000001  1
  Nb  Nb3  1  -0.00000000  0.49999998  0.00000000  1
  Fe  Fe4  1  0.79038597  0.20093599  0.00000000  1
  Fe  Fe5  1  0.79906397  0.79038597  0.50000001  1
  Fe  Fe6  1  0.20093599  0.20961399  0.50000001  1
  Fe  Fe7  1  0.20961399  0.79906397  0.00000000  1
  S  S8  1  0.21153999  0.35089199  0.15584900  1
  S  S9  1  0.64910798  0.21153999  0.65584901  1
  S  S10  1  0.35089199  0.78845997  0.65584901  1
  S  S11  1  0.78845997  0.64910798  0.15584900  1
  S  S12  1  0.78845997  0.64910798  0.84415102  1
  S  S13  1  0.35089199  0.78845997  0.34415101  1
  S  S14  1  0.64910798  0.21153999  0.34415101  1
  S  S15  1  0.21153999  0.35089199  0.84415102  1
