# generated using pymatgen
data_MnFe2TeF14
_symmetry_space_group_name_H-M   'P 1'
_cell_length_a   7.34695482
_cell_length_b   7.34781456
_cell_length_c   7.39280272
_cell_angle_alpha   118.58085632
_cell_angle_beta   118.57653809
_cell_angle_gamma   91.58781433
_symmetry_Int_Tables_number   1
_chemical_formula_structural   MnFe2TeF14
_chemical_formula_sum   'Mn1 Fe2 Te1 F14'
_cell_volume   290.23835873
_cell_formula_units_Z   1
loop_
 _symmetry_equiv_pos_site_id
 _symmetry_equiv_pos_as_xyz
  1  'x, y, z'
loop_
 _atom_site_type_symbol
 _atom_site_label
 _atom_site_symmetry_multiplicity
 _atom_site_fract_x
 _atom_site_fract_y
 _atom_site_fract_z
 _atom_site_occupancy
  Mn  Mn0  1  0.63751597  0.86271997  0.25008396  1
  Te  Te1  1  0.36264500  0.13738999  0.74994698  1
  Fe  Fe2  1  0.99974800  0.49976098  0.99937396  1
  Fe  Fe3  1  0.00004897  0.50032898  0.50077197  1
  F  F4  1  0.99998503  0.00008900  0.00007501  1
  F  F5  1  0.49986498  0.50008198  0.49995697  1
  F  F6  1  0.30396000  0.19608599  0.25002999  1
  F  F7  1  0.69597397  0.80395697  0.74991895  1
  F  F8  1  0.31067797  0.56661198  0.60217196  1
  F  F9  1  0.93347002  0.18914799  0.89773097  1
  F  F10  1  0.68926600  0.43337698  0.39805198  1
  F  F11  1  0.06649295  0.81061097  0.10182696  1
  F  F12  1  0.07964998  0.42059698  0.75015296  1
  F  F13  1  0.92072699  0.57907498  0.24993198  1
  F  F14  1  0.92118002  0.15468599  0.24601999  1
  F  F15  1  0.65455499  0.42117798  0.74581397  1
  F  F16  1  0.34540397  0.57885998  0.25402797  1
  F  F17  1  0.07883495  0.84544197  0.75411394  1
