# generated using pymatgen
data_Ca5Mg(SiP6)2
_symmetry_space_group_name_H-M   'P 1'
_cell_length_a   5.81167936
_cell_length_b   8.15514851
_cell_length_c   8.15514851
_cell_angle_alpha   93.06400299
_cell_angle_beta   110.16779327
_cell_angle_gamma   110.16779327
_symmetry_Int_Tables_number   1
_chemical_formula_structural   Ca5Mg(SiP6)2
_chemical_formula_sum   'Ca5 Mg1 Si2 P12'
_cell_volume   333.99434118
_cell_formula_units_Z   1
loop_
 _symmetry_equiv_pos_site_id
 _symmetry_equiv_pos_as_xyz
  1  'x, y, z'
loop_
 _atom_site_type_symbol
 _atom_site_label
 _atom_site_symmetry_multiplicity
 _atom_site_fract_x
 _atom_site_fract_y
 _atom_site_fract_z
 _atom_site_occupancy
  Ca  Ca0  1  0.23379509  0.59561502  0.87108806  1
  Ca  Ca1  1  0.26620502  0.12891200  0.40438502  1
  Ca  Ca2  1  0.76620505  0.40438501  0.12891207  1
  Ca  Ca3  1  0.73379513  0.87108803  0.59561511  1
  Mg  Mg4  1  0.38540908  0.53904602  0.25999506  1
  Ca  Ca5  1  0.11459112  0.74000503  0.46095407  1
  Si  Si6  1  0.61459106  0.46095402  0.74000506  1
  Si  Si7  1  0.88540903  0.25999501  0.53904606  1
  P  P8  1  0.25000016  0.99772404  0.00227610  1
  P  P9  1  0.74999999  0.00227600  0.99772403  1
  P  P10  1  0.16802104  0.25951701  0.07214503  1
  P  P11  1  0.33197914  0.92785503  0.74048309  1
  P  P12  1  0.83197910  0.74048303  0.92785510  1
  P  P13  1  0.66802100  0.07214500  0.25951704  1
  P  P14  1  0.25000012  0.78062903  0.21937108  1
  P  P15  1  0.75000002  0.21937101  0.78062905  1
  P  P16  1  0.25000008  0.49420702  0.50579305  1
  P  P17  1  0.75000007  0.50579302  0.49420708  1
  P  P18  1  0.25000003  0.22820101  0.77179903  1
  P  P19  1  0.75000011  0.77179903  0.22820110  1
