# generated using pymatgen
data_Y3Lu(Al3Ge5)2
_symmetry_space_group_name_H-M   'P 1'
_cell_length_a   5.71950531
_cell_length_b   8.08110809
_cell_length_c   8.08110809
_cell_angle_alpha   93.78517914
_cell_angle_beta   109.48913574
_cell_angle_gamma   109.48913574
_symmetry_Int_Tables_number   1
_chemical_formula_structural   Y3Lu(Al3Ge5)2
_chemical_formula_sum   'Y3 Lu1 Al6 Ge10'
_cell_volume   325.25914574
_cell_formula_units_Z   1
loop_
 _symmetry_equiv_pos_site_id
 _symmetry_equiv_pos_as_xyz
  1  'x, y, z'
loop_
 _atom_site_type_symbol
 _atom_site_label
 _atom_site_symmetry_multiplicity
 _atom_site_fract_x
 _atom_site_fract_y
 _atom_site_fract_z
 _atom_site_occupancy
  Y  Y0  1  0.26708802  0.12775500  0.40817199  1
  Y  Y1  1  0.23291206  0.59182799  0.87224497  1
  Y  Y2  1  0.76708806  0.40817199  0.12775502  1
  Lu  Lu3  1  0.73291210  0.87224499  0.59182799  1
  Al  Al4  1  0.25000010  0.99704099  0.00295899  1
  Al  Al5  1  0.75000002  0.00295900  0.99704100  1
  Al  Al6  1  0.37974706  0.54344699  0.26224300  1
  Al  Al7  1  0.87974705  0.26224300  0.54344702  1
  Al  Al8  1  0.62025306  0.45655299  0.73775699  1
  Al  Al9  1  0.12025308  0.73775699  0.45655297  1
  Ge  Ge10  1  0.25000005  0.49050599  0.50949398  1
  Ge  Ge11  1  0.75000007  0.50949399  0.49050601  1
  Ge  Ge12  1  0.25000003  0.22649400  0.77350598  1
  Ge  Ge13  1  0.75000010  0.77350599  0.22649401  1
  Ge  Ge14  1  0.17308503  0.26187700  0.07887400  1
  Ge  Ge15  1  0.32691510  0.92112599  0.73812297  1
  Ge  Ge16  1  0.75000004  0.21321500  0.78678500  1
  Ge  Ge17  1  0.25000008  0.78678499  0.21321499  1
  Ge  Ge18  1  0.67308503  0.07887400  0.26187702  1
  Ge  Ge19  1  0.82691509  0.73812299  0.92112599  1
