# generated using pymatgen
data_Nd(Hf2Ni7)2
_symmetry_space_group_name_H-M   'P 1'
_cell_length_a   6.28574800
_cell_length_b   6.28574800
_cell_length_c   6.28574800
_cell_angle_alpha   82.69301605
_cell_angle_beta   82.69301605
_cell_angle_gamma   82.69301605
_symmetry_Int_Tables_number   1
_chemical_formula_structural   Nd(Hf2Ni7)2
_chemical_formula_sum   'Nd1 Hf4 Ni14'
_cell_volume   242.77605593
_cell_formula_units_Z   1
loop_
 _symmetry_equiv_pos_site_id
 _symmetry_equiv_pos_as_xyz
  1  'x, y, z'
loop_
 _atom_site_type_symbol
 _atom_site_label
 _atom_site_symmetry_multiplicity
 _atom_site_fract_x
 _atom_site_fract_y
 _atom_site_fract_z
 _atom_site_occupancy
  Nd  Nd0  1  0.34472902  0.34472901  0.34472904  1
  Hf  Hf1  1  0.65527103  0.65527102  0.65527107  1
  Hf  Hf2  1  0.00000000  0.00000000  0.50000001  1
  Hf  Hf3  1  0.50000001  0.00000000  0.00000002  1
  Hf  Hf4  1  0.00000001  0.50000001  0.00000002  1
  Ni  Ni5  1  0.28923502  0.71076502  0.00000004  1
  Ni  Ni6  1  0.00000001  0.28923501  0.71076503  1
  Ni  Ni7  1  0.71076502  0.00000000  0.28923504  1
  Ni  Ni8  1  0.00000001  0.71076502  0.28923504  1
  Ni  Ni9  1  0.28923501  0.00000000  0.71076503  1
  Ni  Ni10  1  0.71076502  0.28923501  0.00000005  1
  Ni  Ni11  1  0.65498703  0.65498702  0.15019906  1
  Ni  Ni12  1  0.15019902  0.65498702  0.65498705  1
  Ni  Ni13  1  0.65498702  0.15019900  0.65498705  1
  Ni  Ni14  1  0.34501302  0.34501301  0.84980105  1
  Ni  Ni15  1  0.84980103  0.34501301  0.34501306  1
  Ni  Ni16  1  0.34501303  0.84980102  0.34501306  1
  Ni  Ni17  1  0.09644200  0.09644200  0.09644201  1
  Ni  Ni18  1  0.90355804  0.90355802  0.90355810  1
