# generated using pymatgen
data_Li5Mn
_symmetry_space_group_name_H-M   'P 1'
_cell_length_a   4.60156393
_cell_length_b   4.60156441
_cell_length_c   16.63145447
_cell_angle_alpha   90.00000000
_cell_angle_beta   90.00000000
_cell_angle_gamma   119.99999237
_symmetry_Int_Tables_number   1
_chemical_formula_structural   Li5Mn
_chemical_formula_sum   'Li10 Mn2'
_cell_volume   304.98035215
_cell_formula_units_Z   2
loop_
 _symmetry_equiv_pos_site_id
 _symmetry_equiv_pos_as_xyz
  1  'x, y, z'
loop_
 _atom_site_type_symbol
 _atom_site_label
 _atom_site_symmetry_multiplicity
 _atom_site_fract_x
 _atom_site_fract_y
 _atom_site_fract_z
 _atom_site_occupancy
  Li  Li0  1  0.00000000  0.00000000  0.50000002  1
  Li  Li1  1  0.00000000  0.00000000  0.00000000  1
  Li  Li2  1  0.00000000  0.00000000  0.75000002  1
  Li  Li3  1  0.00000000  0.00000000  0.25000001  1
  Li  Li4  1  0.66666665  0.33333334  0.65511702  1
  Li  Li5  1  0.33333329  0.66666667  0.34488301  1
  Li  Li6  1  0.33333329  0.66666667  0.15511700  1
  Li  Li7  1  0.66666665  0.33333334  0.84488303  1
  Li  Li8  1  0.66666665  0.33333334  0.11574700  1
  Li  Li9  1  0.33333329  0.66666667  0.88425303  1
  Mn  Mn10  1  0.33333329  0.66666667  0.61574702  1
  Mn  Mn11  1  0.66666665  0.33333334  0.38425301  1
