# generated using pymatgen
data_Li3FeO3
_symmetry_space_group_name_H-M   'P 1'
_cell_length_a   5.92921066
_cell_length_b   5.92921066
_cell_length_c   5.92921066
_cell_angle_alpha   60.86246872
_cell_angle_beta   60.86246872
_cell_angle_gamma   60.86246490
_symmetry_Int_Tables_number   1
_chemical_formula_structural   Li3FeO3
_chemical_formula_sum   'Li6 Fe2 O6'
_cell_volume   150.25863346
_cell_formula_units_Z   2
loop_
 _symmetry_equiv_pos_site_id
 _symmetry_equiv_pos_as_xyz
  1  'x, y, z'
loop_
 _atom_site_type_symbol
 _atom_site_label
 _atom_site_symmetry_multiplicity
 _atom_site_fract_x
 _atom_site_fract_y
 _atom_site_fract_z
 _atom_site_occupancy
  Li  Li0  1  0.12405601  0.12405600  0.12405600  1
  Li  Li1  1  0.87594404  0.87594400  0.87594397  1
  Li  Li2  1  0.50000002  0.50000000  0.49999998  1
  Li  Li3  1  0.00000002  0.50000000  0.49999999  1
  Li  Li4  1  0.50000000  0.00000000  0.50000000  1
  Li  Li5  1  0.50000002  0.50000000  -0.00000002  1
  Fe  Fe6  1  0.73488902  0.29176900  0.73488899  1
  Fe  Fe7  1  0.73488903  0.73488900  0.29176897  1
  O  O8  1  0.29176903  0.73488900  0.73488898  1
  O  O9  1  0.74034003  0.74034000  0.74033998  1
  O  O10  1  0.25966001  0.25966000  0.25965999  1
  O  O11  1  0.70823102  0.26511100  0.26511099  1
  O  O12  1  0.26511103  0.70823100  0.26511098  1
  O  O13  1  0.26511101  0.26511100  0.70823099  1
