# generated using pymatgen
data_Li2V2Fe2P3
_symmetry_space_group_name_H-M   'P 1'
_cell_length_a   3.66282296
_cell_length_b   6.07586002
_cell_length_c   6.07585907
_cell_angle_alpha   120.00000763
_cell_angle_beta   90.00000000
_cell_angle_gamma   90.00000000
_symmetry_Int_Tables_number   1
_chemical_formula_structural   Li2V2Fe2P3
_chemical_formula_sum   'Li2 V2 Fe2 P3'
_cell_volume   117.10137057
_cell_formula_units_Z   1
loop_
 _symmetry_equiv_pos_site_id
 _symmetry_equiv_pos_as_xyz
  1  'x, y, z'
loop_
 _atom_site_type_symbol
 _atom_site_label
 _atom_site_symmetry_multiplicity
 _atom_site_fract_x
 _atom_site_fract_y
 _atom_site_fract_z
 _atom_site_occupancy
  Li  Li0  1  0.50000001  0.58292401  1.00000002  1
  Li  Li1  1  0.50000001  0.41707601  0.41707602  1
  V  V2  1  0.50000001  0.00000000  0.58292400  1
  V  V3  1  -0.00000000  0.24771201  0.00000001  1
  Fe  Fe4  1  -0.00000000  0.75228802  0.75228803  1
  Fe  Fe5  1  -0.00000000  0.00000000  0.24771200  1
  P  P6  1  -0.00000000  0.33333334  0.66666668  1
  P  P7  1  -0.00000000  0.66666668  0.33333336  1
  P  P8  1  0.50000001  0.00000000  -0.00000000  1
