# generated using pymatgen
data_Ce2CoIr4
_symmetry_space_group_name_H-M   'P 1'
_cell_length_a   4.44241714
_cell_length_b   8.23485565
_cell_length_c   8.23485565
_cell_angle_alpha   66.09485626
_cell_angle_beta   74.35164642
_cell_angle_gamma   74.35164642
_symmetry_Int_Tables_number   1
_chemical_formula_structural   Ce2CoIr4
_chemical_formula_sum   'Ce4 Co2 Ir8'
_cell_volume   260.76172944
_cell_formula_units_Z   2
loop_
 _symmetry_equiv_pos_site_id
 _symmetry_equiv_pos_as_xyz
  1  'x, y, z'
loop_
 _atom_site_type_symbol
 _atom_site_label
 _atom_site_symmetry_multiplicity
 _atom_site_fract_x
 _atom_site_fract_y
 _atom_site_fract_z
 _atom_site_occupancy
  Ce  Ce0  1  0.00000000  0.00000000  0.00000000  1
  Ce  Ce1  1  0.69998698  0.30001299  0.30001303  1
  Ce  Ce2  1  0.30001300  0.69998698  0.69998706  1
  Ce  Ce3  1  0.00000001  0.49999999  0.50000004  1
  Co  Co4  1  0.49999998  0.30767499  0.69232503  1
  Co  Co5  1  0.49999999  0.69232498  0.30767506  1
  Ir  Ir6  1  0.66063499  0.97813598  0.70059408  1
  Ir  Ir7  1  0.33936499  0.02186400  0.29940601  1
  Ir  Ir8  1  0.66063498  0.70059398  0.97813606  1
  Ir  Ir9  1  0.33936499  0.29940599  0.02186403  1
  Ir  Ir10  1  0.86160698  0.85990398  0.41688308  1
  Ir  Ir11  1  0.13839300  0.14009600  0.58311701  1
  Ir  Ir12  1  0.86160697  0.41688299  0.85990405  1
  Ir  Ir13  1  0.13839300  0.58311699  0.14009604  1
