# generated using pymatgen
data_LaCeInPd3
_symmetry_space_group_name_H-M   'P 1'
_cell_length_a   4.64980793
_cell_length_b   4.64980745
_cell_length_c   8.19184017
_cell_angle_alpha   90.00000000
_cell_angle_beta   90.00000000
_cell_angle_gamma   120.00000763
_symmetry_Int_Tables_number   1
_chemical_formula_structural   LaCeInPd3
_chemical_formula_sum   'La1 Ce1 In1 Pd3'
_cell_volume   153.38470371
_cell_formula_units_Z   1
loop_
 _symmetry_equiv_pos_site_id
 _symmetry_equiv_pos_as_xyz
  1  'x, y, z'
loop_
 _atom_site_type_symbol
 _atom_site_label
 _atom_site_symmetry_multiplicity
 _atom_site_fract_x
 _atom_site_fract_y
 _atom_site_fract_z
 _atom_site_occupancy
  Ce  Ce0  1  0.00000000  0.00000000  0.00477700  1
  La  La1  1  0.00000000  0.00000000  0.50477699  1
  In  In2  1  0.33333337  0.66666666  0.26927799  1
  Pd  Pd3  1  0.66666669  0.33333333  0.76927798  1
  Pd  Pd4  1  0.33333337  0.66666666  0.71694498  1
  Pd  Pd5  1  0.66666669  0.33333333  0.21694500  1
