# generated using pymatgen
data_Mg3PO6
_symmetry_space_group_name_H-M   'P 1'
_cell_length_a   5.93827915
_cell_length_b   7.31949949
_cell_length_c   7.31949949
_cell_angle_alpha   85.55163574
_cell_angle_beta   73.23159027
_cell_angle_gamma   73.23159027
_symmetry_Int_Tables_number   1
_chemical_formula_structural   Mg3PO6
_chemical_formula_sum   'Mg6 P2 O12'
_cell_volume   291.65761128
_cell_formula_units_Z   2
loop_
 _symmetry_equiv_pos_site_id
 _symmetry_equiv_pos_as_xyz
  1  'x, y, z'
loop_
 _atom_site_type_symbol
 _atom_site_label
 _atom_site_symmetry_multiplicity
 _atom_site_fract_x
 _atom_site_fract_y
 _atom_site_fract_z
 _atom_site_occupancy
  Mg  Mg0  1  0.74999997  0.90165501  0.09834504  1
  Mg  Mg1  1  0.25000000  0.09834500  0.90165500  1
  Mg  Mg2  1  0.24999995  0.77387701  0.22612305  1
  Mg  Mg3  1  0.75000002  0.22612300  0.77387699  1
  Mg  Mg4  1  0.79726098  0.79173901  0.61198603  1
  Mg  Mg5  1  0.70273900  0.38801400  0.20826101  1
  P  P6  1  0.20273899  0.20826100  0.38801401  1
  P  P7  1  0.29726097  0.61198601  0.79173904  1
  O  O8  1  0.67811296  0.97789201  0.76729905  1
  O  O9  1  0.82188702  0.23270100  0.02210799  1
  O  O10  1  0.32188701  0.02210800  0.23270099  1
  O  O11  1  0.17811295  0.76729901  0.97789205  1
  O  O12  1  0.88253998  0.86450501  0.38611304  1
  O  O13  1  0.61745998  0.61388701  0.13549503  1
  O  O14  1  0.11746000  0.13549500  0.61388701  1
  O  O15  1  0.38253999  0.38611300  0.86450502  1
  O  O16  1  0.56749298  0.66601401  0.63666803  1
  O  O17  1  0.93250702  0.36333200  0.33398600  1
  O  O18  1  0.43250700  0.33398600  0.36333201  1
  O  O19  1  0.06749295  0.63666801  0.66601405  1
