# generated using pymatgen
data_CeGe2
_symmetry_space_group_name_H-M   'P 1'
_cell_length_a   4.44246387
_cell_length_b   6.89020014
_cell_length_c   7.15529680
_cell_angle_alpha   90.00000000
_cell_angle_beta   90.00000000
_cell_angle_gamma   90.00000000
_symmetry_Int_Tables_number   1
_chemical_formula_structural   CeGe2
_chemical_formula_sum   'Ce4 Ge8'
_cell_volume   219.01980850
_cell_formula_units_Z   4
loop_
 _symmetry_equiv_pos_site_id
 _symmetry_equiv_pos_as_xyz
  1  'x, y, z'
loop_
 _atom_site_type_symbol
 _atom_site_label
 _atom_site_symmetry_multiplicity
 _atom_site_fract_x
 _atom_site_fract_y
 _atom_site_fract_z
 _atom_site_occupancy
  Ce  Ce0  1  0.25000001  0.97993498  0.78919802  1
  Ce  Ce1  1  0.25000001  0.47993499  0.71080202  1
  Ce  Ce2  1  0.75000002  0.02006500  0.21080201  1
  Ce  Ce3  1  0.75000002  0.52006499  0.28919801  1
  Ge  Ge4  1  0.25000001  0.14901300  0.45050701  1
  Ge  Ge5  1  0.25000001  0.64901299  0.04949300  1
  Ge  Ge6  1  0.75000002  0.85098698  0.54949302  1
  Ge  Ge7  1  0.75000002  0.35098699  0.95050703  1
  Ge  Ge8  1  0.25000001  0.78326098  0.38700201  1
  Ge  Ge9  1  0.25000001  0.28326099  0.11299800  1
  Ge  Ge10  1  0.75000002  0.21673900  0.61299802  1
  Ge  Ge11  1  0.75000002  0.71673899  0.88700202  1
