# generated using pymatgen
data_DyLu3Sn4
_symmetry_space_group_name_H-M   'P 1'
_cell_length_a   4.72184992
_cell_length_b   7.09801388
_cell_length_c   7.09801388
_cell_angle_alpha   90.00000000
_cell_angle_beta   90.00000000
_cell_angle_gamma   90.00000000
_symmetry_Int_Tables_number   1
_chemical_formula_structural   DyLu3Sn4
_chemical_formula_sum   'Dy1 Lu3 Sn4'
_cell_volume   237.89530299
_cell_formula_units_Z   1
loop_
 _symmetry_equiv_pos_site_id
 _symmetry_equiv_pos_as_xyz
  1  'x, y, z'
loop_
 _atom_site_type_symbol
 _atom_site_label
 _atom_site_symmetry_multiplicity
 _atom_site_fract_x
 _atom_site_fract_y
 _atom_site_fract_z
 _atom_site_occupancy
  Dy  Dy0  1  0.19137600  0.50000001  -0.00000000  1
  Lu  Lu1  1  0.80862401  0.00000000  0.50000001  1
  Lu  Lu2  1  0.00000000  0.00000000  0.00000000  1
  Lu  Lu3  1  -0.00000000  0.50000001  0.50000001  1
  Sn  Sn4  1  0.29086501  0.20158900  0.29841101  1
  Sn  Sn5  1  0.70913501  0.70158901  0.20158900  1
  Sn  Sn6  1  0.29086501  0.79841101  0.70158901  1
  Sn  Sn7  1  0.70913501  0.29841101  0.79841101  1
