# generated using pymatgen
data_Ca4Hf3ZrO12
_symmetry_space_group_name_H-M   'P 1'
_cell_length_a   5.70556688
_cell_length_b   5.83691788
_cell_length_c   8.15521336
_cell_angle_alpha   90.00000000
_cell_angle_beta   90.00000000
_cell_angle_gamma   90.00000000
_symmetry_Int_Tables_number   1
_chemical_formula_structural   Ca4Hf3ZrO12
_chemical_formula_sum   'Ca4 Hf3 Zr1 O12'
_cell_volume   271.59246152
_cell_formula_units_Z   1
loop_
 _symmetry_equiv_pos_site_id
 _symmetry_equiv_pos_as_xyz
  1  'x, y, z'
loop_
 _atom_site_type_symbol
 _atom_site_label
 _atom_site_symmetry_multiplicity
 _atom_site_fract_x
 _atom_site_fract_y
 _atom_site_fract_z
 _atom_site_occupancy
  Ca  Ca0  1  0.98813202  0.04496400  0.74999997  1
  Ca  Ca1  1  0.48813201  0.45503601  0.24999999  1
  Ca  Ca2  1  0.51186801  0.54496401  0.74999997  1
  Ca  Ca3  1  0.01186800  0.95503602  0.24999999  1
  Zr  Zr4  1  -0.00000000  0.50000001  0.49999998  1
  Hf  Hf5  1  0.50000001  0.00000000  0.49999998  1
  Hf  Hf6  1  0.50000001  0.00000000  -0.00000000  1
  Hf  Hf7  1  -0.00000000  0.50000001  0.00000000  1
  O  O8  1  0.70356901  0.29659801  0.55454898  1
  O  O9  1  0.20356900  0.20340200  0.44545098  1
  O  O10  1  0.79643102  0.79659802  0.94545096  1
  O  O11  1  0.29643101  0.70340201  0.05454900  1
  O  O12  1  0.29643101  0.70340201  0.44545098  1
  O  O13  1  0.79643102  0.79659802  0.55454898  1
  O  O14  1  0.20356900  0.20340200  0.05454900  1
  O  O15  1  0.70356901  0.29659801  0.94545096  1
  O  O16  1  0.89774002  0.53491701  0.24999999  1
  O  O17  1  0.39774001  0.96508302  0.74999997  1
  O  O18  1  0.60226001  0.03491700  0.24999999  1
  O  O19  1  0.10226000  0.46508301  0.74999997  1
