# generated using pymatgen
data_Dy3LuIn4
_symmetry_space_group_name_H-M   'P 1'
_cell_length_a   4.90342093
_cell_length_b   6.55082512
_cell_length_c   6.55082512
_cell_angle_alpha   113.71629333
_cell_angle_beta   90.00000000
_cell_angle_gamma   90.00000000
_symmetry_Int_Tables_number   1
_chemical_formula_structural   Dy3LuIn4
_chemical_formula_sum   'Dy3 Lu1 In4'
_cell_volume   192.65151377
_cell_formula_units_Z   1
loop_
 _symmetry_equiv_pos_site_id
 _symmetry_equiv_pos_as_xyz
  1  'x, y, z'
loop_
 _atom_site_type_symbol
 _atom_site_label
 _atom_site_symmetry_multiplicity
 _atom_site_fract_x
 _atom_site_fract_y
 _atom_site_fract_z
 _atom_site_occupancy
  Dy  Dy0  1  0.25000000  0.63621297  0.36378697  1
  Dy  Dy1  1  0.75000001  0.36378699  0.63621297  1
  Dy  Dy2  1  0.75000001  0.30974399  0.12148199  1
  Lu  Lu3  1  0.25000000  0.69025597  0.87851796  1
  In  In4  1  0.25000000  0.12148200  0.30974399  1
  In  In5  1  0.75000001  0.87851796  0.69025596  1
  In  In6  1  0.25000000  0.17537699  0.82462297  1
  In  In7  1  0.75000001  0.82462297  0.17537697  1
