# generated using pymatgen
data_Hf2Ni11
_symmetry_space_group_name_H-M   'P 1'
_cell_length_a   5.03071690
_cell_length_b   6.62780905
_cell_length_c   6.62780857
_cell_angle_alpha   81.71875763
_cell_angle_beta   67.69630432
_cell_angle_gamma   67.69629669
_symmetry_Int_Tables_number   1
_chemical_formula_structural   Hf2Ni11
_chemical_formula_sum   'Hf2 Ni11'
_cell_volume   189.15907877
_cell_formula_units_Z   1
loop_
 _symmetry_equiv_pos_site_id
 _symmetry_equiv_pos_as_xyz
  1  'x, y, z'
loop_
 _atom_site_type_symbol
 _atom_site_label
 _atom_site_symmetry_multiplicity
 _atom_site_fract_x
 _atom_site_fract_y
 _atom_site_fract_z
 _atom_site_occupancy
  Hf  Hf0  1  0.00000000  0.00000000  0.00000000  1
  Hf  Hf1  1  0.33811595  0.66188400  0.66188403  1
  Ni  Ni2  1  0.66188399  0.33811600  0.33811600  1
  Ni  Ni3  1  -0.00000007  0.66188400  0.33811605  1
  Ni  Ni4  1  -0.00000003  0.33811600  0.66188402  1
  Ni  Ni5  1  0.27520599  0.22479400  0.22479400  1
  Ni  Ni6  1  0.72479395  0.77520600  0.77520602  1
  Ni  Ni7  1  0.50000000  0.22479400  0.77520600  1
  Ni  Ni8  1  0.49999994  0.77520600  0.22479403  1
  Ni  Ni9  1  0.50000002  0.00000000  0.49999998  1
  Ni  Ni10  1  0.00000000  0.00000000  0.50000000  1
  Ni  Ni11  1  0.49999997  0.50000000  0.00000001  1
  Ni  Ni12  1  0.99999999  0.50000000  0.99999999  1
