# generated using pymatgen
data_Hf4Ni9
_symmetry_space_group_name_H-M   'P 1'
_cell_length_a   5.18498611
_cell_length_b   6.80095720
_cell_length_c   6.80095720
_cell_angle_alpha   81.64477539
_cell_angle_beta   67.59225464
_cell_angle_gamma   67.59225464
_symmetry_Int_Tables_number   1
_chemical_formula_structural   Hf4Ni9
_chemical_formula_sum   'Hf4 Ni9'
_cell_volume   204.97285756
_cell_formula_units_Z   1
loop_
 _symmetry_equiv_pos_site_id
 _symmetry_equiv_pos_as_xyz
  1  'x, y, z'
loop_
 _atom_site_type_symbol
 _atom_site_label
 _atom_site_symmetry_multiplicity
 _atom_site_fract_x
 _atom_site_fract_y
 _atom_site_fract_z
 _atom_site_occupancy
  Hf  Hf0  1  0.00000000  0.00000000  0.00000000  1
  Hf  Hf1  1  0.28452598  0.21547401  0.21547399  1
  Hf  Hf2  1  0.50000000  0.00000000  0.49999999  1
  Hf  Hf3  1  -0.00000003  0.50000002  -0.00000001  1
  Ni  Ni4  1  0.49999996  0.50000002  -0.00000003  1
  Ni  Ni5  1  0.00000000  0.00000000  0.50000001  1
  Ni  Ni6  1  0.64612897  0.35387101  0.35387097  1
  Ni  Ni7  1  -0.00000004  0.64612902  0.35387100  1
  Ni  Ni8  1  -0.00000002  0.35387101  0.64612901  1
  Ni  Ni9  1  0.35387095  0.64612902  0.64612899  1
  Ni  Ni10  1  0.71547394  0.78452603  0.78452597  1
  Ni  Ni11  1  0.49999998  0.21547401  0.78452599  1
  Ni  Ni12  1  0.49999995  0.78452603  0.21547397  1
