# generated using pymatgen
data_Ba2CeCo(H4O)2
_symmetry_space_group_name_H-M   'P 1'
_cell_length_a   3.88735199
_cell_length_b   9.42539597
_cell_length_c   9.42539692
_cell_angle_alpha   120.00000000
_cell_angle_beta   90.00000000
_cell_angle_gamma   90.00000000
_symmetry_Int_Tables_number   1
_chemical_formula_structural   Ba2CeCo(H4O)2
_chemical_formula_sum   'Ba2 Ce1 Co1 H8 O2'
_cell_volume   299.07750618
_cell_formula_units_Z   1
loop_
 _symmetry_equiv_pos_site_id
 _symmetry_equiv_pos_as_xyz
  1  'x, y, z'
loop_
 _atom_site_type_symbol
 _atom_site_label
 _atom_site_symmetry_multiplicity
 _atom_site_fract_x
 _atom_site_fract_y
 _atom_site_fract_z
 _atom_site_occupancy
  H  H0  1  0.25000000  0.30316501  0.94882097  1
  Ba  Ba1  1  0.75000000  0.94882102  0.64565601  1
  Ba  Ba2  1  0.75000000  0.35434401  0.30316500  1
  Ce  Ce3  1  0.25000000  0.64565601  0.69683500  1
  Co  Co4  1  0.25000000  0.05117900  0.35434399  1
  H  H5  1  0.75000000  0.69683502  0.05117902  1
  H  H6  1  0.25000000  0.66666668  0.33333335  1
  H  H7  1  0.75000000  0.33333334  0.66666665  1
  H  H8  1  0.25000000  0.56523301  0.40197601  1
  O  O9  1  0.75000000  0.40197601  0.83674298  1
  H  H10  1  0.75000000  0.16325700  0.56523298  1
  H  H11  1  0.25000000  0.83674302  0.43476701  1
  H  H12  1  0.75000000  0.43476701  0.59802399  1
  O  O13  1  0.25000000  0.59802401  0.16325702  1
