# generated using pymatgen
data_CaNi4
_symmetry_space_group_name_H-M   'P 1'
_cell_length_a   5.63055420
_cell_length_b   8.26099014
_cell_length_c   8.26099014
_cell_angle_alpha   71.59209442
_cell_angle_beta   70.07488251
_cell_angle_gamma   70.07488251
_symmetry_Int_Tables_number   1
_chemical_formula_structural   CaNi4
_chemical_formula_sum   'Ca4 Ni16'
_cell_volume   330.84768295
_cell_formula_units_Z   4
loop_
 _symmetry_equiv_pos_site_id
 _symmetry_equiv_pos_as_xyz
  1  'x, y, z'
loop_
 _atom_site_type_symbol
 _atom_site_label
 _atom_site_symmetry_multiplicity
 _atom_site_fract_x
 _atom_site_fract_y
 _atom_site_fract_z
 _atom_site_occupancy
  Ca  Ca0  1  0.86502297  0.36748198  0.90247297  1
  Ca  Ca1  1  0.13497700  0.63251796  0.09752701  1
  Ca  Ca2  1  0.63497798  0.09752599  0.63251797  1
  Ca  Ca3  1  0.36502199  0.90247395  0.36748201  1
  Ni  Ni4  1  0.24999999  0.00000000  0.00000000  1
  Ni  Ni5  1  0.74999997  0.00000000  0.00000001  1
  Ni  Ni6  1  0.54193198  0.70806796  0.70806798  1
  Ni  Ni7  1  0.95806796  0.29193198  0.29193200  1
  Ni  Ni8  1  0.45806798  0.29193198  0.29193200  1
  Ni  Ni9  1  0.04193200  0.70806796  0.70806798  1
  Ni  Ni10  1  0.59582898  0.57270597  0.23563701  1
  Ni  Ni11  1  0.09582800  0.23563799  0.57270598  1
  Ni  Ni12  1  0.90417197  0.76436195  0.42729400  1
  Ni  Ni13  1  0.40417099  0.42729397  0.76436297  1
  Ni  Ni14  1  0.14600200  0.94685094  0.76114498  1
  Ni  Ni15  1  0.74999997  0.49999997  0.49999999  1
  Ni  Ni16  1  0.64600198  0.76114495  0.94685097  1
  Ni  Ni17  1  0.35399799  0.23885499  0.05314901  1
  Ni  Ni18  1  0.85399797  0.05314900  0.23885499  1
  Ni  Ni19  1  0.24999999  0.49999997  0.49999999  1
