# generated using pymatgen
data_Ce3Al2SiP5
_symmetry_space_group_name_H-M   'P 1'
_cell_length_a   4.61598015
_cell_length_b   7.05891800
_cell_length_c   8.66471672
_cell_angle_alpha   114.03765869
_cell_angle_beta   105.44816589
_cell_angle_gamma   90.00000000
_symmetry_Int_Tables_number   1
_chemical_formula_structural   Ce3Al2SiP5
_chemical_formula_sum   'Ce3 Al2 Si1 P5'
_cell_volume   246.63483082
_cell_formula_units_Z   1
loop_
 _symmetry_equiv_pos_site_id
 _symmetry_equiv_pos_as_xyz
  1  'x, y, z'
loop_
 _atom_site_type_symbol
 _atom_site_label
 _atom_site_symmetry_multiplicity
 _atom_site_fract_x
 _atom_site_fract_y
 _atom_site_fract_z
 _atom_site_occupancy
  Ce  Ce0  1  0.00000002  0.50000002  0.00000003  1
  Ce  Ce1  1  0.86707301  0.86707303  0.73414602  1
  Ce  Ce2  1  0.13292700  0.13292700  0.26585400  1
  Al  Al3  1  0.33202601  0.51491202  0.66405200  1
  Si  Si4  1  0.33202700  0.14914100  0.66405298  1
  Al  Al5  1  0.66797301  0.85085903  0.33594704  1
  P  P6  1  0.66797400  0.48508802  0.33594802  1
  P  P7  1  0.50000002  0.79971003  1.00000000  1
  P  P8  1  0.49999999  0.20029001  0.00000002  1
  P  P9  1  0.78330999  0.28331001  0.56661999  1
  P  P10  1  0.21669002  0.71669002  0.43338003  1
