# generated using pymatgen
data_Li2Fe3CoO8
_symmetry_space_group_name_H-M   'P 1'
_cell_length_a   5.76712036
_cell_length_b   5.76712036
_cell_length_c   5.76712036
_cell_angle_alpha   60.00000000
_cell_angle_beta   60.00000000
_cell_angle_gamma   60.00000000
_symmetry_Int_Tables_number   1
_chemical_formula_structural   Li2Fe3CoO8
_chemical_formula_sum   'Li2 Fe3 Co1 O8'
_cell_volume   135.63196327
_cell_formula_units_Z   1
loop_
 _symmetry_equiv_pos_site_id
 _symmetry_equiv_pos_as_xyz
  1  'x, y, z'
loop_
 _atom_site_type_symbol
 _atom_site_label
 _atom_site_symmetry_multiplicity
 _atom_site_fract_x
 _atom_site_fract_y
 _atom_site_fract_z
 _atom_site_occupancy
  Li  Li0  1  0.37500001  0.87500002  0.87500002  1
  Li  Li1  1  0.87500002  0.87500002  0.37500001  1
  Fe  Fe2  1  0.87500002  0.37500001  0.87500002  1
  Fe  Fe3  1  0.87500002  0.87500002  0.87500002  1
  Fe  Fe4  1  0.50000001  0.50000001  0.50000001  1
  Co  Co5  1  0.25000001  0.25000001  0.25000001  1
  O  O6  1  0.11029900  0.11030000  0.11030000  1
  O  O7  1  0.63970101  0.08089900  0.63970001  1
  O  O8  1  0.08090000  0.63970001  0.63970001  1
  O  O9  1  0.63970101  0.63970001  0.08089900  1
  O  O10  1  0.66910001  0.11030000  0.11030000  1
  O  O11  1  0.11029900  0.11030000  0.66910101  1
  O  O12  1  0.63970101  0.63970001  0.63970001  1
  O  O13  1  0.11029900  0.66910101  0.11030000  1
