# generated using pymatgen
data_CsKAsH(IO3)3
_symmetry_space_group_name_H-M   'P 1'
_cell_length_a   7.10091352
_cell_length_b   7.10091352
_cell_length_c   7.10091352
_cell_angle_alpha   60.00000000
_cell_angle_beta   60.00000000
_cell_angle_gamma   60.00000000
_symmetry_Int_Tables_number   1
_chemical_formula_structural   CsKAsH(IO3)3
_chemical_formula_sum   'Cs1 K1 As1 H1 I3 O9'
_cell_volume   253.17899618
_cell_formula_units_Z   1
loop_
 _symmetry_equiv_pos_site_id
 _symmetry_equiv_pos_as_xyz
  1  'x, y, z'
loop_
 _atom_site_type_symbol
 _atom_site_label
 _atom_site_symmetry_multiplicity
 _atom_site_fract_x
 _atom_site_fract_y
 _atom_site_fract_z
 _atom_site_occupancy
  K  K0  1  0.74999998  0.74999998  0.74999998  1
  Cs  Cs1  1  0.24999999  0.24999999  0.24999999  1
  As  As2  1  0.49999999  0.49999999  0.49999999  1
  I  I3  1  0.00000000  0.00000000  0.00000000  1
  H  H4  1  0.18807000  0.81192998  0.18807000  1
  I  I5  1  0.81192998  0.18807000  0.81192998  1
  I  I6  1  0.18807000  0.81192998  0.81192998  1
  O  O7  1  0.81192998  0.18807000  0.18807000  1
  O  O8  1  0.18807000  0.18807000  0.81192998  1
  O  O9  1  0.81192998  0.81192998  0.18807000  1
  O  O10  1  0.30596299  0.69403698  0.30596299  1
  O  O11  1  0.69403698  0.30596299  0.69403698  1
  O  O12  1  0.30596299  0.69403698  0.69403698  1
  O  O13  1  0.69403698  0.30596299  0.30596299  1
  O  O14  1  0.30596299  0.30596299  0.69403698  1
  O  O15  1  0.69403698  0.69403698  0.30596299  1
