# generated using pymatgen
data_CeFe(Co2Ir)2
_symmetry_space_group_name_H-M   'P 1'
_cell_length_a   4.12054491
_cell_length_b   4.45722485
_cell_length_c   6.57303810
_cell_angle_alpha   99.42529297
_cell_angle_beta   90.00000000
_cell_angle_gamma   90.00000000
_symmetry_Int_Tables_number   1
_chemical_formula_structural   CeFe(Co2Ir)2
_chemical_formula_sum   'Ce1 Fe1 Co4 Ir2'
_cell_volume   119.09195345
_cell_formula_units_Z   1
loop_
 _symmetry_equiv_pos_site_id
 _symmetry_equiv_pos_as_xyz
  1  'x, y, z'
loop_
 _atom_site_type_symbol
 _atom_site_label
 _atom_site_symmetry_multiplicity
 _atom_site_fract_x
 _atom_site_fract_y
 _atom_site_fract_z
 _atom_site_occupancy
  Fe  Fe0  1  0.25000001  0.20727501  0.29153601  1
  Ce  Ce1  1  0.75000002  0.79272503  0.70846404  1
  Co  Co2  1  0.25000001  0.75104703  0.46960403  1
  Co  Co3  1  0.75000002  0.24895301  0.53039602  1
  Co  Co4  1  0.25000001  0.10644700  0.88930801  1
  Co  Co5  1  0.75000002  0.89355304  0.11069204  1
  Ir  Ir6  1  0.25000001  0.53275502  0.83476303  1
  Ir  Ir7  1  0.75000002  0.46724502  0.16523702  1
