# generated using pymatgen
data_Ca3Mg3(SiP)2
_symmetry_space_group_name_H-M   'P 1'
_cell_length_a   5.68661404
_cell_length_b   7.34755421
_cell_length_c   7.45464230
_cell_angle_alpha   90.00000000
_cell_angle_beta   112.42131042
_cell_angle_gamma   90.00000000
_symmetry_Int_Tables_number   1
_chemical_formula_structural   Ca3Mg3(SiP)2
_chemical_formula_sum   'Ca3 Mg3 Si2 P2'
_cell_volume   287.92891932
_cell_formula_units_Z   1
loop_
 _symmetry_equiv_pos_site_id
 _symmetry_equiv_pos_as_xyz
  1  'x, y, z'
loop_
 _atom_site_type_symbol
 _atom_site_label
 _atom_site_symmetry_multiplicity
 _atom_site_fract_x
 _atom_site_fract_y
 _atom_site_fract_z
 _atom_site_occupancy
  Ca  Ca0  1  0.49999999  0.00000000  1.00000001  1
  Ca  Ca1  1  0.66046198  0.49999999  0.32092399  1
  Ca  Ca2  1  0.33953799  0.49999999  0.67907601  1
  Mg  Mg3  1  -0.00000000  0.49999999  -0.00000000  1
  Mg  Mg4  1  0.49999999  0.00000000  0.50000000  1
  Mg  Mg5  1  0.00000000  0.00000000  0.50000002  1
  Si  Si6  1  0.10720500  0.19508499  0.21441000  1
  Si  Si7  1  0.89279498  0.19508499  0.78558999  1
  P  P8  1  0.89279498  0.80491498  0.78558999  1
  P  P9  1  0.10720500  0.80491498  0.21441000  1
