# generated using pymatgen
data_Ce2Pd
_symmetry_space_group_name_H-M   'P 1'
_cell_length_a   4.61560011
_cell_length_b   7.89199591
_cell_length_c   7.89199591
_cell_angle_alpha   120.00000000
_cell_angle_beta   90.00000000
_cell_angle_gamma   90.00000000
_symmetry_Int_Tables_number   1
_chemical_formula_structural   Ce2Pd
_chemical_formula_sum   'Ce6 Pd3'
_cell_volume   248.96168193
_cell_formula_units_Z   3
loop_
 _symmetry_equiv_pos_site_id
 _symmetry_equiv_pos_as_xyz
  1  'x, y, z'
loop_
 _atom_site_type_symbol
 _atom_site_label
 _atom_site_symmetry_multiplicity
 _atom_site_fract_x
 _atom_site_fract_y
 _atom_site_fract_z
 _atom_site_occupancy
  Ce  Ce0  1  -0.00000000  0.75820901  0.75820901  1
  Ce  Ce1  1  -0.00000000  0.24179100  -0.00000000  1
  Ce  Ce2  1  0.99999998  0.00000000  0.24179100  1
  Ce  Ce3  1  0.49999999  0.00000000  0.58548001  1
  Ce  Ce4  1  0.49999999  0.41452000  0.41452000  1
  Ce  Ce5  1  0.49999999  0.58548001  1.00000001  1
  Pd  Pd6  1  -0.00000000  0.33333334  0.66666667  1
  Pd  Pd7  1  0.49999999  0.00000000  -0.00000000  1
  Pd  Pd8  1  0.99999998  0.66666667  0.33333334  1
