# generated using pymatgen
data_Mn8Ni3
_symmetry_space_group_name_H-M   'P 1'
_cell_length_a   6.52445745
_cell_length_b   6.52445745
_cell_length_c   6.52445745
_cell_angle_alpha   90.92950439
_cell_angle_beta   90.92950439
_cell_angle_gamma   90.92949677
_symmetry_Int_Tables_number   1
_chemical_formula_structural   Mn8Ni3
_chemical_formula_sum   'Mn8 Ni3'
_cell_volume   277.62582041
_cell_formula_units_Z   1
loop_
 _symmetry_equiv_pos_site_id
 _symmetry_equiv_pos_as_xyz
  1  'x, y, z'
loop_
 _atom_site_type_symbol
 _atom_site_label
 _atom_site_symmetry_multiplicity
 _atom_site_fract_x
 _atom_site_fract_y
 _atom_site_fract_z
 _atom_site_occupancy
  Mn  Mn0  1  0.36908499  0.36908501  0.36908500  1
  Mn  Mn1  1  0.63091499  0.63091502  0.63091499  1
  Mn  Mn2  1  0.12976096  0.87667703  0.62630800  1
  Mn  Mn3  1  0.87667700  0.62630802  0.12976099  1
  Mn  Mn4  1  0.62630802  0.12976100  0.87667700  1
  Mn  Mn5  1  0.87023902  0.12332300  0.37369199  1
  Mn  Mn6  1  0.12332299  0.37369201  0.87023900  1
  Mn  Mn7  1  0.37369197  0.87023903  0.12332299  1
  Ni  Ni8  1  0.50000002  0.00000000  0.50000000  1
  Ni  Ni9  1  -0.00000002  0.50000002  0.50000000  1
  Ni  Ni10  1  0.49999999  0.50000002  -0.00000001  1
