# generated using pymatgen
data_Nd3Ge4
_symmetry_space_group_name_H-M   'P 1'
_cell_length_a   4.08308983
_cell_length_b   5.73906851
_cell_length_c   14.34506416
_cell_angle_alpha   90.00000000
_cell_angle_beta   90.00000000
_cell_angle_gamma   110.83804321
_symmetry_Int_Tables_number   1
_chemical_formula_structural   Nd3Ge4
_chemical_formula_sum   'Nd6 Ge8'
_cell_volume   314.16212287
_cell_formula_units_Z   2
loop_
 _symmetry_equiv_pos_site_id
 _symmetry_equiv_pos_as_xyz
  1  'x, y, z'
loop_
 _atom_site_type_symbol
 _atom_site_label
 _atom_site_symmetry_multiplicity
 _atom_site_fract_x
 _atom_site_fract_y
 _atom_site_fract_z
 _atom_site_occupancy
  Nd  Nd0  1  0.95493402  0.90986796  0.74999999  1
  Nd  Nd1  1  0.04506600  0.09013200  0.25000000  1
  Nd  Nd2  1  0.32951800  0.65903597  0.40320200  1
  Nd  Nd3  1  0.67048202  0.34096398  0.59679799  1
  Nd  Nd4  1  0.67048202  0.34096398  0.90320199  1
  Nd  Nd5  1  0.32951800  0.65903597  0.09679800  1
  Ge  Ge6  1  0.22695100  0.45390198  0.74999999  1
  Ge  Ge7  1  0.77304902  0.54609798  0.25000000  1
  Ge  Ge8  1  0.00000000  0.00000000  0.49999999  1
  Ge  Ge9  1  0.00000000  0.00000000  0.00000000  1
  Ge  Ge10  1  0.38101800  0.76203597  0.60852199  1
  Ge  Ge11  1  0.61898202  0.23796399  0.39147800  1
  Ge  Ge12  1  0.38101800  0.76203597  0.89147799  1
  Ge  Ge13  1  0.61898202  0.23796399  0.10852200  1
