# generated using pymatgen
data_LiCu4
_symmetry_space_group_name_H-M   'P 1'
_cell_length_a   3.98533201
_cell_length_b   3.98533130
_cell_length_c   6.55162477
_cell_angle_alpha   90.00000000
_cell_angle_beta   90.00000000
_cell_angle_gamma   120.00000763
_symmetry_Int_Tables_number   1
_chemical_formula_structural   LiCu4
_chemical_formula_sum   'Li1 Cu4'
_cell_volume   90.11737903
_cell_formula_units_Z   1
loop_
 _symmetry_equiv_pos_site_id
 _symmetry_equiv_pos_as_xyz
  1  'x, y, z'
loop_
 _atom_site_type_symbol
 _atom_site_label
 _atom_site_symmetry_multiplicity
 _atom_site_fract_x
 _atom_site_fract_y
 _atom_site_fract_z
 _atom_site_occupancy
  Li  Li0  1  0.66666668  0.33333335  0.01532700  1
  Cu  Cu1  1  0.00000000  0.00000000  0.62442902  1
  Cu  Cu2  1  0.33333336  0.66666669  0.36099501  1
  Cu  Cu3  1  0.33333336  0.66666669  0.74429503  1
  Cu  Cu4  1  0.00000000  0.00000000  0.25495401  1
