# generated using pymatgen
data_Ca5Sn(RuO6)2
_symmetry_space_group_name_H-M   'P 1'
_cell_length_a   5.84015417
_cell_length_b   5.88528776
_cell_length_c   8.35864353
_cell_angle_alpha   90.00000000
_cell_angle_beta   90.53704834
_cell_angle_gamma   90.00000000
_symmetry_Int_Tables_number   1
_chemical_formula_structural   Ca5Sn(RuO6)2
_chemical_formula_sum   'Ca5 Sn1 Ru2 O12'
_cell_volume   287.28221494
_cell_formula_units_Z   1
loop_
 _symmetry_equiv_pos_site_id
 _symmetry_equiv_pos_as_xyz
  1  'x, y, z'
loop_
 _atom_site_type_symbol
 _atom_site_label
 _atom_site_symmetry_multiplicity
 _atom_site_fract_x
 _atom_site_fract_y
 _atom_site_fract_z
 _atom_site_occupancy
  Ca  Ca0  1  0.50332699  0.53464102  0.74800395  1
  Ca  Ca1  1  0.00332700  0.96535904  0.24800399  1
  Ca  Ca2  1  0.49667299  0.46535902  0.25199597  1
  Ca  Ca3  1  0.99667297  0.03464100  0.75199594  1
  Ca  Ca4  1  0.99999997  0.50000002  0.49999995  1
  Sn  Sn5  1  0.49999999  0.00000000  -0.00000002  1
  Ru  Ru6  1  0.49999999  0.00000000  0.49999996  1
  Ru  Ru7  1  0.99999997  0.50000002  -0.00000003  1
  O  O8  1  0.77203698  0.81041203  0.53539395  1
  O  O9  1  0.27203699  0.68958803  0.03539399  1
  O  O10  1  0.22796299  0.18958801  0.46460597  1
  O  O11  1  0.72796298  0.31041201  0.96460594  1
  O  O12  1  0.80580098  0.78159703  0.95964093  1
  O  O13  1  0.30580099  0.71840303  0.45964097  1
  O  O14  1  0.19419899  0.21840301  0.04035899  1
  O  O15  1  0.69419898  0.28159701  0.54035895  1
  O  O16  1  0.42500299  0.98304504  0.73694196  1
  O  O17  1  0.92500297  0.51695502  0.23694196  1
  O  O18  1  0.57499698  0.01695500  0.26305797  1
  O  O19  1  0.07499700  0.48304502  0.76305797  1
