# generated using pymatgen
data_DyYTmInSn4
_symmetry_space_group_name_H-M   'P 1'
_cell_length_a   5.11162996
_cell_length_b   6.27284002
_cell_length_c   6.27284002
_cell_angle_alpha   60.00000000
_cell_angle_beta   90.00000000
_cell_angle_gamma   90.00000000
_symmetry_Int_Tables_number   1
_chemical_formula_structural   DyYTmInSn4
_chemical_formula_sum   'Dy1 Y1 Tm1 In1 Sn4'
_cell_volume   174.18809218
_cell_formula_units_Z   1
loop_
 _symmetry_equiv_pos_site_id
 _symmetry_equiv_pos_as_xyz
  1  'x, y, z'
loop_
 _atom_site_type_symbol
 _atom_site_label
 _atom_site_symmetry_multiplicity
 _atom_site_fract_x
 _atom_site_fract_y
 _atom_site_fract_z
 _atom_site_occupancy
  Tm  Tm0  1  0.75000001  0.66745400  0.16627299  1
  Dy  Dy1  1  0.75000001  0.16627300  0.16627300  1
  Y  Y2  1  0.75000001  0.16627300  0.66745401  1
  In  In3  1  0.25000000  0.33254600  0.83372701  1
  Sn  Sn4  1  0.25000000  0.83372701  0.83372701  1
  Sn  Sn5  1  0.25000000  0.83372701  0.33254599  1
  Sn  Sn6  1  0.25000000  0.33333334  0.33333334  1
  Sn  Sn7  1  0.75000001  0.66666667  0.66666667  1
