# generated using pymatgen
data_K2MnSBr5
_symmetry_space_group_name_H-M   'P 1'
_cell_length_a   7.22883320
_cell_length_b   7.23817587
_cell_length_c   10.29790211
_cell_angle_alpha   89.55123901
_cell_angle_beta   90.00000000
_cell_angle_gamma   90.00000000
_symmetry_Int_Tables_number   1
_chemical_formula_structural   K2MnSBr5
_chemical_formula_sum   'K4 Mn2 S2 Br10'
_cell_volume   538.80643358
_cell_formula_units_Z   2
loop_
 _symmetry_equiv_pos_site_id
 _symmetry_equiv_pos_as_xyz
  1  'x, y, z'
loop_
 _atom_site_type_symbol
 _atom_site_label
 _atom_site_symmetry_multiplicity
 _atom_site_fract_x
 _atom_site_fract_y
 _atom_site_fract_z
 _atom_site_occupancy
  K  K0  1  0.47257199  0.00658900  0.25501899  1
  K  K1  1  0.52742799  0.99341102  0.74498098  1
  K  K2  1  0.02742800  0.50658901  0.75501898  1
  K  K3  1  0.97257197  0.49341101  0.24498099  1
  Mn  Mn4  1  0.49999999  0.50000001  0.49999999  1
  Mn  Mn5  1  0.00000000  0.00000000  0.00000000  1
  Br  Br6  1  0.73011298  0.20761300  0.01842800  1
  Br  Br7  1  0.20937999  0.26823600  0.02247100  1
  Br  Br8  1  0.76988698  0.70761301  0.51842799  1
  Br  Br9  1  0.23011299  0.29238701  0.48157199  1
  Br  Br10  1  0.29061999  0.76823601  0.52247099  1
  S  S11  1  0.70937998  0.23176400  0.47752899  1
  Br  Br12  1  0.00128600  0.95683402  0.23809399  1
  Br  Br13  1  0.79061998  0.73176401  0.97752898  1
  Br  Br14  1  0.99871397  0.04316600  0.76190598  1
  Br  Br15  1  0.26988699  0.79238701  0.98157198  1
  S  S16  1  0.50128599  0.54316601  0.26190599  1
  Br  Br17  1  0.49871399  0.45683401  0.73809398  1
