# generated using pymatgen
data_Yb2Ce(InPd)3
_symmetry_space_group_name_H-M   'P 1'
_cell_length_a   4.41618204
_cell_length_b   7.35136223
_cell_length_c   7.35136175
_cell_angle_alpha   120.00000000
_cell_angle_beta   90.00000000
_cell_angle_gamma   90.00000000
_symmetry_Int_Tables_number   1
_chemical_formula_structural   Yb2Ce(InPd)3
_chemical_formula_sum   'Yb2 Ce1 In3 Pd3'
_cell_volume   206.68702583
_cell_formula_units_Z   1
loop_
 _symmetry_equiv_pos_site_id
 _symmetry_equiv_pos_as_xyz
  1  'x, y, z'
loop_
 _atom_site_type_symbol
 _atom_site_label
 _atom_site_symmetry_multiplicity
 _atom_site_fract_x
 _atom_site_fract_y
 _atom_site_fract_z
 _atom_site_occupancy
  Ce  Ce0  1  0.99999999  0.41851198  0.41851199  1
  Yb  Yb1  1  -0.00000000  0.99999996  0.58148798  1
  Yb  Yb2  1  0.99999999  0.58148798  0.99999999  1
  In  In3  1  0.50000000  0.75415797  0.75415799  1
  In  In4  1  0.50000000  0.99999996  0.24584198  1
  In  In5  1  0.50000000  0.24584199  -0.00000000  1
  Pd  Pd6  1  0.50000000  0.66666664  0.33333332  1
  Pd  Pd7  1  0.50000000  0.33333332  0.66666666  1
  Pd  Pd8  1  0.00000000  0.00000000  0.00000000  1
