# generated using pymatgen
data_Ti7Ni8Sn
_symmetry_space_group_name_H-M   'P 1'
_cell_length_a   4.86187601
_cell_length_b   7.39944172
_cell_length_c   7.39944172
_cell_angle_alpha   83.80388641
_cell_angle_beta   70.82042694
_cell_angle_gamma   70.82042694
_symmetry_Int_Tables_number   1
_chemical_formula_structural   Ti7Ni8Sn
_chemical_formula_sum   'Ti7 Ni8 Sn1'
_cell_volume   237.46509739
_cell_formula_units_Z   1
loop_
 _symmetry_equiv_pos_site_id
 _symmetry_equiv_pos_as_xyz
  1  'x, y, z'
loop_
 _atom_site_type_symbol
 _atom_site_label
 _atom_site_symmetry_multiplicity
 _atom_site_fract_x
 _atom_site_fract_y
 _atom_site_fract_z
 _atom_site_occupancy
  Ti  Ti0  1  0.70761499  0.29238501  0.29238499  1
  Ti  Ti1  1  0.29238498  0.70761502  0.70761500  1
  Ti  Ti2  1  -0.00000003  0.70761502  0.29238500  1
  Ti  Ti3  1  -0.00000001  0.29238501  0.70761501  1
  Ti  Ti4  1  0.17407299  0.18828901  1.00000001  1
  Ti  Ti5  1  0.36236097  0.81171102  -0.00000001  1
  Ni  Ni6  1  0.63763797  1.00000003  0.18828998  1
  Ti  Ti7  1  0.82592797  1.00000003  0.81170999  1
  Ni  Ni8  1  0.97225498  0.60126602  -0.00000002  1
  Ni  Ni9  1  0.57352099  0.39873401  -0.00000001  1
  Ni  Ni10  1  0.42647897  1.00000003  0.60126599  1
  Ni  Ni11  1  0.02774500  0.00000000  0.39873401  1
  Ni  Ni12  1  0.14585399  0.35414601  0.35414600  1
  Sn  Sn13  1  0.85414598  0.64585402  0.64585399  1
  Ni  Ni14  1  0.49999998  0.64585402  0.35414599  1
  Ni  Ni15  1  0.49999999  0.35414601  0.64585400  1
