# generated using pymatgen
data_CeSn
_symmetry_space_group_name_H-M   'P 1'
_cell_length_a   6.07949781
_cell_length_b   9.16035461
_cell_length_c   9.16035461
_cell_angle_alpha   83.67799377
_cell_angle_beta   70.61965942
_cell_angle_gamma   70.61965942
_symmetry_Int_Tables_number   1
_chemical_formula_structural   CeSn
_chemical_formula_sum   'Ce8 Sn8'
_cell_volume   453.96840161
_cell_formula_units_Z   8
loop_
 _symmetry_equiv_pos_site_id
 _symmetry_equiv_pos_as_xyz
  1  'x, y, z'
loop_
 _atom_site_type_symbol
 _atom_site_label
 _atom_site_symmetry_multiplicity
 _atom_site_fract_x
 _atom_site_fract_y
 _atom_site_fract_z
 _atom_site_occupancy
  Ce  Ce0  1  0.85910402  0.64089599  0.64089604  1
  Ce  Ce1  1  0.50000001  0.35910399  0.64089602  1
  Ce  Ce2  1  0.50000001  0.64089599  0.35910403  1
  Ce  Ce3  1  0.14089600  0.35910399  0.35910402  1
  Ce  Ce4  1  0.35181300  0.80821299  1.00000004  1
  Ce  Ce5  1  0.83997402  0.00000000  0.80821300  1
  Ce  Ce6  1  0.64818702  0.00000000  0.19178700  1
  Ce  Ce7  1  0.16002600  0.19178700  0.00000001  1
  Sn  Sn8  1  0.96357402  0.59908999  0.00000004  1
  Sn  Sn9  1  0.43733601  0.00000000  0.59908900  1
  Sn  Sn10  1  0.03642500  0.00000000  0.40091100  1
  Sn  Sn11  1  0.56266501  0.40090999  1.00000002  1
  Sn  Sn12  1  0.29403600  0.70596399  0.70596403  1
  Sn  Sn13  1  -0.00000000  0.29403600  0.70596401  1
  Sn  Sn14  1  -0.00000000  0.70596399  0.29403603  1
  Sn  Sn15  1  0.70596402  0.29403600  0.29403602  1
