# generated using pymatgen
data_Li2MgGaNi2
_symmetry_space_group_name_H-M   'P 1'
_cell_length_a   4.96939993
_cell_length_b   6.25290298
_cell_length_c   6.25290298
_cell_angle_alpha   90.00000000
_cell_angle_beta   90.00000000
_cell_angle_gamma   90.00000000
_symmetry_Int_Tables_number   1
_chemical_formula_structural   Li2MgGaNi2
_chemical_formula_sum   'Li4 Mg2 Ga2 Ni4'
_cell_volume   194.29755275
_cell_formula_units_Z   2
loop_
 _symmetry_equiv_pos_site_id
 _symmetry_equiv_pos_as_xyz
  1  'x, y, z'
loop_
 _atom_site_type_symbol
 _atom_site_label
 _atom_site_symmetry_multiplicity
 _atom_site_fract_x
 _atom_site_fract_y
 _atom_site_fract_z
 _atom_site_occupancy
  Li  Li0  1  0.50000001  0.33690000  0.15533500  1
  Li  Li1  1  0.50000001  0.66310000  0.84466500  1
  Li  Li2  1  0.50000001  0.15533500  0.66310000  1
  Li  Li3  1  0.50000001  0.84466500  0.33690000  1
  Mg  Mg4  1  0.00000000  0.33690000  0.84466500  1
  Mg  Mg5  1  0.00000000  0.84466500  0.66310000  1
  Ga  Ga6  1  -0.00000000  0.15533500  0.33690000  1
  Ga  Ga7  1  -0.00000000  0.66310000  0.15533500  1
  Ni  Ni8  1  0.75000001  0.50000000  0.50000000  1
  Ni  Ni9  1  0.25000000  0.50000000  0.50000000  1
  Ni  Ni10  1  0.75000001  0.00000000  0.00000000  1
  Ni  Ni11  1  0.25000000  0.00000000  0.00000000  1
