# generated using pymatgen
data_Ni
_symmetry_space_group_name_H-M   'P 1'
_cell_length_a   3.01341510
_cell_length_b   5.02050018
_cell_length_c   5.02050018
_cell_angle_alpha   120.00000000
_cell_angle_beta   90.00000000
_cell_angle_gamma   90.00000000
_symmetry_Int_Tables_number   1
_chemical_formula_structural   Ni
_chemical_formula_sum   Ni6
_cell_volume   65.77843948
_cell_formula_units_Z   6
loop_
 _symmetry_equiv_pos_site_id
 _symmetry_equiv_pos_as_xyz
  1  'x, y, z'
loop_
 _atom_site_type_symbol
 _atom_site_label
 _atom_site_symmetry_multiplicity
 _atom_site_fract_x
 _atom_site_fract_y
 _atom_site_fract_z
 _atom_site_occupancy
  Ni  Ni0  1  0.00000000  0.00000000  0.00000000  1
  Ni  Ni1  1  0.49999998  0.50000000  0.50000005  1
  Ni  Ni2  1  0.49999998  0.50000000  0.00000003  1
  Ni  Ni3  1  0.49999998  0.00000000  0.50000002  1
  Ni  Ni4  1  -0.00000000  0.66666666  0.33333338  1
  Ni  Ni5  1  0.99999997  0.33333333  0.66666671  1
