# generated using pymatgen
data_Hf3Ga3Ni7
_symmetry_space_group_name_H-M   'P 1'
_cell_length_a   5.05169201
_cell_length_b   6.77139282
_cell_length_c   6.77139282
_cell_angle_alpha   82.00180817
_cell_angle_beta   68.09818268
_cell_angle_gamma   68.09818268
_symmetry_Int_Tables_number   1
_chemical_formula_structural   Hf3Ga3Ni7
_chemical_formula_sum   'Hf3 Ga3 Ni7'
_cell_volume   199.39969178
_cell_formula_units_Z   1
loop_
 _symmetry_equiv_pos_site_id
 _symmetry_equiv_pos_as_xyz
  1  'x, y, z'
loop_
 _atom_site_type_symbol
 _atom_site_label
 _atom_site_symmetry_multiplicity
 _atom_site_fract_x
 _atom_site_fract_y
 _atom_site_fract_z
 _atom_site_occupancy
  Hf  Hf0  1  0.00000000  0.00000000  0.00000000  1
  Hf  Hf1  1  0.27876000  0.22124000  0.22123999  1
  Hf  Hf2  1  0.50000000  0.77875999  0.22123998  1
  Ga  Ga3  1  0.66439700  0.33560300  0.33560299  1
  Ga  Ga4  1  -0.00000000  0.66439699  0.33560299  1
  Ni  Ni5  1  0.33560300  0.66439699  0.66439698  1
  Ni  Ni6  1  -0.00000000  0.33560300  0.66439698  1
  Ga  Ga7  1  0.50000000  0.22124000  0.77875998  1
  Ni  Ni8  1  0.72124000  0.77875999  0.77875997  1
  Ni  Ni9  1  1.00000000  0.49999999  -0.00000001  1
  Ni  Ni10  1  0.50000000  0.49999999  -0.00000001  1
  Ni  Ni11  1  0.50000000  0.00000000  0.49999999  1
  Ni  Ni12  1  0.00000000  0.00000000  0.49999999  1
