# generated using pymatgen
data_Li6NiSbO10
_symmetry_space_group_name_H-M   'P 1'
_cell_length_a   3.80271506
_cell_length_b   7.08032179
_cell_length_c   7.08032179
_cell_angle_alpha   90.00000000
_cell_angle_beta   90.00000000
_cell_angle_gamma   90.00000000
_symmetry_Int_Tables_number   1
_chemical_formula_structural   Li6NiSbO10
_chemical_formula_sum   'Li6 Ni1 Sb1 O10'
_cell_volume   190.63374391
_cell_formula_units_Z   1
loop_
 _symmetry_equiv_pos_site_id
 _symmetry_equiv_pos_as_xyz
  1  'x, y, z'
loop_
 _atom_site_type_symbol
 _atom_site_label
 _atom_site_symmetry_multiplicity
 _atom_site_fract_x
 _atom_site_fract_y
 _atom_site_fract_z
 _atom_site_occupancy
  Li  Li0  1  0.00000000  0.00000000  0.00000000  1
  Li  Li1  1  0.49999999  0.50000001  0.50000001  1
  Li  Li2  1  0.39428999  0.35688501  0.88489203  1
  Li  Li3  1  0.89428999  0.61510802  0.85688503  1
  Li  Li4  1  0.39428999  0.64311502  0.11510800  1
  Li  Li5  1  0.10571000  0.14311500  0.61510802  1
  Sb  Sb6  1  0.60570999  0.88489203  0.64311502  1
  Ni  Ni7  1  0.10571000  0.85688503  0.38489201  1
  O  O8  1  0.89428999  0.38489201  0.14311500  1
  O  O9  1  0.60570999  0.11510800  0.35688501  1
  O  O10  1  0.60340499  0.83844003  0.29488001  1
  O  O11  1  0.60340499  0.16156000  0.70512002  1
  O  O12  1  0.10340500  0.79488002  0.66156002  1
  O  O13  1  0.89659499  0.33844001  0.79488002  1
  O  O14  1  0.89659499  0.66156002  0.20512001  1
  O  O15  1  0.39659499  0.29488001  0.16156000  1
  O  O16  1  0.39659499  0.70512002  0.83844003  1
  O  O17  1  0.10340500  0.20512001  0.33844001  1
