# generated using pymatgen
data_NdNiO3
_symmetry_space_group_name_H-M   'P 1'
_cell_length_a   5.41137218
_cell_length_b   5.62929201
_cell_length_c   7.74925995
_cell_angle_alpha   90.00000000
_cell_angle_beta   90.00000000
_cell_angle_gamma   90.00000000
_symmetry_Int_Tables_number   1
_chemical_formula_structural   NdNiO3
_chemical_formula_sum   'Nd4 Ni4 O12'
_cell_volume   236.05946154
_cell_formula_units_Z   4
loop_
 _symmetry_equiv_pos_site_id
 _symmetry_equiv_pos_as_xyz
  1  'x, y, z'
loop_
 _atom_site_type_symbol
 _atom_site_label
 _atom_site_symmetry_multiplicity
 _atom_site_fract_x
 _atom_site_fract_y
 _atom_site_fract_z
 _atom_site_occupancy
  Nd  Nd0  1  0.51638398  0.55913500  0.25000000  1
  Nd  Nd1  1  0.98361597  0.05913500  0.25000000  1
  Nd  Nd2  1  0.48361598  0.44086500  0.75000000  1
  Nd  Nd3  1  0.01638400  0.94086500  0.75000000  1
  Ni  Ni4  1  0.00000000  0.50000000  0.00000000  1
  Ni  Ni5  1  0.49999998  0.00000000  0.50000000  1
  Ni  Ni6  1  0.00000000  0.50000000  0.50000000  1
  Ni  Ni7  1  0.49999998  0.00000000  0.00000000  1
  O  O8  1  0.39931999  0.96707400  0.25000000  1
  O  O9  1  0.10068000  0.46707400  0.25000000  1
  O  O10  1  0.60067998  0.03292600  0.75000000  1
  O  O11  1  0.89931997  0.53292600  0.75000000  1
  O  O12  1  0.79866497  0.79595500  0.05288500  1
  O  O13  1  0.70133498  0.29595500  0.44711500  1
  O  O14  1  0.20133499  0.20404500  0.55288500  1
  O  O15  1  0.29866499  0.70404500  0.94711501  1
  O  O16  1  0.20133499  0.20404500  0.94711501  1
  O  O17  1  0.29866499  0.70404500  0.55288500  1
  O  O18  1  0.79866497  0.79595500  0.44711500  1
  O  O19  1  0.70133498  0.29595500  0.05288500  1
