# generated using pymatgen
data_Li3FeO6
_symmetry_space_group_name_H-M   'P 1'
_cell_length_a   5.40240812
_cell_length_b   5.57839203
_cell_length_c   7.71870947
_cell_angle_alpha   90.00000000
_cell_angle_beta   90.11917114
_cell_angle_gamma   90.00000000
_symmetry_Int_Tables_number   1
_chemical_formula_structural   Li3FeO6
_chemical_formula_sum   'Li6 Fe2 O12'
_cell_volume   232.61631759
_cell_formula_units_Z   2
loop_
 _symmetry_equiv_pos_site_id
 _symmetry_equiv_pos_as_xyz
  1  'x, y, z'
loop_
 _atom_site_type_symbol
 _atom_site_label
 _atom_site_symmetry_multiplicity
 _atom_site_fract_x
 _atom_site_fract_y
 _atom_site_fract_z
 _atom_site_occupancy
  Li  Li0  1  0.98589898  0.94556700  0.25002204  1
  Li  Li1  1  0.51410099  0.44556700  0.24997802  1
  Li  Li2  1  0.48589899  0.55443300  0.75002204  1
  Li  Li3  1  0.01410100  0.05443300  0.74997802  1
  Li  Li4  1  0.00000000  0.50000000  -0.00000000  1
  Fe  Fe5  1  0.49999999  0.00000000  0.50000003  1
  Li  Li6  1  0.00000000  0.50000000  0.50000001  1
  Fe  Fe7  1  0.49999999  0.00000000  0.00000002  1
  O  O8  1  0.91340398  0.47637900  0.75243205  1
  O  O9  1  0.79980098  0.21010200  0.04627103  1
  O  O10  1  0.79521098  0.20274400  0.45570404  1
  O  O11  1  0.70478898  0.70274400  0.04429602  1
  O  O12  1  0.70019898  0.71010200  0.45372904  1
  O  O13  1  0.58659599  0.97637899  0.74756804  1
  O  O14  1  0.41340399  0.02362100  0.25243202  1
  O  O15  1  0.29980099  0.28989800  0.54627103  1
  O  O16  1  0.29521099  0.29725600  0.95570404  1
  O  O17  1  0.20019900  0.78989800  0.95372903  1
  O  O18  1  0.20478900  0.79725600  0.54429602  1
  O  O19  1  0.08659600  0.52362100  0.24756801  1
