# generated using pymatgen
data_Ce4Ga2Si11
_symmetry_space_group_name_H-M   'P 1'
_cell_length_a   7.46117258
_cell_length_b   7.46117258
_cell_length_c   7.46117258
_cell_angle_alpha   109.47122192
_cell_angle_beta   109.47122192
_cell_angle_gamma   109.47122192
_symmetry_Int_Tables_number   1
_chemical_formula_structural   Ce4Ga2Si11
_chemical_formula_sum   'Ce4 Ga2 Si11'
_cell_volume   319.74174823
_cell_formula_units_Z   1
loop_
 _symmetry_equiv_pos_site_id
 _symmetry_equiv_pos_as_xyz
  1  'x, y, z'
loop_
 _atom_site_type_symbol
 _atom_site_label
 _atom_site_symmetry_multiplicity
 _atom_site_fract_x
 _atom_site_fract_y
 _atom_site_fract_z
 _atom_site_occupancy
  Ce  Ce0  1  0.50000004  0.50000002  0.50000004  1
  Ce  Ce1  1  0.00000003  0.50000002  0.00000003  1
  Ce  Ce2  1  0.00000000  0.00000000  0.50000000  1
  Ce  Ce3  1  0.50000000  0.00000000  0.00000001  1
  Si  Si4  1  0.50000005  0.75000003  0.25000005  1
  Ga  Ga5  1  0.75000002  0.25000001  0.50000003  1
  Si  Si6  1  0.25000003  0.50000002  0.75000003  1
  Ga  Ga7  1  0.25000005  0.75000003  0.50000005  1
  Si  Si8  1  0.50000002  0.25000001  0.75000003  1
  Si  Si9  1  0.75000004  0.50000002  0.25000005  1
  Si  Si10  1  1.00000005  0.71681003  0.71681006  1
  Si  Si11  1  0.71681005  0.71681003  1.00000006  1
  Si  Si12  1  0.71681001  0.00000000  0.71681002  1
  Si  Si13  1  0.00000002  0.28319001  0.28319002  1
  Si  Si14  1  0.28319002  0.28319001  1.00000002  1
  Si  Si15  1  0.28319000  0.00000000  0.28319001  1
  Si  Si16  1  0.00000000  0.00000000  0.00000000  1
