# generated using pymatgen
data_Mo4SeS7
_symmetry_space_group_name_H-M   'P 1'
_cell_length_a   3.25583601
_cell_length_b   3.25583529
_cell_length_c   36.35693359
_cell_angle_alpha   90.00000000
_cell_angle_beta   90.00000000
_cell_angle_gamma   120.00000763
_symmetry_Int_Tables_number   1
_chemical_formula_structural   Mo4SeS7
_chemical_formula_sum   'Mo4 Se1 S7'
_cell_volume   333.76653820
_cell_formula_units_Z   1
loop_
 _symmetry_equiv_pos_site_id
 _symmetry_equiv_pos_as_xyz
  1  'x, y, z'
loop_
 _atom_site_type_symbol
 _atom_site_label
 _atom_site_symmetry_multiplicity
 _atom_site_fract_x
 _atom_site_fract_y
 _atom_site_fract_z
 _atom_site_occupancy
  Mo  Mo0  1  0.00000000  0.00000000  0.90609601  1
  Mo  Mo1  1  0.00000000  0.00000000  0.53030901  1
  Mo  Mo2  1  0.66666668  0.33333335  0.71817401  1
  Mo  Mo3  1  0.66666668  0.33333335  0.34244900  1
  Se  Se4  1  0.66666668  0.33333335  0.95287701  1
  S  S5  1  0.66666668  0.33333335  0.57708401  1
  S  S6  1  0.66666668  0.33333335  0.85933701  1
  S  S7  1  0.66666668  0.33333335  0.48360801  1
  S  S8  1  0.00000000  0.00000000  0.67552501  1
  S  S9  1  0.00000000  0.00000000  0.29974700  1
  S  S10  1  0.00000000  0.00000000  0.76089901  1
  S  S11  1  0.00000000  0.00000000  0.38514700  1
