# generated using pymatgen
data_Li5VFeWO12
_symmetry_space_group_name_H-M   'P 1'
_cell_length_a   5.37277079
_cell_length_b   5.55389118
_cell_length_c   7.58551598
_cell_angle_alpha   90.00000000
_cell_angle_beta   90.00000000
_cell_angle_gamma   90.00000000
_symmetry_Int_Tables_number   1
_chemical_formula_structural   Li5VFeWO12
_chemical_formula_sum   'Li5 V1 Fe1 W1 O12'
_cell_volume   226.35016047
_cell_formula_units_Z   1
loop_
 _symmetry_equiv_pos_site_id
 _symmetry_equiv_pos_as_xyz
  1  'x, y, z'
loop_
 _atom_site_type_symbol
 _atom_site_label
 _atom_site_symmetry_multiplicity
 _atom_site_fract_x
 _atom_site_fract_y
 _atom_site_fract_z
 _atom_site_occupancy
  Li  Li0  1  0.48979102  0.19916499  0.50000000  1
  Li  Li1  1  0.98979104  0.80083497  0.00000000  1
  Li  Li2  1  0.01555800  0.68932698  0.50000000  1
  Li  Li3  1  0.51555802  0.31067299  0.00000000  1
  Li  Li4  1  0.00043400  0.24632599  0.75002400  1
  V  V5  1  0.50043402  0.75367398  0.25002400  1
  Fe  Fe6  1  0.00043400  0.24632599  0.24997600  1
  W  W7  1  0.50043402  0.75367398  0.74997600  1
  O  O8  1  0.19880301  0.94945997  0.70156000  1
  O  O9  1  0.29148001  0.45950298  0.29620400  1
  O  O10  1  0.79148003  0.54049698  0.20379600  1
  O  O11  1  0.69880303  0.05054000  0.79844000  1
  O  O12  1  0.79148003  0.54049698  0.79620400  1
  O  O13  1  0.69880303  0.05054000  0.20156000  1
  O  O14  1  0.19880301  0.94945997  0.29844000  1
  O  O15  1  0.29148001  0.45950298  0.70379600  1
  O  O16  1  0.59782702  0.77467197  0.50000000  1
  O  O17  1  0.91539104  0.28004699  0.50000000  1
  O  O18  1  0.41539102  0.71995298  0.00000000  1
  O  O19  1  0.09782700  0.22532799  0.00000000  1
