# generated using pymatgen
data_Li3NbVFe3(WO2)2
_symmetry_space_group_name_H-M   'P 1'
_cell_length_a   5.75146627
_cell_length_b   5.81747723
_cell_length_c   8.12080860
_cell_angle_alpha   110.44537354
_cell_angle_beta   96.32344055
_cell_angle_gamma   108.87017822
_symmetry_Int_Tables_number   1
_chemical_formula_structural   Li3NbVFe3(WO2)2
_chemical_formula_sum   'Li3 Nb1 V1 Fe3 W2 O4'
_cell_volume   233.16162803
_cell_formula_units_Z   1
loop_
 _symmetry_equiv_pos_site_id
 _symmetry_equiv_pos_as_xyz
  1  'x, y, z'
loop_
 _atom_site_type_symbol
 _atom_site_label
 _atom_site_symmetry_multiplicity
 _atom_site_fract_x
 _atom_site_fract_y
 _atom_site_fract_z
 _atom_site_occupancy
  Li  Li0  1  0.45868100  0.71223200  0.25415103  1
  Li  Li1  1  0.54252700  0.29131700  0.74997302  1
  V  V2  1  0.00214100  0.00260900  0.00173300  1
  Nb  Nb3  1  0.00115401  0.50062400  0.50143103  1
  Fe  Fe4  1  0.90047599  0.64242300  0.74411303  1
  Li  Li5  1  0.10038500  0.35955700  0.25971702  1
  Fe  Fe6  1  0.26093100  0.40698200  0.62759203  1
  Fe  Fe7  1  0.78915899  0.13738500  0.87978300  1
  W  W8  1  0.32613100  0.28187200  0.97881602  1
  W  W9  1  0.30458301  0.85378400  0.53102604  1
  O  O10  1  0.67923000  0.72640400  0.02701502  1
  O  O11  1  0.69492999  0.15104900  0.47351700  1
  O  O12  1  0.21898101  0.87176100  0.12350404  1
  O  O13  1  0.73981400  0.59571600  0.37479902  1
