# generated using pymatgen
data_DyYTm4AlSi7
_symmetry_space_group_name_H-M   'P 1'
_cell_length_a   4.13423395
_cell_length_b   5.51191902
_cell_length_c   12.66997433
_cell_angle_alpha   84.76931763
_cell_angle_beta   80.61016846
_cell_angle_gamma   67.97403717
_symmetry_Int_Tables_number   1
_chemical_formula_structural   DyYTm4AlSi7
_chemical_formula_sum   'Dy1 Y1 Tm4 Al1 Si7'
_cell_volume   263.91742827
_cell_formula_units_Z   1
loop_
 _symmetry_equiv_pos_site_id
 _symmetry_equiv_pos_as_xyz
  1  'x, y, z'
loop_
 _atom_site_type_symbol
 _atom_site_label
 _atom_site_symmetry_multiplicity
 _atom_site_fract_x
 _atom_site_fract_y
 _atom_site_fract_z
 _atom_site_occupancy
  Dy  Dy0  1  0.47181206  0.67635898  0.38001700  1
  Tm  Tm1  1  0.52818803  0.32364099  0.61998301  1
  Tm  Tm2  1  0.60259906  0.71666298  0.07813899  1
  Y  Y3  1  0.39740103  0.28333699  0.92186103  1
  Tm  Tm4  1  0.25646502  0.25946499  0.22760500  1
  Tm  Tm5  1  0.74353507  0.74053498  0.77239501  1
  Si  Si6  1  0.95781008  0.84900797  0.23537199  1
  Al  Al7  1  0.04219001  0.15099200  0.76462802  1
  Si  Si8  1  0.88651603  0.15096400  0.07600399  1
  Si  Si9  1  0.11348407  0.84903597  0.92399602  1
  Si  Si10  1  0.86384107  0.72842398  0.54389400  1
  Si  Si11  1  0.13615902  0.27157599  0.45610601  1
  Si  Si12  1  0.75538502  0.08569300  0.40353701  1
  Si  Si13  1  0.24461507  0.91430697  0.59646301  1
