# generated using pymatgen
data_Ca3Tl6In(SnGe)2
_symmetry_space_group_name_H-M   'P 1'
_cell_length_a   8.05060768
_cell_length_b   8.05060863
_cell_length_c   9.77617931
_cell_angle_alpha   90.00000000
_cell_angle_beta   90.00000000
_cell_angle_gamma   120.00000000
_symmetry_Int_Tables_number   1
_chemical_formula_structural   Ca3Tl6In(SnGe)2
_chemical_formula_sum   'Ca3 Tl6 In1 Sn2 Ge2'
_cell_volume   548.72805934
_cell_formula_units_Z   1
loop_
 _symmetry_equiv_pos_site_id
 _symmetry_equiv_pos_as_xyz
  1  'x, y, z'
loop_
 _atom_site_type_symbol
 _atom_site_label
 _atom_site_symmetry_multiplicity
 _atom_site_fract_x
 _atom_site_fract_y
 _atom_site_fract_z
 _atom_site_occupancy
  Tl  Tl0  1  0.00000000  0.00000000  0.00000000  1
  Ca  Ca1  1  0.33333339  0.66666671  0.33023599  1
  Ca  Ca2  1  0.66666672  0.33333335  0.66976398  1
  Ca  Ca3  1  0.33333339  0.66666671  0.81200797  1
  In  In4  1  0.66666672  0.33333335  0.18799199  1
  Tl  Tl5  1  0.17215603  0.34431202  0.66120298  1
  Tl  Tl6  1  0.17215606  0.82784405  0.66120298  1
  Tl  Tl7  1  0.65568808  0.82784405  0.66120298  1
  Tl  Tl8  1  0.34431203  0.17215601  0.33879699  1
  Tl  Tl9  1  0.82784404  0.17215601  0.33879699  1
  Ge  Ge10  1  0.50000002  0.00000000  0.00000000  1
  Ge  Ge11  1  0.50000005  0.50000003  -0.00000000  1
  Sn  Sn12  1  0.00000003  0.50000003  -0.00000000  1
  Sn  Sn13  1  0.82784408  0.65568804  0.33879699  1
