# generated using pymatgen
data_Ce2AlSi2
_symmetry_space_group_name_H-M   'P 1'
_cell_length_a   4.49861002
_cell_length_b   7.25763559
_cell_length_c   7.25763559
_cell_angle_alpha   89.79916382
_cell_angle_beta   90.00000000
_cell_angle_gamma   90.00000000
_symmetry_Int_Tables_number   1
_chemical_formula_structural   Ce2AlSi2
_chemical_formula_sum   'Ce4 Al2 Si4'
_cell_volume   236.95506430
_cell_formula_units_Z   2
loop_
 _symmetry_equiv_pos_site_id
 _symmetry_equiv_pos_as_xyz
  1  'x, y, z'
loop_
 _atom_site_type_symbol
 _atom_site_label
 _atom_site_symmetry_multiplicity
 _atom_site_fract_x
 _atom_site_fract_y
 _atom_site_fract_z
 _atom_site_occupancy
  Ce  Ce0  1  -0.00000000  0.82595901  0.82595906  1
  Ce  Ce1  1  1.00000000  0.17333000  0.17333001  1
  Ce  Ce2  1  -0.00000000  0.32727200  0.67244803  1
  Ce  Ce3  1  -0.00000000  0.67244801  0.32727204  1
  Al  Al4  1  0.50000000  0.00032400  0.49949200  1
  Al  Al5  1  0.50000000  0.49949200  0.00032403  1
  Si  Si6  1  0.50000000  0.37575600  0.37575603  1
  Si  Si7  1  0.50000000  0.62267400  0.62267404  1
  Si  Si8  1  0.50000000  0.87744301  0.12530106  1
  Si  Si9  1  0.50000000  0.12530100  0.87744301  1
