# generated using pymatgen
data_CeInPd2
_symmetry_space_group_name_H-M   'P 1'
_cell_length_a   4.42560101
_cell_length_b   4.42560101
_cell_length_c   10.78882504
_cell_angle_alpha   90.00000000
_cell_angle_beta   90.00000000
_cell_angle_gamma   90.00000000
_symmetry_Int_Tables_number   1
_chemical_formula_structural   CeInPd2
_chemical_formula_sum   'Ce2 In2 Pd4'
_cell_volume   211.30932577
_cell_formula_units_Z   2
loop_
 _symmetry_equiv_pos_site_id
 _symmetry_equiv_pos_as_xyz
  1  'x, y, z'
loop_
 _atom_site_type_symbol
 _atom_site_label
 _atom_site_symmetry_multiplicity
 _atom_site_fract_x
 _atom_site_fract_y
 _atom_site_fract_z
 _atom_site_occupancy
  Ce  Ce0  1  -0.00000000  0.50000000  0.76236300  1
  Ce  Ce1  1  0.50000000  0.00000000  0.23763700  1
  In  In2  1  0.00000000  0.00000000  0.50000000  1
  In  In3  1  0.50000000  0.50000000  0.50000000  1
  Pd  Pd4  1  0.00000000  0.00000000  0.00000000  1
  Pd  Pd5  1  0.50000000  0.50000000  0.00000000  1
  Pd  Pd6  1  -0.00000000  0.50000000  0.32527200  1
  Pd  Pd7  1  0.50000000  0.00000000  0.67472800  1
