# generated using pymatgen
data_Ce2Pd3
_symmetry_space_group_name_H-M   'P 1'
_cell_length_a   4.41431189
_cell_length_b   6.08578873
_cell_length_c   9.52919388
_cell_angle_alpha   82.85499573
_cell_angle_beta   76.60750580
_cell_angle_gamma   68.73550415
_symmetry_Int_Tables_number   1
_chemical_formula_structural   Ce2Pd3
_chemical_formula_sum   'Ce4 Pd6'
_cell_volume   231.85049725
_cell_formula_units_Z   2
loop_
 _symmetry_equiv_pos_site_id
 _symmetry_equiv_pos_as_xyz
  1  'x, y, z'
loop_
 _atom_site_type_symbol
 _atom_site_label
 _atom_site_symmetry_multiplicity
 _atom_site_fract_x
 _atom_site_fract_y
 _atom_site_fract_z
 _atom_site_occupancy
  Ce  Ce0  1  0.00054196  0.67231203  0.32660398  1
  Ce  Ce1  1  0.99945801  0.32768802  0.67339597  1
  Ce  Ce2  1  0.81595001  0.26011801  0.10798198  1
  Ce  Ce3  1  0.18404996  0.73988203  0.89201798  1
  Pd  Pd4  1  0.65560801  0.25719801  0.43158598  1
  Pd  Pd5  1  0.34439196  0.74280203  0.56841397  1
  Pd  Pd6  1  0.50164996  0.86874604  0.12795396  1
  Pd  Pd7  1  0.49835001  0.13125401  0.87204599  1
  Pd  Pd8  1  0.72837697  0.92306804  0.62017796  1
  Pd  Pd9  1  0.27162300  0.07693200  0.37982199  1
