# generated using pymatgen
data_CeSi4
_symmetry_space_group_name_H-M   'P 1'
_cell_length_a   3.97356009
_cell_length_b   3.97356009
_cell_length_c   6.56760263
_cell_angle_alpha   107.60855865
_cell_angle_beta   107.60855865
_cell_angle_gamma   90.00000000
_symmetry_Int_Tables_number   1
_chemical_formula_structural   CeSi4
_chemical_formula_sum   'Ce1 Si4'
_cell_volume   93.72818313
_cell_formula_units_Z   1
loop_
 _symmetry_equiv_pos_site_id
 _symmetry_equiv_pos_as_xyz
  1  'x, y, z'
loop_
 _atom_site_type_symbol
 _atom_site_label
 _atom_site_symmetry_multiplicity
 _atom_site_fract_x
 _atom_site_fract_y
 _atom_site_fract_z
 _atom_site_occupancy
  Ce  Ce0  1  0.00000000  0.00000000  0.00000000  1
  Si  Si1  1  0.64106203  0.64106200  0.28212406  1
  Si  Si2  1  0.35893801  0.35893800  0.71787603  1
  Si  Si3  1  0.25000003  0.75000000  0.50000005  1
  Si  Si4  1  0.75000001  0.25000000  0.50000004  1
