# generated using pymatgen
data_CeGe4
_symmetry_space_group_name_H-M   'P 1'
_cell_length_a   4.52679014
_cell_length_b   4.52679014
_cell_length_c   6.08929682
_cell_angle_alpha   111.82053375
_cell_angle_beta   111.82053375
_cell_angle_gamma   90.00000000
_symmetry_Int_Tables_number   1
_chemical_formula_structural   CeGe4
_chemical_formula_sum   'Ce1 Ge4'
_cell_volume   106.15008990
_cell_formula_units_Z   1
loop_
 _symmetry_equiv_pos_site_id
 _symmetry_equiv_pos_as_xyz
  1  'x, y, z'
loop_
 _atom_site_type_symbol
 _atom_site_label
 _atom_site_symmetry_multiplicity
 _atom_site_fract_x
 _atom_site_fract_y
 _atom_site_fract_z
 _atom_site_occupancy
  Ce  Ce0  1  0.00043200  0.00043200  0.00086400  1
  Ge  Ge1  1  0.25511100  0.75511098  0.51022202  1
  Ge  Ge2  1  0.75511098  0.25511099  0.51022202  1
  Ge  Ge3  1  0.40376800  0.40376799  0.80753602  1
  Ge  Ge4  1  0.64557699  0.64557699  0.29115402  1
