# generated using pymatgen
data_Tl3Sn11
_symmetry_space_group_name_H-M   'P 1'
_cell_length_a   4.47549200
_cell_length_b   7.78363323
_cell_length_c   18.30986023
_cell_angle_alpha   90.00000000
_cell_angle_beta   90.00000000
_cell_angle_gamma   106.70796967
_symmetry_Int_Tables_number   1
_chemical_formula_structural   Tl3Sn11
_chemical_formula_sum   'Tl3 Sn11'
_cell_volume   610.90697284
_cell_formula_units_Z   1
loop_
 _symmetry_equiv_pos_site_id
 _symmetry_equiv_pos_as_xyz
  1  'x, y, z'
loop_
 _atom_site_type_symbol
 _atom_site_label
 _atom_site_symmetry_multiplicity
 _atom_site_fract_x
 _atom_site_fract_y
 _atom_site_fract_z
 _atom_site_occupancy
  Tl  Tl0  1  0.00000000  0.00000000  0.00000000  1
  Sn  Sn1  1  0.00000000  0.00000000  0.49999999  1
  Tl  Tl2  1  0.48518199  0.97036403  0.74999999  1
  Tl  Tl3  1  0.51481800  0.02963600  0.25000000  1
  Sn  Sn4  1  0.10090700  0.20181401  0.84988499  1
  Sn  Sn5  1  0.10090700  0.20181401  0.65011499  1
  Sn  Sn6  1  0.38635499  0.77271002  0.92542799  1
  Sn  Sn7  1  0.16443000  0.32885901  0.25000000  1
  Sn  Sn8  1  0.38635499  0.77271002  0.57457199  1
  Sn  Sn9  1  0.61364500  0.22729001  0.42542799  1
  Sn  Sn10  1  0.61364500  0.22729001  0.07457200  1
  Sn  Sn11  1  0.83557099  0.67114102  0.74999999  1
  Sn  Sn12  1  0.89909299  0.79818602  0.34988500  1
  Sn  Sn13  1  0.89909299  0.79818602  0.15011500  1
