# generated using pymatgen
data_SrCa3(PO7)2
_symmetry_space_group_name_H-M   'P 1'
_cell_length_a   5.38934422
_cell_length_b   5.77888107
_cell_length_c   11.06618786
_cell_angle_alpha   90.00000000
_cell_angle_beta   90.00000000
_cell_angle_gamma   90.00000000
_symmetry_Int_Tables_number   1
_chemical_formula_structural   SrCa3(PO7)2
_chemical_formula_sum   'Sr1 Ca3 P2 O14'
_cell_volume   344.64955188
_cell_formula_units_Z   1
loop_
 _symmetry_equiv_pos_site_id
 _symmetry_equiv_pos_as_xyz
  1  'x, y, z'
loop_
 _atom_site_type_symbol
 _atom_site_label
 _atom_site_symmetry_multiplicity
 _atom_site_fract_x
 _atom_site_fract_y
 _atom_site_fract_z
 _atom_site_occupancy
  Ca  Ca0  1  0.34044499  0.90131899  0.12347200  1
  Sr  Sr1  1  0.84044497  0.59868099  0.87652801  1
  Ca  Ca2  1  0.65955497  0.40131899  0.37652800  1
  Ca  Ca3  1  0.15955499  0.09868100  0.62347201  1
  P  P4  1  0.16095699  0.66438099  0.04773900  1
  P  P5  1  0.66095697  0.83561899  0.95226101  1
  O  O6  1  0.83904297  0.16438100  0.45226101  1
  O  O7  1  0.33904299  0.33561900  0.54773901  1
  O  O8  1  0.27870999  0.91003799  0.51598301  1
  O  O9  1  0.77870997  0.58996199  0.48401701  1
  O  O10  1  0.72128997  0.41003799  0.98401701  1
  O  O11  1  0.22128999  0.08996200  0.01598300  1
  O  O12  1  0.40713698  0.06847000  0.72282101  1
  O  O13  1  0.90713696  0.43152999  0.27717900  1
  O  O14  1  0.59286298  0.56846999  0.77717901  1
  O  O15  1  0.09286300  0.93152999  0.22282100  1
  O  O16  1  0.01398300  0.84117099  0.69756501  1
  O  O17  1  0.51398298  0.65882899  0.30243500  1
  O  O18  1  0.98601696  0.34117100  0.80243501  1
  O  O19  1  0.48601698  0.15882900  0.19756500  1
