# generated using pymatgen
data_Ga2NiP3
_symmetry_space_group_name_H-M   'P 1'
_cell_length_a   3.79062891
_cell_length_b   3.79062891
_cell_length_c   6.10745096
_cell_angle_alpha   90.00000000
_cell_angle_beta   90.00000000
_cell_angle_gamma   90.00000000
_symmetry_Int_Tables_number   1
_chemical_formula_structural   Ga2NiP3
_chemical_formula_sum   'Ga2 Ni1 P3'
_cell_volume   87.75715384
_cell_formula_units_Z   1
loop_
 _symmetry_equiv_pos_site_id
 _symmetry_equiv_pos_as_xyz
  1  'x, y, z'
loop_
 _atom_site_type_symbol
 _atom_site_label
 _atom_site_symmetry_multiplicity
 _atom_site_fract_x
 _atom_site_fract_y
 _atom_site_fract_z
 _atom_site_occupancy
  Ga  Ga0  1  0.00000000  0.50000001  0.16896800  1
  Ga  Ga1  1  0.50000001  0.00000000  0.83103201  1
  Ni  Ni2  1  0.00000000  0.00000000  0.50000000  1
  P  P3  1  0.50000001  0.50000001  0.50000000  1
  P  P4  1  0.00000000  0.50000001  0.72571400  1
  P  P5  1  0.50000001  0.00000000  0.27428600  1
