# generated using pymatgen
data_DyTmLu(InPd2)2
_symmetry_space_group_name_H-M   'P 1'
_cell_length_a   3.52023792
_cell_length_b   7.64353609
_cell_length_c   7.64353561
_cell_angle_alpha   120.00000000
_cell_angle_beta   90.00000000
_cell_angle_gamma   90.00000000
_symmetry_Int_Tables_number   1
_chemical_formula_structural   DyTmLu(InPd2)2
_chemical_formula_sum   'Dy1 Tm1 Lu1 In2 Pd4'
_cell_volume   178.11121362
_cell_formula_units_Z   1
loop_
 _symmetry_equiv_pos_site_id
 _symmetry_equiv_pos_as_xyz
  1  'x, y, z'
loop_
 _atom_site_type_symbol
 _atom_site_label
 _atom_site_symmetry_multiplicity
 _atom_site_fract_x
 _atom_site_fract_y
 _atom_site_fract_z
 _atom_site_occupancy
  Tm  Tm0  1  1.00000002  0.39805799  0.39805799  1
  Dy  Dy1  1  -0.00000000  0.60194199  1.00000000  1
  Lu  Lu2  1  -0.00000000  0.99999998  0.60194198  1
  In  In3  1  0.50000001  0.27424699  1.00000000  1
  In  In4  1  0.50000001  0.99999998  0.27424698  1
  Pd  Pd5  1  0.50000001  0.72575298  0.72575299  1
  Pd  Pd6  1  0.50000001  0.33333333  0.66666667  1
  Pd  Pd7  1  0.00000000  0.00000000  0.00000000  1
  Pd  Pd8  1  0.50000001  0.66666665  0.33333332  1
