# generated using pymatgen
data_Ce2SnPd2
_symmetry_space_group_name_H-M   'P 1'
_cell_length_a   3.89912510
_cell_length_b   7.81924820
_cell_length_c   7.81924820
_cell_angle_alpha   90.00000000
_cell_angle_beta   90.00000000
_cell_angle_gamma   90.00000000
_symmetry_Int_Tables_number   1
_chemical_formula_structural   Ce2SnPd2
_chemical_formula_sum   'Ce4 Sn2 Pd4'
_cell_volume   238.39501338
_cell_formula_units_Z   2
loop_
 _symmetry_equiv_pos_site_id
 _symmetry_equiv_pos_as_xyz
  1  'x, y, z'
loop_
 _atom_site_type_symbol
 _atom_site_label
 _atom_site_symmetry_multiplicity
 _atom_site_fract_x
 _atom_site_fract_y
 _atom_site_fract_z
 _atom_site_occupancy
  Ce  Ce0  1  0.49999999  0.83450498  0.66549498  1
  Ce  Ce1  1  0.49999999  0.33450499  0.83450498  1
  Ce  Ce2  1  0.49999999  0.66549498  0.16549500  1
  Ce  Ce3  1  0.49999999  0.16549500  0.33450499  1
  Sn  Sn4  1  0.00000000  0.00000000  0.00000000  1
  Sn  Sn5  1  0.00000000  0.49999999  0.49999999  1
  Pd  Pd6  1  0.99999997  0.86193498  0.36193499  1
  Pd  Pd7  1  0.00000000  0.36193499  0.13806500  1
  Pd  Pd8  1  0.00000000  0.63806498  0.86193498  1
  Pd  Pd9  1  0.99999997  0.13806500  0.63806498  1
