# generated using pymatgen
data_CeAlSi4
_symmetry_space_group_name_H-M   'P 1'
_cell_length_a   5.03209400
_cell_length_b   5.03209400
_cell_length_c   8.21093941
_cell_angle_alpha   90.00000000
_cell_angle_beta   90.00000000
_cell_angle_gamma   120.00000000
_symmetry_Int_Tables_number   1
_chemical_formula_structural   CeAlSi4
_chemical_formula_sum   'Ce2 Al2 Si8'
_cell_volume   180.06154391
_cell_formula_units_Z   2
loop_
 _symmetry_equiv_pos_site_id
 _symmetry_equiv_pos_as_xyz
  1  'x, y, z'
loop_
 _atom_site_type_symbol
 _atom_site_label
 _atom_site_symmetry_multiplicity
 _atom_site_fract_x
 _atom_site_fract_y
 _atom_site_fract_z
 _atom_site_occupancy
  Ce  Ce0  1  0.66666666  0.33333333  0.56553597  1
  Ce  Ce1  1  0.33333336  0.66666666  0.43446398  1
  Al  Al2  1  0.33333336  0.66666666  0.06553600  1
  Al  Al3  1  0.66666666  0.33333333  0.93446395  1
  Si  Si4  1  0.00000000  0.00000000  0.49999998  1
  Si  Si5  1  0.00000000  0.00000000  0.00000000  1
  Si  Si6  1  0.17231201  0.34462400  0.74999996  1
  Si  Si7  1  0.17231204  0.82768799  0.74999996  1
  Si  Si8  1  0.65537602  0.82768799  0.74999996  1
  Si  Si9  1  0.82768800  0.65537599  0.24999999  1
  Si  Si10  1  0.82768797  0.17231200  0.24999999  1
  Si  Si11  1  0.34462400  0.17231200  0.24999999  1
