# generated using pymatgen
data_LiNi4
_symmetry_space_group_name_H-M   'P 1'
_cell_length_a   5.58036184
_cell_length_b   5.58036184
_cell_length_c   6.12979555
_cell_angle_alpha   105.46908569
_cell_angle_beta   105.46908569
_cell_angle_gamma   114.45898438
_symmetry_Int_Tables_number   1
_chemical_formula_structural   LiNi4
_chemical_formula_sum   'Li2 Ni8'
_cell_volume   151.19490879
_cell_formula_units_Z   2
loop_
 _symmetry_equiv_pos_site_id
 _symmetry_equiv_pos_as_xyz
  1  'x, y, z'
loop_
 _atom_site_type_symbol
 _atom_site_label
 _atom_site_symmetry_multiplicity
 _atom_site_fract_x
 _atom_site_fract_y
 _atom_site_fract_z
 _atom_site_occupancy
  Li  Li0  1  0.74999996  0.24999999  0.49999994  1
  Li  Li1  1  0.49999997  0.49999998  -0.00000006  1
  Ni  Ni2  1  0.06970499  0.93029496  0.49999994  1
  Ni  Ni3  1  0.81970496  0.18029499  -0.00000006  1
  Ni  Ni4  1  0.43029498  0.56970497  0.49999994  1
  Ni  Ni5  1  0.18029498  0.81970496  -0.00000006  1
  Ni  Ni6  1  0.37966797  0.87966796  0.75933592  1
  Ni  Ni7  1  0.12966799  0.12966799  0.25933598  1
  Ni  Ni8  1  0.87033195  0.87033196  0.74066389  1
  Ni  Ni9  1  0.12033199  0.62033197  0.24066395  1
