# generated using pymatgen
data_Li3Pd4
_symmetry_space_group_name_H-M   'P 1'
_cell_length_a   7.41044903
_cell_length_b   7.41044903
_cell_length_c   7.44791079
_cell_angle_alpha   109.52820587
_cell_angle_beta   109.46633911
_cell_angle_gamma   109.21425629
_symmetry_Int_Tables_number   1
_chemical_formula_structural   Li3Pd4
_chemical_formula_sum   'Li6 Pd8'
_cell_volume   315.64000967
_cell_formula_units_Z   2
loop_
 _symmetry_equiv_pos_site_id
 _symmetry_equiv_pos_as_xyz
  1  'x, y, z'
loop_
 _atom_site_type_symbol
 _atom_site_label
 _atom_site_symmetry_multiplicity
 _atom_site_fract_x
 _atom_site_fract_y
 _atom_site_fract_z
 _atom_site_occupancy
  Li  Li0  1  0.62599598  0.99969697  0.12470798  1
  Li  Li1  1  0.37319499  0.37319499  0.99999998  1
  Li  Li2  1  0.87498899  0.50128799  0.87529200  1
  Li  Li3  1  0.12597299  0.62597298  0.49999997  1
  Li  Li4  1  0.74939599  0.87319898  0.62497898  1
  Li  Li5  1  0.24822000  0.12441700  0.37502100  1
  Pd  Pd6  1  0.50531299  0.60436498  0.76091198  1
  Pd  Pd7  1  0.99871100  0.25359899  0.09937902  1
  Pd  Pd8  1  0.15421998  0.89933198  0.90062095  1
  Pd  Pd9  1  0.99764100  0.25186499  0.60872601  1
  Pd  Pd10  1  0.50690900  0.11517000  0.76232600  1
  Pd  Pd11  1  0.84345299  0.74440098  0.23908800  1
  Pd  Pd12  1  0.64313900  0.38891499  0.39127400  1
  Pd  Pd13  1  0.35284399  0.74458298  0.23767398  1
