# generated using pymatgen
data_Be2BN6
_symmetry_space_group_name_H-M   'P 1'
_cell_length_a   4.76099777
_cell_length_b   5.84689808
_cell_length_c   5.84689760
_cell_angle_alpha   120.00000000
_cell_angle_beta   90.00000000
_cell_angle_gamma   90.00000000
_symmetry_Int_Tables_number   1
_chemical_formula_structural   Be2BN6
_chemical_formula_sum   'Be2 B1 N6'
_cell_volume   140.95471941
_cell_formula_units_Z   1
loop_
 _symmetry_equiv_pos_site_id
 _symmetry_equiv_pos_as_xyz
  1  'x, y, z'
loop_
 _atom_site_type_symbol
 _atom_site_label
 _atom_site_symmetry_multiplicity
 _atom_site_fract_x
 _atom_site_fract_y
 _atom_site_fract_z
 _atom_site_occupancy
  B  B0  1  0.28833801  0.66666665  0.33333333  1
  Be  Be1  1  0.71166203  0.33333333  0.66666669  1
  Be  Be2  1  0.00000000  0.00000000  0.00000000  1
  N  N3  1  0.22653501  0.16099000  0.32198001  1
  N  N4  1  0.22653501  0.16099000  0.83901103  1
  N  N5  1  0.22653501  0.67802098  0.83901102  1
  N  N6  1  0.77346504  0.83900998  0.67802001  1
  N  N7  1  0.77346504  0.83900998  0.16098899  1
  N  N8  1  0.77346504  0.32197899  0.16098900  1
