# generated using pymatgen
data_TbDy6Sn5
_symmetry_space_group_name_H-M   'P 1'
_cell_length_a   3.77640891
_cell_length_b   6.92474079
_cell_length_c   16.36433601
_cell_angle_alpha   90.00000000
_cell_angle_beta   90.00000000
_cell_angle_gamma   90.00000000
_symmetry_Int_Tables_number   1
_chemical_formula_structural   TbDy6Sn5
_chemical_formula_sum   'Tb1 Dy6 Sn5'
_cell_volume   427.93806987
_cell_formula_units_Z   1
loop_
 _symmetry_equiv_pos_site_id
 _symmetry_equiv_pos_as_xyz
  1  'x, y, z'
loop_
 _atom_site_type_symbol
 _atom_site_label
 _atom_site_symmetry_multiplicity
 _atom_site_fract_x
 _atom_site_fract_y
 _atom_site_fract_z
 _atom_site_occupancy
  Dy  Dy0  1  0.00000000  0.49084701  0.00697000  1
  Dy  Dy1  1  0.00000000  0.88356303  0.50048300  1
  Dy  Dy2  1  0.50000001  0.11643700  0.00048300  1
  Tb  Tb3  1  0.50000001  0.50915302  0.50697000  1
  Dy  Dy4  1  0.00000000  0.88421703  0.10367700  1
  Dy  Dy5  1  0.50000001  0.77777602  0.36889600  1
  Dy  Dy6  1  -0.00000000  0.22222401  0.86889600  1
  Sn  Sn7  1  0.50000001  0.72302602  0.90373100  1
  Sn  Sn8  1  0.50000001  0.11578300  0.60367700  1
  Sn  Sn9  1  0.50000001  0.38467501  0.13854300  1
  Sn  Sn10  1  0.00000000  0.27697401  0.40373100  1
  Sn  Sn11  1  0.00000000  0.61532502  0.63854300  1
