# generated using pymatgen
data_CaTi5Sn2(S3O)3
_symmetry_space_group_name_H-M   'P 1'
_cell_length_a   5.82139015
_cell_length_b   5.82138968
_cell_length_c   15.06039906
_cell_angle_alpha   90.00000000
_cell_angle_beta   90.00000000
_cell_angle_gamma   120.00000000
_symmetry_Int_Tables_number   1
_chemical_formula_structural   CaTi5Sn2(S3O)3
_chemical_formula_sum   'Ca1 Ti5 Sn2 S9 O3'
_cell_volume   441.99818843
_cell_formula_units_Z   1
loop_
 _symmetry_equiv_pos_site_id
 _symmetry_equiv_pos_as_xyz
  1  'x, y, z'
loop_
 _atom_site_type_symbol
 _atom_site_label
 _atom_site_symmetry_multiplicity
 _atom_site_fract_x
 _atom_site_fract_y
 _atom_site_fract_z
 _atom_site_occupancy
  Ca  Ca0  1  0.00000000  0.00000000  0.75000000  1
  Ti  Ti1  1  0.00000000  0.00000000  0.25000000  1
  Ti  Ti2  1  0.66666663  0.33333331  0.75000000  1
  Ti  Ti3  1  0.33333328  0.66666662  0.25000000  1
  Ti  Ti4  1  0.33333328  0.66666662  0.75000000  1
  Ti  Ti5  1  0.66666663  0.33333331  0.25000000  1
  Sn  Sn6  1  0.00000000  0.00000000  0.50000000  1
  Sn  Sn7  1  0.00000000  0.00000000  0.00000000  1
  S  S8  1  0.66372294  0.66372295  0.85328600  1
  O  O9  1  0.99999995  0.33627698  0.85328600  1
  S  S10  1  0.33627693  0.99999993  0.85328600  1
  S  S11  1  0.66372292  0.99999993  0.35328600  1
  S  S12  1  0.33627693  0.99999993  0.64671400  1
  S  S13  1  0.33627697  0.33627698  0.35328600  1
  S  S14  1  0.99999993  0.66372295  0.35328600  1
  S  S15  1  0.99999993  0.66372295  0.14671400  1
  S  S16  1  0.66372292  0.99999993  0.14671400  1
  O  O17  1  0.99999995  0.33627698  0.64671400  1
  O  O18  1  0.66372294  0.66372295  0.64671400  1
  S  S19  1  0.33627697  0.33627698  0.14671400  1
