# generated using pymatgen
data_ErAl2
_symmetry_space_group_name_H-M   'P 1'
_cell_length_a   5.37642431
_cell_length_b   5.37642431
_cell_length_c   5.37642431
_cell_angle_alpha   61.38829422
_cell_angle_beta   61.38829422
_cell_angle_gamma   61.38829422
_symmetry_Int_Tables_number   1
_chemical_formula_structural   ErAl2
_chemical_formula_sum   'Er2 Al4'
_cell_volume   113.31918511
_cell_formula_units_Z   2
loop_
 _symmetry_equiv_pos_site_id
 _symmetry_equiv_pos_as_xyz
  1  'x, y, z'
loop_
 _atom_site_type_symbol
 _atom_site_label
 _atom_site_symmetry_multiplicity
 _atom_site_fract_x
 _atom_site_fract_y
 _atom_site_fract_z
 _atom_site_occupancy
  Er  Er0  1  0.37623400  0.37623399  0.37623400  1
  Er  Er1  1  0.62376600  0.62376598  0.62376600  1
  Al  Al2  1  0.49999999  0.00000000  0.99999999  1
  Al  Al3  1  0.00000001  0.49999999  0.00000000  1
  Al  Al4  1  0.00000000  0.00000000  0.49999999  1
  Al  Al5  1  0.00000000  0.00000000  0.00000000  1
