# generated using pymatgen
data_NaSmHg
_symmetry_space_group_name_H-M   'P 1'
_cell_length_a   4.04356480
_cell_length_b   5.09096622
_cell_length_c   5.09096718
_cell_angle_alpha   60.00000763
_cell_angle_beta   90.00000000
_cell_angle_gamma   90.00000000
_symmetry_Int_Tables_number   1
_chemical_formula_structural   NaSmHg
_chemical_formula_sum   'Na1 Sm1 Hg1'
_cell_volume   90.76022940
_cell_formula_units_Z   1
loop_
 _symmetry_equiv_pos_site_id
 _symmetry_equiv_pos_as_xyz
  1  'x, y, z'
loop_
 _atom_site_type_symbol
 _atom_site_label
 _atom_site_symmetry_multiplicity
 _atom_site_fract_x
 _atom_site_fract_y
 _atom_site_fract_z
 _atom_site_occupancy
  Na  Na0  1  0.00000000  0.00000000  0.00000000  1
  Sm  Sm1  1  0.50000003  0.66666663  0.66666666  1
  Hg  Hg2  1  0.50000003  0.33333331  0.33333333  1
