# generated using pymatgen
data_YCoGe8
_symmetry_space_group_name_H-M   'P 1'
_cell_length_a   5.34718132
_cell_length_b   7.67490816
_cell_length_c   7.67490816
_cell_angle_alpha   93.94393921
_cell_angle_beta   108.70332336
_cell_angle_gamma   108.70332336
_symmetry_Int_Tables_number   1
_chemical_formula_structural   YCoGe8
_chemical_formula_sum   'Y2 Co2 Ge16'
_cell_volume   277.36606050
_cell_formula_units_Z   2
loop_
 _symmetry_equiv_pos_site_id
 _symmetry_equiv_pos_as_xyz
  1  'x, y, z'
loop_
 _atom_site_type_symbol
 _atom_site_label
 _atom_site_symmetry_multiplicity
 _atom_site_fract_x
 _atom_site_fract_y
 _atom_site_fract_z
 _atom_site_occupancy
  Y  Y0  1  0.23521205  0.59378599  0.87119698  1
  Y  Y1  1  0.26478801  0.12880300  0.40621400  1
  Co  Co2  1  0.76478804  0.40621400  0.12880302  1
  Co  Co3  1  0.73521208  0.87119699  0.59378601  1
  Ge  Ge4  1  0.37336205  0.54253399  0.26272600  1
  Ge  Ge5  1  0.12663806  0.73727399  0.45746599  1
  Ge  Ge6  1  0.62663804  0.45746600  0.73727400  1
  Ge  Ge7  1  0.87336203  0.26272600  0.54253401  1
  Ge  Ge8  1  0.25000008  0.99705999  0.00294001  1
  Ge  Ge9  1  0.75000001  0.00294000  0.99706000  1
  Ge  Ge10  1  0.16992702  0.26547700  0.07225000  1
  Ge  Ge11  1  0.33007307  0.92774999  0.73452299  1
  Ge  Ge12  1  0.83007307  0.73452299  0.92775000  1
  Ge  Ge13  1  0.66992702  0.07225000  0.26547701  1
  Ge  Ge14  1  0.25000006  0.78943599  0.21056400  1
  Ge  Ge15  1  0.75000003  0.21056400  0.78943600  1
  Ge  Ge16  1  0.25000004  0.48673700  0.51326299  1
  Ge  Ge17  1  0.75000005  0.51326300  0.48673701  1
  Ge  Ge18  1  0.25000002  0.22723600  0.77276399  1
  Ge  Ge19  1  0.75000007  0.77276399  0.22723602  1
