# generated using pymatgen
data_Li7Fe2O5
_symmetry_space_group_name_H-M   'P 1'
_cell_length_a   6.02715731
_cell_length_b   6.02715731
_cell_length_c   6.02715731
_cell_angle_alpha   88.54667664
_cell_angle_beta   60.55796051
_cell_angle_gamma   118.88771057
_symmetry_Int_Tables_number   1
_chemical_formula_structural   Li7Fe2O5
_chemical_formula_sum   'Li7 Fe2 O5'
_cell_volume   156.71365441
_cell_formula_units_Z   1
loop_
 _symmetry_equiv_pos_site_id
 _symmetry_equiv_pos_as_xyz
  1  'x, y, z'
loop_
 _atom_site_type_symbol
 _atom_site_label
 _atom_site_symmetry_multiplicity
 _atom_site_fract_x
 _atom_site_fract_y
 _atom_site_fract_z
 _atom_site_occupancy
  Li  Li0  1  0.75000001  0.61975501  0.13024501  1
  Li  Li1  1  0.25000001  0.38024500  0.86975500  1
  Li  Li2  1  0.49999999  0.00000000  0.50000000  1
  Li  Li3  1  0.00000002  0.50000001  0.49999999  1
  Li  Li4  1  1.00000003  1.00000001  0.50000001  1
  Li  Li5  1  0.50000003  1.00000001  0.00000000  1
  Fe  Fe6  1  0.97473900  0.24448600  0.28077501  1
  Li  Li7  1  0.51990102  0.78798301  0.73191700  1
  Fe  Fe8  1  0.52526100  0.24448500  0.73025300  1
  O  O9  1  0.01990103  0.75181901  0.26808200  1
  O  O10  1  0.98009900  0.24818100  0.73191801  1
  O  O11  1  0.48009900  0.21201700  0.26808300  1
  O  O12  1  0.47473902  0.75551501  0.26974700  1
  O  O13  1  0.02526103  0.75551401  0.71922499  1
