# generated using pymatgen
data_NaCu3Pd
_symmetry_space_group_name_H-M   'P 1'
_cell_length_a   4.15727377
_cell_length_b   4.15727329
_cell_length_c   7.04195404
_cell_angle_alpha   90.00000000
_cell_angle_beta   90.00000000
_cell_angle_gamma   120.00000763
_symmetry_Int_Tables_number   1
_chemical_formula_structural   NaCu3Pd
_chemical_formula_sum   'Na1 Cu3 Pd1'
_cell_volume   105.40009079
_cell_formula_units_Z   1
loop_
 _symmetry_equiv_pos_site_id
 _symmetry_equiv_pos_as_xyz
  1  'x, y, z'
loop_
 _atom_site_type_symbol
 _atom_site_label
 _atom_site_symmetry_multiplicity
 _atom_site_fract_x
 _atom_site_fract_y
 _atom_site_fract_z
 _atom_site_occupancy
  Na  Na0  1  0.66666671  0.33333333  0.02699700  1
  Cu  Cu1  1  0.33333337  0.66666667  0.34102200  1
  Cu  Cu2  1  0.00000000  0.00000000  0.61781800  1
  Cu  Cu3  1  0.33333337  0.66666667  0.75489100  1
  Pd  Pd4  1  0.00000000  0.00000000  0.25927100  1
