# generated using pymatgen
data_Nd4YGe7
_symmetry_space_group_name_H-M   'P 1'
_cell_length_a   4.22126818
_cell_length_b   8.03493690
_cell_length_c   10.77095032
_cell_angle_alpha   90.00000000
_cell_angle_beta   90.00000000
_cell_angle_gamma   105.22926331
_symmetry_Int_Tables_number   1
_chemical_formula_structural   Nd4YGe7
_chemical_formula_sum   'Nd4 Y1 Ge7'
_cell_volume   352.49571979
_cell_formula_units_Z   1
loop_
 _symmetry_equiv_pos_site_id
 _symmetry_equiv_pos_as_xyz
  1  'x, y, z'
loop_
 _atom_site_type_symbol
 _atom_site_label
 _atom_site_symmetry_multiplicity
 _atom_site_fract_x
 _atom_site_fract_y
 _atom_site_fract_z
 _atom_site_occupancy
  Nd  Nd0  1  0.74952191  0.49904402  0.74999998  1
  Nd  Nd1  1  0.25047793  0.50095602  0.24999999  1
  Nd  Nd2  1  0.00000000  0.00000000  0.00000000  1
  Nd  Nd3  1  0.00000000  0.00000000  0.49999999  1
  Ge  Ge4  1  0.45710588  0.91421204  0.74999998  1
  Y  Y5  1  0.54289397  0.08578800  0.24999999  1
  Ge  Ge6  1  0.37663990  0.75328003  0.95872397  1
  Ge  Ge7  1  0.06522298  0.13044601  0.74999998  1
  Ge  Ge8  1  0.37663990  0.75328003  0.54127598  1
  Ge  Ge9  1  0.62335995  0.24672001  0.45872399  1
  Ge  Ge10  1  0.93477686  0.86955404  0.24999999  1
  Ge  Ge11  1  0.62335995  0.24672001  0.04127600  1
