# generated using pymatgen
data_U2TiNi6
_symmetry_space_group_name_H-M   'P 1'
_cell_length_a   3.96944308
_cell_length_b   6.29758596
_cell_length_c   6.29758644
_cell_angle_alpha   120.00000000
_cell_angle_beta   90.00000000
_cell_angle_gamma   90.00000000
_symmetry_Int_Tables_number   1
_chemical_formula_structural   U2TiNi6
_chemical_formula_sum   'U2 Ti1 Ni6'
_cell_volume   136.33534221
_cell_formula_units_Z   1
loop_
 _symmetry_equiv_pos_site_id
 _symmetry_equiv_pos_as_xyz
  1  'x, y, z'
loop_
 _atom_site_type_symbol
 _atom_site_label
 _atom_site_symmetry_multiplicity
 _atom_site_fract_x
 _atom_site_fract_y
 _atom_site_fract_z
 _atom_site_occupancy
  Ti  Ti0  1  0.49999999  0.00000000  0.58616000  1
  U  U1  1  0.49999999  0.58616002  0.00000003  1
  U  U2  1  0.49999999  0.41384001  0.41384002  1
  Ni  Ni3  1  0.99999998  0.75228102  0.75228104  1
  Ni  Ni4  1  0.99999998  0.00000000  0.24771900  1
  Ni  Ni5  1  0.49999999  0.00000000  -0.00000000  1
  Ni  Ni6  1  0.99999998  0.24771901  0.00000001  1
  Ni  Ni7  1  0.99999998  0.33333334  0.66666669  1
  Ni  Ni8  1  0.99999998  0.66666669  0.33333337  1
