# generated using pymatgen
data_Ce2Pd3Pb2
_symmetry_space_group_name_H-M   'P 1'
_cell_length_a   5.35945606
_cell_length_b   5.35945702
_cell_length_c   5.41736317
_cell_angle_alpha   90.00000000
_cell_angle_beta   90.00000000
_cell_angle_gamma   119.99999237
_symmetry_Int_Tables_number   1
_chemical_formula_structural   Ce2Pd3Pb2
_chemical_formula_sum   'Ce2 Pd3 Pb2'
_cell_volume   134.75972706
_cell_formula_units_Z   1
loop_
 _symmetry_equiv_pos_site_id
 _symmetry_equiv_pos_as_xyz
  1  'x, y, z'
loop_
 _atom_site_type_symbol
 _atom_site_label
 _atom_site_symmetry_multiplicity
 _atom_site_fract_x
 _atom_site_fract_y
 _atom_site_fract_z
 _atom_site_occupancy
  Ce  Ce0  1  0.00000000  0.00000000  0.74124298  1
  Ce  Ce1  1  0.00000000  0.00000000  0.25875699  1
  Pb  Pb2  1  0.66666664  0.33333331  0.49999998  1
  Pb  Pb3  1  0.33333330  0.66666663  0.49999998  1
  Pd  Pd4  1  0.49999997  0.49999997  0.99999997  1
  Pd  Pd5  1  -0.00000003  0.49999997  -0.00000000  1
  Pd  Pd6  1  0.49999999  0.00000000  0.99999997  1
