# generated using pymatgen
data_Nd(HfNi2)6
_symmetry_space_group_name_H-M   'P 1'
_cell_length_a   6.80347204
_cell_length_b   6.80347204
_cell_length_c   6.80347204
_cell_angle_alpha   82.52193451
_cell_angle_beta   82.52193451
_cell_angle_gamma   82.52194214
_symmetry_Int_Tables_number   1
_chemical_formula_structural   Nd(HfNi2)6
_chemical_formula_sum   'Nd1 Hf6 Ni12'
_cell_volume   307.52022066
_cell_formula_units_Z   1
loop_
 _symmetry_equiv_pos_site_id
 _symmetry_equiv_pos_as_xyz
  1  'x, y, z'
loop_
 _atom_site_type_symbol
 _atom_site_label
 _atom_site_symmetry_multiplicity
 _atom_site_fract_x
 _atom_site_fract_y
 _atom_site_fract_z
 _atom_site_occupancy
  Hf  Hf0  1  0.33490101  0.33490099  0.33490097  1
  Nd  Nd1  1  0.66509901  0.66509898  0.66509895  1
  Hf  Hf2  1  0.64825301  0.64825298  0.16186794  1
  Hf  Hf3  1  0.64825299  0.16186800  0.64825298  1
  Hf  Hf4  1  0.90020202  0.90020198  0.90020193  1
  Ni  Ni5  1  0.09979800  0.09979800  0.09979799  1
  Hf  Hf6  1  0.00000000  0.00000000  0.50000001  1
  Hf  Hf7  1  0.49999999  0.00000000  -0.00000002  1
  Ni  Ni8  1  0.00000002  0.49999999  1.00000000  1
  Ni  Ni9  1  0.29690102  0.70309898  -0.00000005  1
  Ni  Ni10  1  0.00000001  0.29690099  0.70309900  1
  Ni  Ni11  1  0.70309899  0.00000000  0.29690097  1
  Ni  Ni12  1  0.70309900  0.29690099  -0.00000005  1
  Ni  Ni13  1  0.00000003  0.70309898  0.29690097  1
  Ni  Ni14  1  0.29690104  0.99999998  0.70309895  1
  Ni  Ni15  1  0.35174703  0.83813198  0.35174695  1
  Ni  Ni16  1  0.35174701  0.35174699  0.83813198  1
  Ni  Ni17  1  0.83813200  0.35174699  0.35174695  1
  Ni  Ni18  1  0.16186802  0.64825298  0.64825297  1
