# generated using pymatgen
data_Li4VO7
_symmetry_space_group_name_H-M   'P 1'
_cell_length_a   5.23364878
_cell_length_b   5.26845980
_cell_length_c   5.41847610
_cell_angle_alpha   90.00000000
_cell_angle_beta   79.94515228
_cell_angle_gamma   90.00000000
_symmetry_Int_Tables_number   1
_chemical_formula_structural   Li4VO7
_chemical_formula_sum   'Li4 V1 O7'
_cell_volume   147.11039279
_cell_formula_units_Z   1
loop_
 _symmetry_equiv_pos_site_id
 _symmetry_equiv_pos_as_xyz
  1  'x, y, z'
loop_
 _atom_site_type_symbol
 _atom_site_label
 _atom_site_symmetry_multiplicity
 _atom_site_fract_x
 _atom_site_fract_y
 _atom_site_fract_z
 _atom_site_occupancy
  Li  Li0  1  0.72401904  0.95582004  0.21025597  1
  Li  Li1  1  0.72401904  0.54418002  0.71025595  1
  Li  Li2  1  0.27598101  0.45582002  0.28974398  1
  Li  Li3  1  0.27598101  0.04418000  0.78974397  1
  O  O4  1  0.06101500  0.18017801  0.14538699  1
  V  V5  1  0.06101500  0.31982201  0.64538698  1
  O  O6  1  0.54701003  0.25567401  0.97806395  1
  O  O7  1  0.45299002  0.75567403  0.52193597  1
  O  O8  1  0.54701003  0.24432601  0.47806397  1
  O  O9  1  0.45299002  0.74432603  0.02193598  1
  O  O10  1  0.93898505  0.68017803  0.35461295  1
  O  O11  1  0.93898505  0.81982203  0.85461294  1
