# generated using pymatgen
data_LiTiV2O5
_symmetry_space_group_name_H-M   'P 1'
_cell_length_a   4.18775988
_cell_length_b   5.13966179
_cell_length_c   5.13966179
_cell_angle_alpha   80.44630432
_cell_angle_beta   65.95861053
_cell_angle_gamma   65.95861053
_symmetry_Int_Tables_number   1
_chemical_formula_structural   LiTiV2O5
_chemical_formula_sum   'Li1 Ti1 V2 O5'
_cell_volume   92.26384466
_cell_formula_units_Z   1
loop_
 _symmetry_equiv_pos_site_id
 _symmetry_equiv_pos_as_xyz
  1  'x, y, z'
loop_
 _atom_site_type_symbol
 _atom_site_label
 _atom_site_symmetry_multiplicity
 _atom_site_fract_x
 _atom_site_fract_y
 _atom_site_fract_z
 _atom_site_occupancy
  Li  Li0  1  0.60756801  0.17599499  0.60886899  1
  Ti  Ti1  1  0.21643600  0.39113198  0.17599501  1
  V  V2  1  0.78356401  0.60886797  0.82400500  1
  V  V3  1  0.39243200  0.82400496  0.39113102  1
  O  O4  1  0.90854302  0.78145496  0.40146002  1
  O  O5  1  0.31000200  0.59853997  0.78145599  1
  O  O6  1  0.68999801  0.40145998  0.21854401  1
  O  O7  1  0.09145700  0.21854499  0.59853998  1
  O  O8  1  0.50000000  0.99999995  0.00000005  1
