# generated using pymatgen
data_Ce2Pd3
_symmetry_space_group_name_H-M   'P 1'
_cell_length_a   3.50799894
_cell_length_b   7.88371801
_cell_length_c   7.88371801
_cell_angle_alpha   90.00000000
_cell_angle_beta   90.00000000
_cell_angle_gamma   90.00000000
_symmetry_Int_Tables_number   1
_chemical_formula_structural   Ce2Pd3
_chemical_formula_sum   'Ce4 Pd6'
_cell_volume   218.03269242
_cell_formula_units_Z   2
loop_
 _symmetry_equiv_pos_site_id
 _symmetry_equiv_pos_as_xyz
  1  'x, y, z'
loop_
 _atom_site_type_symbol
 _atom_site_label
 _atom_site_symmetry_multiplicity
 _atom_site_fract_x
 _atom_site_fract_y
 _atom_site_fract_z
 _atom_site_occupancy
  Ce  Ce0  1  0.50000001  0.66734000  0.16734000  1
  Ce  Ce1  1  0.50000001  0.16734000  0.33266000  1
  Ce  Ce2  1  0.50000001  0.83266000  0.66734000  1
  Ce  Ce3  1  0.50000001  0.33266000  0.83266000  1
  Pd  Pd4  1  0.00000000  0.37257700  0.12742300  1
  Pd  Pd5  1  1.00000002  0.12742300  0.62742300  1
  Pd  Pd6  1  0.00000000  0.62742300  0.87257700  1
  Pd  Pd7  1  1.00000002  0.87257700  0.37257700  1
  Pd  Pd8  1  0.00000000  0.00000000  0.00000000  1
  Pd  Pd9  1  0.00000000  0.50000000  0.50000000  1
