# generated using pymatgen
data_Li5FeNiSbO12
_symmetry_space_group_name_H-M   'P 1'
_cell_length_a   5.50444078
_cell_length_b   5.60588694
_cell_length_c   7.84440804
_cell_angle_alpha   90.00000000
_cell_angle_beta   90.00000000
_cell_angle_gamma   89.97072601
_symmetry_Int_Tables_number   1
_chemical_formula_structural   Li5FeNiSbO12
_chemical_formula_sum   'Li5 Fe1 Ni1 Sb1 O12'
_cell_volume   242.05700620
_cell_formula_units_Z   1
loop_
 _symmetry_equiv_pos_site_id
 _symmetry_equiv_pos_as_xyz
  1  'x, y, z'
loop_
 _atom_site_type_symbol
 _atom_site_label
 _atom_site_symmetry_multiplicity
 _atom_site_fract_x
 _atom_site_fract_y
 _atom_site_fract_z
 _atom_site_occupancy
  Li  Li0  1  0.49161600  0.54035798  0.50000000  1
  Li  Li1  1  0.01089200  0.04760800  0.50000000  1
  Li  Li2  1  0.51129700  0.45052198  1.00000000  1
  Li  Li3  1  0.98971700  0.95216396  1.00000000  1
  Fe  Fe4  1  0.00029598  0.50048998  0.24879300  1
  Li  Li5  1  0.49953798  0.99899296  0.75083200  1
  Ni  Ni6  1  0.00029598  0.50048998  0.75120700  1
  Sb  Sb7  1  0.49953798  0.99899296  0.24916800  1
  O  O8  1  0.58770199  0.98127696  0.50000000  1
  O  O9  1  0.92018402  0.47563198  0.50000000  1
  O  O10  1  0.41263102  0.02385900  1.00000000  1
  O  O11  1  0.08832498  0.52479798  1.00000000  1
  O  O12  1  0.20336998  0.79560997  0.29409700  1
  O  O13  1  0.29162100  0.29093299  0.70662600  1
  O  O14  1  0.79228602  0.20833699  0.79682200  1
  O  O15  1  0.70670700  0.70752797  0.20208100  1
  O  O16  1  0.79228602  0.20833699  0.20317800  1
  O  O17  1  0.70670700  0.70752797  0.79791900  1
  O  O18  1  0.20336998  0.79560997  0.70590300  1
  O  O19  1  0.29162100  0.29093299  0.29337400  1
