# generated using pymatgen
data_Li2CoO4
_symmetry_space_group_name_H-M   'P 1'
_cell_length_a   5.99513292
_cell_length_b   5.99513292
_cell_length_c   5.99513292
_cell_angle_alpha   60.00000000
_cell_angle_beta   60.00000000
_cell_angle_gamma   60.00000000
_symmetry_Int_Tables_number   1
_chemical_formula_structural   Li2CoO4
_chemical_formula_sum   'Li4 Co2 O8'
_cell_volume   152.36367951
_cell_formula_units_Z   2
loop_
 _symmetry_equiv_pos_site_id
 _symmetry_equiv_pos_as_xyz
  1  'x, y, z'
loop_
 _atom_site_type_symbol
 _atom_site_label
 _atom_site_symmetry_multiplicity
 _atom_site_fract_x
 _atom_site_fract_y
 _atom_site_fract_z
 _atom_site_occupancy
  Li  Li0  1  0.74999997  0.74999997  0.74999997  1
  Li  Li1  1  0.00000000  0.00000000  0.00000000  1
  Li  Li2  1  0.87499997  0.37499999  0.37499999  1
  Li  Li3  1  0.37499999  0.37499999  0.87499997  1
  Co  Co4  1  0.37499999  0.87499997  0.37499999  1
  Co  Co5  1  0.37499999  0.37499999  0.37499999  1
  O  O6  1  0.60377798  0.60377898  0.60377898  1
  O  O7  1  0.14622200  0.56133598  0.14622100  1
  O  O8  1  0.56133698  0.14622100  0.14622100  1
  O  O9  1  0.14622200  0.14622100  0.56133598  1
  O  O10  1  0.18866299  0.60377898  0.60377898  1
  O  O11  1  0.60377798  0.60377898  0.18866399  1
  O  O12  1  0.14622200  0.14622100  0.14622100  1
  O  O13  1  0.60377798  0.18866399  0.60377898  1
