# generated using pymatgen
data_Hf2GaNi
_symmetry_space_group_name_H-M   'P 1'
_cell_length_a   3.67832994
_cell_length_b   4.34736776
_cell_length_c   5.36611748
_cell_angle_alpha   90.00000000
_cell_angle_beta   110.04369354
_cell_angle_gamma   90.00000000
_symmetry_Int_Tables_number   1
_chemical_formula_structural   Hf2GaNi
_chemical_formula_sum   'Hf2 Ga1 Ni1'
_cell_volume   80.61249615
_cell_formula_units_Z   1
loop_
 _symmetry_equiv_pos_site_id
 _symmetry_equiv_pos_as_xyz
  1  'x, y, z'
loop_
 _atom_site_type_symbol
 _atom_site_label
 _atom_site_symmetry_multiplicity
 _atom_site_fract_x
 _atom_site_fract_y
 _atom_site_fract_z
 _atom_site_occupancy
  Hf  Hf0  1  0.86072302  0.50000003  0.72144602  1
  Hf  Hf1  1  0.14078900  1.00000005  0.28157800  1
  Ni  Ni2  1  0.57110701  0.50000003  0.14221401  1
  Ga  Ga3  1  0.42738101  0.00000000  0.85476201  1
