# generated using pymatgen
data_Na2TeO2
_symmetry_space_group_name_H-M   'P 1'
_cell_length_a   3.85788393
_cell_length_b   3.85788441
_cell_length_c   6.85563898
_cell_angle_alpha   90.00000000
_cell_angle_beta   90.00000000
_cell_angle_gamma   120.00000000
_symmetry_Int_Tables_number   1
_chemical_formula_structural   Na2TeO2
_chemical_formula_sum   'Na2 Te1 O2'
_cell_volume   88.36431989
_cell_formula_units_Z   1
loop_
 _symmetry_equiv_pos_site_id
 _symmetry_equiv_pos_as_xyz
  1  'x, y, z'
loop_
 _atom_site_type_symbol
 _atom_site_label
 _atom_site_symmetry_multiplicity
 _atom_site_fract_x
 _atom_site_fract_y
 _atom_site_fract_z
 _atom_site_occupancy
  Na  Na0  1  0.66666670  0.33333334  0.70931800  1
  Na  Na1  1  0.33333338  0.66666669  0.29068200  1
  Te  Te2  1  0.00000000  0.00000000  0.00000000  1
  O  O3  1  0.66666670  0.33333334  0.37399600  1
  O  O4  1  0.33333338  0.66666669  0.62600400  1
