# generated using pymatgen
data_DyYTmSn5
_symmetry_space_group_name_H-M   'P 1'
_cell_length_a   5.03866291
_cell_length_b   6.66539621
_cell_length_c   6.66539669
_cell_angle_alpha   60.00000381
_cell_angle_beta   90.00000000
_cell_angle_gamma   90.00000000
_symmetry_Int_Tables_number   1
_chemical_formula_structural   DyYTmSn5
_chemical_formula_sum   'Dy1 Y1 Tm1 Sn5'
_cell_volume   193.86433738
_cell_formula_units_Z   1
loop_
 _symmetry_equiv_pos_site_id
 _symmetry_equiv_pos_as_xyz
  1  'x, y, z'
loop_
 _atom_site_type_symbol
 _atom_site_label
 _atom_site_symmetry_multiplicity
 _atom_site_fract_x
 _atom_site_fract_y
 _atom_site_fract_z
 _atom_site_occupancy
  Tm  Tm0  1  0.75000001  0.33333332  0.33333334  1
  Dy  Dy1  1  0.25000000  0.66666664  0.66666667  1
  Y  Y2  1  0.75000001  0.83381697  0.33236601  1
  Sn  Sn3  1  0.75000001  0.33236699  0.83381600  1
  Sn  Sn4  1  0.75000001  0.83381697  0.83381600  1
  Sn  Sn5  1  0.25000000  0.16618299  0.66763400  1
  Sn  Sn6  1  0.25000000  0.66763297  0.16618401  1
  Sn  Sn7  1  0.25000000  0.16618299  0.16618400  1
