# generated using pymatgen
data_LiFeO3
_symmetry_space_group_name_H-M   'P 1'
_cell_length_a   5.06465387
_cell_length_b   5.38396692
_cell_length_c   7.58975983
_cell_angle_alpha   90.00000000
_cell_angle_beta   90.00000000
_cell_angle_gamma   90.00000000
_symmetry_Int_Tables_number   1
_chemical_formula_structural   LiFeO3
_chemical_formula_sum   'Li4 Fe4 O12'
_cell_volume   206.95703155
_cell_formula_units_Z   4
loop_
 _symmetry_equiv_pos_site_id
 _symmetry_equiv_pos_as_xyz
  1  'x, y, z'
loop_
 _atom_site_type_symbol
 _atom_site_label
 _atom_site_symmetry_multiplicity
 _atom_site_fract_x
 _atom_site_fract_y
 _atom_site_fract_z
 _atom_site_occupancy
  Li  Li0  1  0.02415800  0.93043201  0.75000002  1
  Li  Li1  1  0.47584201  0.43043201  0.75000002  1
  Li  Li2  1  0.52415801  0.56956801  0.25000001  1
  Li  Li3  1  0.97584202  0.06956800  0.25000001  1
  Fe  Fe4  1  0.00000000  0.50000001  -0.00000000  1
  Fe  Fe5  1  0.00000000  0.50000001  0.50000001  1
  Fe  Fe6  1  0.50000001  0.00000000  0.00000000  1
  Fe  Fe7  1  0.50000001  0.00000000  0.50000001  1
  O  O8  1  0.14106200  0.43750801  0.25000001  1
  O  O9  1  0.18591700  0.18899200  0.57163801  1
  O  O10  1  0.18591700  0.18899200  0.92836202  1
  O  O11  1  0.31408301  0.68899201  0.57163801  1
  O  O12  1  0.31408301  0.68899201  0.92836202  1
  O  O13  1  0.35893801  0.93750801  0.25000001  1
  O  O14  1  0.64106202  0.06249200  0.75000002  1
  O  O15  1  0.68591702  0.31100800  0.07163800  1
  O  O16  1  0.68591702  0.31100800  0.42836201  1
  O  O17  1  0.81408302  0.81100801  0.07163800  1
  O  O18  1  0.81408302  0.81100801  0.42836201  1
  O  O19  1  0.85893802  0.56249201  0.75000002  1
