# generated using pymatgen
data_MoS5
_symmetry_space_group_name_H-M   'P 1'
_cell_length_a   3.29164600
_cell_length_b   3.29164600
_cell_length_c   37.40000534
_cell_angle_alpha   90.00000000
_cell_angle_beta   90.00000000
_cell_angle_gamma   120.00000000
_symmetry_Int_Tables_number   1
_chemical_formula_structural   MoS5
_chemical_formula_sum   'Mo2 S10'
_cell_volume   350.93650178
_cell_formula_units_Z   2
loop_
 _symmetry_equiv_pos_site_id
 _symmetry_equiv_pos_as_xyz
  1  'x, y, z'
loop_
 _atom_site_type_symbol
 _atom_site_label
 _atom_site_symmetry_multiplicity
 _atom_site_fract_x
 _atom_site_fract_y
 _atom_site_fract_z
 _atom_site_occupancy
  Mo  Mo0  1  0.66666666  0.33333333  0.90608997  1
  Mo  Mo1  1  0.66666666  0.33333333  0.53034498  1
  S  S2  1  0.33333333  0.66666665  0.71822397  1
  S  S3  1  0.33333333  0.66666665  0.34243199  1
  S  S4  1  0.66666666  0.33333333  0.67313898  1
  S  S5  1  0.66666666  0.33333333  0.29712899  1
  S  S6  1  0.33333333  0.66666665  0.57540898  1
  S  S7  1  0.33333333  0.66666665  0.48529298  1
  S  S8  1  0.66666666  0.33333333  0.76327897  1
  S  S9  1  0.66666666  0.33333333  0.38774099  1
  S  S10  1  0.33333333  0.66666665  0.94708497  1
  S  S11  1  0.33333333  0.66666665  0.86508497  1
