# generated using pymatgen
data_Ti2Ni8Ge
_symmetry_space_group_name_H-M   'P 1'
_cell_length_a   3.66284704
_cell_length_b   6.96522379
_cell_length_c   6.96522427
_cell_angle_alpha   120.00000000
_cell_angle_beta   90.00000000
_cell_angle_gamma   90.00000000
_symmetry_Int_Tables_number   1
_chemical_formula_structural   Ti2Ni8Ge
_chemical_formula_sum   'Ti2 Ni8 Ge1'
_cell_volume   153.89325798
_cell_formula_units_Z   1
loop_
 _symmetry_equiv_pos_site_id
 _symmetry_equiv_pos_as_xyz
  1  'x, y, z'
loop_
 _atom_site_type_symbol
 _atom_site_label
 _atom_site_symmetry_multiplicity
 _atom_site_fract_x
 _atom_site_fract_y
 _atom_site_fract_z
 _atom_site_occupancy
  Ti  Ti0  1  0.00000000  0.00000000  0.00000000  1
  Ti  Ti1  1  0.49999999  0.81344603  0.18655400  1
  Ni  Ni2  1  0.49999999  0.37310801  0.18655400  1
  Ni  Ni3  1  0.49999999  0.81344603  0.62689199  1
  Ni  Ni4  1  -0.00000000  0.33333334  0.66666665  1
  Ni  Ni5  1  0.49999999  0.19649701  0.80350298  1
  Ni  Ni6  1  0.49999999  0.60700602  0.80350298  1
  Ni  Ni7  1  0.49999999  0.19649701  0.39299399  1
  Ni  Ni8  1  -0.00000000  0.53584702  0.46415199  1
  Ni  Ni9  1  -0.00000000  0.92830503  0.46415199  1
  Ge  Ge10  1  -0.00000000  0.53584702  0.07169400  1
