# generated using pymatgen
data_Nd2Ga2Ni
_symmetry_space_group_name_H-M   'P 1'
_cell_length_a   4.30683184
_cell_length_b   7.30698395
_cell_length_c   7.30698395
_cell_angle_alpha   90.00000000
_cell_angle_beta   90.00000000
_cell_angle_gamma   90.00000000
_symmetry_Int_Tables_number   1
_chemical_formula_structural   Nd2Ga2Ni
_chemical_formula_sum   'Nd4 Ga4 Ni2'
_cell_volume   229.95042750
_cell_formula_units_Z   2
loop_
 _symmetry_equiv_pos_site_id
 _symmetry_equiv_pos_as_xyz
  1  'x, y, z'
loop_
 _atom_site_type_symbol
 _atom_site_label
 _atom_site_symmetry_multiplicity
 _atom_site_fract_x
 _atom_site_fract_y
 _atom_site_fract_z
 _atom_site_occupancy
  Nd  Nd0  1  0.50000002  0.67935800  0.17935800  1
  Nd  Nd1  1  0.50000002  0.32064200  0.82064201  1
  Nd  Nd2  1  0.50000002  0.17935800  0.32064200  1
  Nd  Nd3  1  0.50000002  0.82064201  0.67935800  1
  Ga  Ga4  1  0.00000000  0.00000000  0.00000000  1
  Ga  Ga5  1  0.00000000  0.50000000  0.50000000  1
  Ga  Ga6  1  0.00000000  0.11620100  0.61620100  1
  Ni  Ni7  1  -0.00000000  0.88379901  0.38379900  1
  Ga  Ga8  1  -0.00000000  0.61620100  0.88379901  1
  Ni  Ni9  1  -0.00000000  0.38379900  0.11620100  1
