# generated using pymatgen
data_Nd2Ti2Ni2O7
_symmetry_space_group_name_H-M   'P 1'
_cell_length_a   3.89381695
_cell_length_b   3.95845795
_cell_length_c   11.89947033
_cell_angle_alpha   90.00000000
_cell_angle_beta   90.00000000
_cell_angle_gamma   90.00000000
_symmetry_Int_Tables_number   1
_chemical_formula_structural   Nd2Ti2Ni2O7
_chemical_formula_sum   'Nd2 Ti2 Ni2 O7'
_cell_volume   183.41261254
_cell_formula_units_Z   1
loop_
 _symmetry_equiv_pos_site_id
 _symmetry_equiv_pos_as_xyz
  1  'x, y, z'
loop_
 _atom_site_type_symbol
 _atom_site_label
 _atom_site_symmetry_multiplicity
 _atom_site_fract_x
 _atom_site_fract_y
 _atom_site_fract_z
 _atom_site_occupancy
  Nd  Nd0  1  0.50000001  0.50000001  0.82080198  1
  Nd  Nd1  1  0.50000001  0.50000001  0.17919800  1
  Ti  Ti2  1  0.50000001  0.50000001  0.49999999  1
  Ti  Ti3  1  0.00000000  0.00000000  0.65280098  1
  Ni  Ni4  1  0.00000000  0.00000000  0.34719899  1
  Ni  Ni5  1  0.00000000  0.00000000  0.00000000  1
  O  O6  1  0.00000000  0.00000000  0.84207798  1
  O  O7  1  0.00000000  0.00000000  0.15792200  1
  O  O8  1  0.00000000  0.50000001  0.62889198  1
  O  O9  1  0.00000000  0.50000001  0.37110799  1
  O  O10  1  0.50000001  0.00000000  0.62768998  1
  O  O11  1  0.50000001  0.00000000  0.37230999  1
  O  O12  1  0.00000000  0.50000001  -0.00000000  1
