# generated using pymatgen
data_Ce4SbTe6Se2O
_symmetry_space_group_name_H-M   'P 1'
_cell_length_a   7.23128939
_cell_length_b   7.23128939
_cell_length_c   7.23128939
_cell_angle_alpha   109.69332886
_cell_angle_beta   109.36028290
_cell_angle_gamma   109.36028290
_symmetry_Int_Tables_number   1
_chemical_formula_structural   Ce4SbTe6Se2O
_chemical_formula_sum   'Ce4 Sb1 Te6 Se2 O1'
_cell_volume   291.08539478
_cell_formula_units_Z   1
loop_
 _symmetry_equiv_pos_site_id
 _symmetry_equiv_pos_as_xyz
  1  'x, y, z'
loop_
 _atom_site_type_symbol
 _atom_site_label
 _atom_site_symmetry_multiplicity
 _atom_site_fract_x
 _atom_site_fract_y
 _atom_site_fract_z
 _atom_site_occupancy
  Ce  Ce0  1  0.50000005  0.75000003  0.25000006  1
  Ce  Ce1  1  0.00000003  0.50000002  0.50000003  1
  Ce  Ce2  1  0.87742102  0.25242101  0.87500003  1
  Ce  Ce3  1  0.37742101  0.12500000  0.00242102  1
  Sb  Sb4  1  0.12257906  0.99757904  0.37500007  1
  Te  Te5  1  0.62257904  0.62500002  0.74757905  1
  Te  Te6  1  0.10528205  0.73474803  0.98521405  1
  Te  Te7  1  0.74953400  0.01478500  0.12006801  1
  Se  Se8  1  0.39471806  0.87946703  0.62993306  1
  Te  Te9  1  0.75046603  0.51525102  0.12053405  1
  Te  Te10  1  0.60528201  0.23521401  0.48474802  1
  Se  Se11  1  0.24953402  0.37006801  0.76478502  1
  Te  Te12  1  0.89471806  0.87993303  0.62946707  1
  O  O13  1  0.25046602  0.37053401  0.26525103  1
