# generated using pymatgen
data_LiTiNi4
_symmetry_space_group_name_H-M   'P 1'
_cell_length_a   6.07674980
_cell_length_b   6.07675028
_cell_length_c   7.09244919
_cell_angle_alpha   90.00000000
_cell_angle_beta   90.00000000
_cell_angle_gamma   120.00000000
_symmetry_Int_Tables_number   1
_chemical_formula_structural   LiTiNi4
_chemical_formula_sum   'Li3 Ti3 Ni12'
_cell_volume   226.81387056
_cell_formula_units_Z   3
loop_
 _symmetry_equiv_pos_site_id
 _symmetry_equiv_pos_as_xyz
  1  'x, y, z'
loop_
 _atom_site_type_symbol
 _atom_site_label
 _atom_site_symmetry_multiplicity
 _atom_site_fract_x
 _atom_site_fract_y
 _atom_site_fract_z
 _atom_site_occupancy
  Li  Li0  1  0.00000000  0.00000000  0.60832998  1
  Li  Li1  1  0.00000000  0.00000000  0.17902600  1
  Li  Li2  1  0.33333335  0.66666665  0.38200899  1
  Ti  Ti3  1  0.66666669  0.33333333  0.62820098  1
  Ti  Ti4  1  0.66666669  0.33333333  0.13499100  1
  Ti  Ti5  1  0.33333335  0.66666665  0.88228398  1
  Ni  Ni6  1  0.91177404  0.60607099  0.88135898  1
  Ni  Ni7  1  0.89101504  0.61521999  0.38204299  1
  Ni  Ni8  1  0.69429702  0.08822600  0.88135898  1
  Ni  Ni9  1  0.72420502  0.10898500  0.38204299  1
  Ni  Ni10  1  0.39392902  0.30570299  0.88135898  1
  Ni  Ni11  1  0.38478002  0.27579499  0.38204299  1
  Ni  Ni12  1  0.60125103  0.67491299  0.64629398  1
  Ni  Ni13  1  0.60240203  0.67561299  0.11735700  1
  Ni  Ni14  1  0.32508602  0.92633698  0.64629398  1
  Ni  Ni15  1  0.32438702  0.92678898  0.11735700  1
  Ni  Ni16  1  0.07366201  0.39874799  0.64629398  1
  Ni  Ni17  1  0.07321101  0.39759799  0.11735700  1
