# generated using pymatgen
data_LaCe8Sn3
_symmetry_space_group_name_H-M   'P 1'
_cell_length_a   6.96795893
_cell_length_b   6.96795893
_cell_length_c   9.32863903
_cell_angle_alpha   90.00000000
_cell_angle_beta   90.00000000
_cell_angle_gamma   90.00000000
_symmetry_Int_Tables_number   1
_chemical_formula_structural   LaCe8Sn3
_chemical_formula_sum   'La1 Ce8 Sn3'
_cell_volume   452.92829512
_cell_formula_units_Z   1
loop_
 _symmetry_equiv_pos_site_id
 _symmetry_equiv_pos_as_xyz
  1  'x, y, z'
loop_
 _atom_site_type_symbol
 _atom_site_label
 _atom_site_symmetry_multiplicity
 _atom_site_fract_x
 _atom_site_fract_y
 _atom_site_fract_z
 _atom_site_occupancy
  La  La0  1  0.50000001  0.50000001  -0.00000000  1
  Ce  Ce1  1  0.00000000  0.00000000  0.00000000  1
  Ce  Ce2  1  0.50000001  0.50000001  0.50000000  1
  Ce  Ce3  1  0.00000000  0.00000000  0.50000000  1
  Ce  Ce4  1  0.35620100  0.85620101  0.29501300  1
  Ce  Ce5  1  0.14379900  0.35620100  0.29501300  1
  Ce  Ce6  1  0.85620101  0.64379901  0.29501300  1
  Ce  Ce7  1  0.35620100  0.14379900  0.70498700  1
  Sn  Sn8  1  0.64379901  0.85620101  0.70498700  1
  Ce  Ce9  1  0.64379901  0.14379900  0.29501300  1
  Sn  Sn10  1  0.85620101  0.35620100  0.70498700  1
  Sn  Sn11  1  0.14379900  0.64379901  0.70498700  1
