# generated using pymatgen
data_Li5GaO4
_symmetry_space_group_name_H-M   'P 1'
_cell_length_a   4.77667809
_cell_length_b   5.36503124
_cell_length_c   4.77686834
_cell_angle_alpha   84.35449982
_cell_angle_beta   77.23339081
_cell_angle_gamma   63.56592560
_symmetry_Int_Tables_number   1
_chemical_formula_structural   Li5GaO4
_chemical_formula_sum   'Li5 Ga1 O4'
_cell_volume   106.90795764
_cell_formula_units_Z   1
loop_
 _symmetry_equiv_pos_site_id
 _symmetry_equiv_pos_as_xyz
  1  'x, y, z'
loop_
 _atom_site_type_symbol
 _atom_site_label
 _atom_site_symmetry_multiplicity
 _atom_site_fract_x
 _atom_site_fract_y
 _atom_site_fract_z
 _atom_site_occupancy
  Li  Li0  1  0.79039798  0.41920400  0.49999999  1
  Li  Li1  1  0.28432699  0.43134600  0.00000001  1
  Li  Li2  1  0.71567298  0.56865399  0.00000000  1
  Li  Li3  1  0.20960198  0.58079599  0.50000001  1
  Li  Li4  1  0.00000000  0.00000000  0.00000000  1
  Ga  Ga5  1  0.49999997  0.99999999  0.50000002  1
  O  O6  1  0.10725499  0.29424900  0.74980000  1
  O  O7  1  0.59849599  0.29424900  0.25019999  1
  O  O8  1  0.40150398  0.70575099  0.74980000  1
  O  O9  1  0.89274497  0.70575099  0.25020000  1
