# generated using pymatgen
data_CeAlC3
_symmetry_space_group_name_H-M   'P 1'
_cell_length_a   5.67649221
_cell_length_b   5.75652933
_cell_length_c   5.67649221
_cell_angle_alpha   119.54112244
_cell_angle_beta   90.00000000
_cell_angle_gamma   119.54112244
_symmetry_Int_Tables_number   1
_chemical_formula_structural   CeAlC3
_chemical_formula_sum   'Ce2 Al2 C6'
_cell_volume   132.95996063
_cell_formula_units_Z   2
loop_
 _symmetry_equiv_pos_site_id
 _symmetry_equiv_pos_as_xyz
  1  'x, y, z'
loop_
 _atom_site_type_symbol
 _atom_site_label
 _atom_site_symmetry_multiplicity
 _atom_site_fract_x
 _atom_site_fract_y
 _atom_site_fract_z
 _atom_site_occupancy
  Ce  Ce0  1  0.24999999  0.50000002  0.74999997  1
  Ce  Ce1  1  0.74999997  0.50000002  0.24999999  1
  Al  Al2  1  0.49999998  0.00000000  0.49999998  1
  Al  Al3  1  0.00000000  0.00000000  0.00000000  1
  C  C4  1  0.24999999  0.50000002  0.24999999  1
  C  C5  1  0.74999997  0.50000002  0.74999997  1
  C  C6  1  0.20542799  0.00000100  0.29457299  1
  C  C7  1  0.70542797  0.00000000  0.20542799  1
  C  C8  1  0.79457197  0.99999904  0.70542697  1
  C  C9  1  0.29457199  0.00000000  0.79457197  1
