# generated using pymatgen
data_NaInPd4
_symmetry_space_group_name_H-M   'P 1'
_cell_length_a   5.64413214
_cell_length_b   5.64413214
_cell_length_c   5.64413214
_cell_angle_alpha   60.00000000
_cell_angle_beta   60.00000000
_cell_angle_gamma   60.00000000
_symmetry_Int_Tables_number   1
_chemical_formula_structural   NaInPd4
_chemical_formula_sum   'Na1 In1 Pd4'
_cell_volume   127.13833516
_cell_formula_units_Z   1
loop_
 _symmetry_equiv_pos_site_id
 _symmetry_equiv_pos_as_xyz
  1  'x, y, z'
loop_
 _atom_site_type_symbol
 _atom_site_label
 _atom_site_symmetry_multiplicity
 _atom_site_fract_x
 _atom_site_fract_y
 _atom_site_fract_z
 _atom_site_occupancy
  Na  Na0  1  0.74999998  0.74999998  0.74999998  1
  In  In1  1  0.00000000  0.00000000  0.00000000  1
  Pd  Pd2  1  0.37522999  0.87431198  0.37522899  1
  Pd  Pd3  1  0.37522999  0.37522899  0.37522899  1
  Pd  Pd4  1  0.37522999  0.37522899  0.87431198  1
  Pd  Pd5  1  0.87431298  0.37522899  0.37522899  1
