# generated using pymatgen
data_LaCeSi4
_symmetry_space_group_name_H-M   'P 1'
_cell_length_a   4.17099190
_cell_length_b   4.17099285
_cell_length_c   9.37557030
_cell_angle_alpha   90.00000000
_cell_angle_beta   90.00000000
_cell_angle_gamma   119.99999237
_symmetry_Int_Tables_number   1
_chemical_formula_structural   LaCeSi4
_chemical_formula_sum   'La1 Ce1 Si4'
_cell_volume   141.25608042
_cell_formula_units_Z   1
loop_
 _symmetry_equiv_pos_site_id
 _symmetry_equiv_pos_as_xyz
  1  'x, y, z'
loop_
 _atom_site_type_symbol
 _atom_site_label
 _atom_site_symmetry_multiplicity
 _atom_site_fract_x
 _atom_site_fract_y
 _atom_site_fract_z
 _atom_site_occupancy
  Ce  Ce0  1  0.00000000  0.00000000  0.00000000  1
  La  La1  1  0.00000000  0.00000000  0.49999998  1
  Si  Si2  1  0.33333333  0.66666666  0.74999998  1
  Si  Si3  1  0.66666668  0.33333333  0.24999999  1
  Si  Si4  1  0.66666668  0.33333333  0.74999998  1
  Si  Si5  1  0.33333333  0.66666666  0.24999999  1
