# generated using pymatgen
data_Ca4HfSn(RuO6)2
_symmetry_space_group_name_H-M   'P 1'
_cell_length_a   5.62648439
_cell_length_b   5.70176554
_cell_length_c   8.02529335
_cell_angle_alpha   90.00988770
_cell_angle_beta   89.95075989
_cell_angle_gamma   89.96312714
_symmetry_Int_Tables_number   1
_chemical_formula_structural   Ca4HfSn(RuO6)2
_chemical_formula_sum   'Ca4 Hf1 Sn1 Ru2 O12'
_cell_volume   257.45843957
_cell_formula_units_Z   1
loop_
 _symmetry_equiv_pos_site_id
 _symmetry_equiv_pos_as_xyz
  1  'x, y, z'
loop_
 _atom_site_type_symbol
 _atom_site_label
 _atom_site_symmetry_multiplicity
 _atom_site_fract_x
 _atom_site_fract_y
 _atom_site_fract_z
 _atom_site_occupancy
  Ca  Ca0  1  0.50930398  0.54715698  0.24849699  1
  Ca  Ca1  1  0.49069398  0.45286498  0.75151698  1
  Ca  Ca2  1  0.99058499  0.04727000  0.25157600  1
  Ca  Ca3  1  0.00941197  0.95267196  0.74843698  1
  Hf  Hf4  1  0.00001799  0.49999098  0.49989399  1
  Sn  Sn5  1  0.49999400  0.00000900  0.99999898  1
  Ru  Ru6  1  0.49998997  0.99999696  0.50001899  1
  Ru  Ru7  1  -0.00000001  0.50001498  0.99996998  1
  O  O8  1  0.59319599  0.02713500  0.73964899  1
  O  O9  1  0.09315299  0.47282898  0.23963499  1
  O  O10  1  0.40678497  0.97286396  0.26037999  1
  O  O11  1  0.90687498  0.52717098  0.76033698  1
  O  O12  1  0.28487598  0.69260397  0.95320398  1
  O  O13  1  0.21522699  0.19244099  0.54672499  1
  O  O14  1  0.71513498  0.30741199  0.04685100  1
  O  O15  1  0.78477697  0.80755997  0.45326899  1
  O  O16  1  0.68975499  0.27779499  0.44794599  1
  O  O17  1  0.18957599  0.22234799  0.94800098  1
  O  O18  1  0.81040897  0.77766197  0.05205500  1
  O  O19  1  0.31023998  0.72220297  0.55203999  1
