# generated using pymatgen
data_Li2Cu3
_symmetry_space_group_name_H-M   'P 1'
_cell_length_a   4.21543217
_cell_length_b   4.21543074
_cell_length_c   6.50728416
_cell_angle_alpha   90.00000000
_cell_angle_beta   90.00000000
_cell_angle_gamma   120.00000763
_symmetry_Int_Tables_number   1
_chemical_formula_structural   Li2Cu3
_chemical_formula_sum   'Li2 Cu3'
_cell_volume   100.14157868
_cell_formula_units_Z   1
loop_
 _symmetry_equiv_pos_site_id
 _symmetry_equiv_pos_as_xyz
  1  'x, y, z'
loop_
 _atom_site_type_symbol
 _atom_site_label
 _atom_site_symmetry_multiplicity
 _atom_site_fract_x
 _atom_site_fract_y
 _atom_site_fract_z
 _atom_site_occupancy
  Li  Li0  1  0.00000000  0.00000000  0.00000000  1
  Li  Li1  1  0.33333331  0.66666670  0.64495798  1
  Cu  Cu2  1  0.66666664  0.33333335  0.35504199  1
  Cu  Cu3  1  0.33333331  0.66666670  0.25846599  1
  Cu  Cu4  1  0.66666664  0.33333335  0.74153398  1
