# generated using pymatgen
data_Cs2NaTiAsH2(IO)3
_symmetry_space_group_name_H-M   'P 1'
_cell_length_a   7.28689098
_cell_length_b   7.28689098
_cell_length_c   7.28689098
_cell_angle_alpha   60.00000000
_cell_angle_beta   60.00000000
_cell_angle_gamma   60.00000000
_symmetry_Int_Tables_number   1
_chemical_formula_structural   Cs2NaTiAsH2(IO)3
_chemical_formula_sum   'Cs2 Na1 Ti1 As1 H2 I3 O3'
_cell_volume   273.59730738
_cell_formula_units_Z   1
loop_
 _symmetry_equiv_pos_site_id
 _symmetry_equiv_pos_as_xyz
  1  'x, y, z'
loop_
 _atom_site_type_symbol
 _atom_site_label
 _atom_site_symmetry_multiplicity
 _atom_site_fract_x
 _atom_site_fract_y
 _atom_site_fract_z
 _atom_site_occupancy
  Cs  Cs0  1  0.02323900  0.47676100  0.47676100  1
  Na  Na1  1  0.47676100  0.02323900  0.02323900  1
  Ti  Ti2  1  0.02323900  0.02323900  0.47676100  1
  Cs  Cs3  1  0.47676100  0.47676100  0.02323900  1
  As  As4  1  0.02323900  0.47676100  0.02323900  1
  I  I5  1  0.47676100  0.02323900  0.47676100  1
  I  I6  1  0.50000000  0.50000000  0.50000000  1
  I  I7  1  0.61515300  0.61515300  0.61515300  1
  O  O8  1  0.61515300  0.61515300  0.15454100  1
  H  H9  1  0.15454100  0.61515300  0.61515300  1
  O  O10  1  0.61515300  0.15454100  0.61515300  1
  H  H11  1  0.25000000  0.25000000  0.25000000  1
  O  O12  1  0.00000000  0.00000000  0.00000000  1
