# generated using pymatgen
data_K5Tl3Br8
_symmetry_space_group_name_H-M   'P 1'
_cell_length_a   7.53073406
_cell_length_b   9.23163128
_cell_length_c   10.60139942
_cell_angle_alpha   90.00000000
_cell_angle_beta   90.00000000
_cell_angle_gamma   114.07151794
_symmetry_Int_Tables_number   1
_chemical_formula_structural   K5Tl3Br8
_chemical_formula_sum   'K5 Tl3 Br8'
_cell_volume   672.92607782
_cell_formula_units_Z   1
loop_
 _symmetry_equiv_pos_site_id
 _symmetry_equiv_pos_as_xyz
  1  'x, y, z'
loop_
 _atom_site_type_symbol
 _atom_site_label
 _atom_site_symmetry_multiplicity
 _atom_site_fract_x
 _atom_site_fract_y
 _atom_site_fract_z
 _atom_site_occupancy
  K  K0  1  0.76934196  0.53868398  0.74999997  1
  K  K1  1  0.23065797  0.46131598  0.24999999  1
  K  K2  1  0.38931995  0.77863997  0.95093696  1
  K  K3  1  0.61067998  0.22135999  0.04906300  1
  K  K4  1  0.61067998  0.22135999  0.45093698  1
  Tl  Tl5  1  0.38931995  0.77863997  0.54906298  1
  Tl  Tl6  1  0.00000000  0.00000000  0.00000000  1
  Tl  Tl7  1  0.00000000  0.00000000  0.49999998  1
  Br  Br8  1  0.82986399  0.08118700  0.74999997  1
  Br  Br9  1  0.17013594  0.91881296  0.24999999  1
  Br  Br10  1  0.25132299  0.08118700  0.74999997  1
  Br  Br11  1  0.74867694  0.91881296  0.24999999  1
  Br  Br12  1  0.17214598  0.34429198  0.89691296  1
  Br  Br13  1  0.82785395  0.65570797  0.10308700  1
  Br  Br14  1  0.82785395  0.65570797  0.39691298  1
  Br  Br15  1  0.17214598  0.34429198  0.60308698  1
