# generated using pymatgen
data_TbDy2Al3Fe2CoNi11
_symmetry_space_group_name_H-M   'P 1'
_cell_length_a   4.10551405
_cell_length_b   6.53036308
_cell_length_c   11.54636192
_cell_angle_alpha   90.00000000
_cell_angle_beta   90.00000000
_cell_angle_gamma   108.32099915
_symmetry_Int_Tables_number   1
_chemical_formula_structural   TbDy2Al3Fe2CoNi11
_chemical_formula_sum   'Tb1 Dy2 Al3 Fe2 Co1 Ni11'
_cell_volume   293.87202538
_cell_formula_units_Z   1
loop_
 _symmetry_equiv_pos_site_id
 _symmetry_equiv_pos_as_xyz
  1  'x, y, z'
loop_
 _atom_site_type_symbol
 _atom_site_label
 _atom_site_symmetry_multiplicity
 _atom_site_fract_x
 _atom_site_fract_y
 _atom_site_fract_z
 _atom_site_occupancy
  Fe  Fe0  1  0.83153498  0.66306998  0.47363300  1
  Dy  Dy1  1  0.16846499  0.33692999  0.52636700  1
  Dy  Dy2  1  0.83153498  0.66306998  0.02636700  1
  Tb  Tb3  1  0.16846499  0.33692999  0.97363301  1
  Al  Al4  1  0.49999999  0.00000000  0.50000000  1
  Al  Al5  1  0.49999999  0.00000000  0.00000000  1
  Fe  Fe6  1  0.65916099  0.31832099  0.37745200  1
  Al  Al7  1  0.34083898  0.68167898  0.62254800  1
  Ni  Ni8  1  0.65916099  0.31832099  0.12254800  1
  Ni  Ni9  1  0.34083898  0.68167898  0.87745201  1
  Ni  Ni10  1  0.01991400  0.03982800  0.38044500  1
  Ni  Ni11  1  0.98008597  0.96017197  0.61955500  1
  Ni  Ni12  1  0.01991400  0.03982800  0.11955500  1
  Ni  Ni13  1  0.98008597  0.96017197  0.88044501  1
  Co  Co14  1  0.83889298  0.67778698  0.25000000  1
  Ni  Ni15  1  0.16110699  0.32221299  0.75000000  1
  Ni  Ni16  1  0.20768399  0.41536799  0.25000000  1
  Ni  Ni17  1  0.79231598  0.58463198  0.75000000  1
  Ni  Ni18  1  0.46785097  0.93570198  0.25000000  1
  Ni  Ni19  1  0.53214899  0.06429800  0.75000000  1
