# generated using pymatgen
data_BaNdGe4
_symmetry_space_group_name_H-M   'P 1'
_cell_length_a   4.82550812
_cell_length_b   6.09502888
_cell_length_c   6.09502888
_cell_angle_alpha   75.98934937
_cell_angle_beta   66.68062592
_cell_angle_gamma   66.68062592
_symmetry_Int_Tables_number   1
_chemical_formula_structural   BaNdGe4
_chemical_formula_sum   'Ba1 Nd1 Ge4'
_cell_volume   150.39631796
_cell_formula_units_Z   1
loop_
 _symmetry_equiv_pos_site_id
 _symmetry_equiv_pos_as_xyz
  1  'x, y, z'
loop_
 _atom_site_type_symbol
 _atom_site_label
 _atom_site_symmetry_multiplicity
 _atom_site_fract_x
 _atom_site_fract_y
 _atom_site_fract_z
 _atom_site_occupancy
  Ba  Ba0  1  0.54361198  0.20638801  0.70638803  1
  Nd  Nd1  1  0.45638795  0.79361202  0.29361206  1
  Ge  Ge2  1  0.16336795  0.78510302  0.88816108  1
  Ge  Ge3  1  0.83663197  0.21489701  0.11183901  1
  Ge  Ge4  1  0.83663195  0.61183902  0.71489705  1
  Ge  Ge5  1  0.16336798  0.38816101  0.28510304  1
