# generated using pymatgen
data_Ba2NdGe2
_symmetry_space_group_name_H-M   'P 1'
_cell_length_a   8.03723240
_cell_length_b   8.03723240
_cell_length_c   8.03723240
_cell_angle_alpha   71.94258118
_cell_angle_beta   71.94258118
_cell_angle_gamma   71.94258118
_symmetry_Int_Tables_number   1
_chemical_formula_structural   Ba2NdGe2
_chemical_formula_sum   'Ba6 Nd3 Ge6'
_cell_volume   455.97080719
_cell_formula_units_Z   3
loop_
 _symmetry_equiv_pos_site_id
 _symmetry_equiv_pos_as_xyz
  1  'x, y, z'
loop_
 _atom_site_type_symbol
 _atom_site_label
 _atom_site_symmetry_multiplicity
 _atom_site_fract_x
 _atom_site_fract_y
 _atom_site_fract_z
 _atom_site_occupancy
  Ba  Ba0  1  0.00000000  0.00000000  0.00000000  1
  Ba  Ba1  1  0.20338799  0.20338800  0.20338803  1
  Ba  Ba2  1  0.79661197  0.79661200  0.79661212  1
  Ba  Ba3  1  0.38808898  0.67398000  0.15672407  1
  Ba  Ba4  1  0.67397999  0.15672400  0.38808906  1
  Ba  Ba5  1  0.15672399  0.38808900  0.67398005  1
  Nd  Nd6  1  0.61191099  0.32602000  0.84327608  1
  Nd  Nd7  1  0.32601998  0.84327600  0.61191109  1
  Nd  Nd8  1  0.84327598  0.61191100  0.32602010  1
  Ge  Ge9  1  0.03974398  0.85291000  0.41235707  1
  Ge  Ge10  1  0.85290998  0.41235700  0.03974408  1
  Ge  Ge11  1  0.41235700  0.03974400  0.85291005  1
  Ge  Ge12  1  0.96025599  0.14709000  0.58764308  1
  Ge  Ge13  1  0.14708998  0.58764300  0.96025607  1
  Ge  Ge14  1  0.58764297  0.96025600  0.14709010  1
