# generated using pymatgen
data_Nd6ThZrNi2O7
_symmetry_space_group_name_H-M   'P 1'
_cell_length_a   3.31832194
_cell_length_b   10.35573959
_cell_length_c   10.35573959
_cell_angle_alpha   120.00000000
_cell_angle_beta   90.00000000
_cell_angle_gamma   90.00000000
_symmetry_Int_Tables_number   1
_chemical_formula_structural   Nd6ThZrNi2O7
_chemical_formula_sum   'Nd6 Th1 Zr1 Ni2 O7'
_cell_volume   308.18492614
_cell_formula_units_Z   1
loop_
 _symmetry_equiv_pos_site_id
 _symmetry_equiv_pos_as_xyz
  1  'x, y, z'
loop_
 _atom_site_type_symbol
 _atom_site_label
 _atom_site_symmetry_multiplicity
 _atom_site_fract_x
 _atom_site_fract_y
 _atom_site_fract_z
 _atom_site_occupancy
  Th  Th0  1  0.50000001  0.53703501  0.79912094  1
  Nd  Nd1  1  -0.00000000  0.45849201  0.99999994  1
  Nd  Nd2  1  0.50000001  0.20087900  0.73791396  1
  Nd  Nd3  1  0.50000001  0.79912101  0.53703494  1
  Zr  Zr4  1  0.50000001  0.46296501  0.26208597  1
  Nd  Nd5  1  0.50000001  0.73791401  0.20087895  1
  Nd  Nd6  1  1.00000002  0.54150801  0.54150795  1
  Nd  Nd7  1  0.50000001  0.26208600  0.46296497  1
  Ni  Ni8  1  -0.00000000  1.00000001  0.45849193  1
  Ni  Ni9  1  -0.00000000  0.66666668  0.33333329  1
  O  O10  1  1.00000002  0.33333334  0.66666662  1
  O  O11  1  1.00000002  0.29425900  0.29425897  1
  O  O12  1  0.50000001  0.72517401  0.72517394  1
  O  O13  1  0.50000001  0.27482600  0.99999995  1
  O  O14  1  0.50000001  1.00000001  0.27482594  1
  O  O15  1  -0.00000000  1.00000001  0.70574092  1
  O  O16  1  1.00000002  0.70574101  -0.00000004  1
