# generated using pymatgen
data_Li4HfTi(WO6)2
_symmetry_space_group_name_H-M   'P 1'
_cell_length_a   5.50964212
_cell_length_b   5.72160912
_cell_length_c   7.64119339
_cell_angle_alpha   90.00000000
_cell_angle_beta   89.74732971
_cell_angle_gamma   90.00000000
_symmetry_Int_Tables_number   1
_chemical_formula_structural   Li4HfTi(WO6)2
_chemical_formula_sum   'Li4 Hf1 Ti1 W2 O12'
_cell_volume   240.87878030
_cell_formula_units_Z   1
loop_
 _symmetry_equiv_pos_site_id
 _symmetry_equiv_pos_as_xyz
  1  'x, y, z'
loop_
 _atom_site_type_symbol
 _atom_site_label
 _atom_site_symmetry_multiplicity
 _atom_site_fract_x
 _atom_site_fract_y
 _atom_site_fract_z
 _atom_site_occupancy
  Li  Li0  1  0.01329700  0.05734700  0.25276700  1
  Li  Li1  1  0.48670299  0.55734699  0.24723300  1
  Li  Li2  1  0.98670298  0.94265298  0.74723299  1
  Li  Li3  1  0.51329699  0.44265299  0.75276699  1
  Hf  Hf4  1  0.49999999  0.00000000  -0.00000000  1
  Ti  Ti5  1  0.00000000  0.49999999  0.49999999  1
  W  W6  1  0.49999999  0.00000000  0.49999999  1
  W  W7  1  0.00000000  0.49999999  0.99999999  1
  O  O8  1  0.31492999  0.28144899  0.44618499  1
  O  O9  1  0.18507000  0.78144898  0.05381500  1
  O  O10  1  0.68506998  0.71855099  0.55381499  1
  O  O11  1  0.81492998  0.21855100  0.94618499  1
  O  O12  1  0.78694098  0.18900200  0.54621099  1
  O  O13  1  0.71305898  0.68900199  0.95378899  1
  O  O14  1  0.21305900  0.81099798  0.45378899  1
  O  O15  1  0.28694099  0.31099799  0.04621100  1
  O  O16  1  0.90448798  0.46738299  0.24600500  1
  O  O17  1  0.59551199  0.96738298  0.25399500  1
  O  O18  1  0.40448799  0.03261700  0.74600499  1
  O  O19  1  0.09551200  0.53261699  0.75399499  1
