# generated using pymatgen
data_Al2Si
_symmetry_space_group_name_H-M   'P 1'
_cell_length_a   3.33115005
_cell_length_b   4.87215281
_cell_length_c   7.03901529
_cell_angle_alpha   79.30066681
_cell_angle_beta   76.31283569
_cell_angle_gamma   70.01000214
_symmetry_Int_Tables_number   1
_chemical_formula_structural   Al2Si
_chemical_formula_sum   'Al4 Si2'
_cell_volume   103.62179145
_cell_formula_units_Z   2
loop_
 _symmetry_equiv_pos_site_id
 _symmetry_equiv_pos_as_xyz
  1  'x, y, z'
loop_
 _atom_site_type_symbol
 _atom_site_label
 _atom_site_symmetry_multiplicity
 _atom_site_fract_x
 _atom_site_fract_y
 _atom_site_fract_z
 _atom_site_occupancy
  Al  Al0  1  0.65335298  0.39476701  0.29852698  1
  Al  Al1  1  0.34664697  0.60523302  0.70147298  1
  Si  Si2  1  0.35368699  0.26016701  0.03245899  1
  Al  Al3  1  0.64631297  0.73983302  0.96754097  1
  Al  Al4  1  0.09753399  0.19864001  0.60629199  1
  Si  Si5  1  0.90246596  0.80136003  0.39370796  1
