# generated using pymatgen
data_LiCaYO4
_symmetry_space_group_name_H-M   'P 1'
_cell_length_a   3.91044211
_cell_length_b   3.91044211
_cell_length_c   6.89279366
_cell_angle_alpha   106.47886658
_cell_angle_beta   106.47886658
_cell_angle_gamma   90.00000000
_symmetry_Int_Tables_number   1
_chemical_formula_structural   LiCaYO4
_chemical_formula_sum   'Li1 Ca1 Y1 O4'
_cell_volume   96.54874773
_cell_formula_units_Z   1
loop_
 _symmetry_equiv_pos_site_id
 _symmetry_equiv_pos_as_xyz
  1  'x, y, z'
loop_
 _atom_site_type_symbol
 _atom_site_label
 _atom_site_symmetry_multiplicity
 _atom_site_fract_x
 _atom_site_fract_y
 _atom_site_fract_z
 _atom_site_occupancy
  Li  Li0  1  0.64614802  0.64614799  0.29229605  1
  Ca  Ca1  1  0.35794601  0.35794600  0.71589204  1
  Y  Y2  1  0.00278100  0.00278100  0.00556200  1
  O  O3  1  0.99152301  0.49152300  0.98304607  1
  O  O4  1  0.49152303  0.99152299  0.98304608  1
  O  O5  1  0.83434502  0.83434499  0.66869008  1
  O  O6  1  0.17573400  0.17573400  0.35146802  1
