# generated using pymatgen
data_K3NaB4CO11
_symmetry_space_group_name_H-M   'P 1'
_cell_length_a   5.89329815
_cell_length_b   7.35315323
_cell_length_c   9.40290451
_cell_angle_alpha   106.17612457
_cell_angle_beta   90.00000000
_cell_angle_gamma   90.00000000
_symmetry_Int_Tables_number   1
_chemical_formula_structural   K3NaB4CO11
_chemical_formula_sum   'K3 Na1 B4 C1 O11'
_cell_volume   391.33677774
_cell_formula_units_Z   1
loop_
 _symmetry_equiv_pos_site_id
 _symmetry_equiv_pos_as_xyz
  1  'x, y, z'
loop_
 _atom_site_type_symbol
 _atom_site_label
 _atom_site_symmetry_multiplicity
 _atom_site_fract_x
 _atom_site_fract_y
 _atom_site_fract_z
 _atom_site_occupancy
  K  K0  1  0.74617298  0.74014397  0.72311698  1
  K  K1  1  0.24617299  0.25985599  0.77688298  1
  K  K2  1  0.75382698  0.74014397  0.22311698  1
  Na  Na3  1  0.25382699  0.25985599  0.27688299  1
  B  B4  1  0.74748798  0.24208499  0.50411599  1
  B  B5  1  0.24748799  0.75791497  0.99588397  1
  B  B6  1  0.75251198  0.24208499  0.00411600  1
  B  B7  1  0.25251199  0.75791497  0.49588398  1
  C  C8  1  0.98194198  0.26005899  0.52394399  1
  O  O9  1  0.60119198  0.35630299  0.60922198  1
  O  O10  1  0.34312099  0.88143797  0.62478097  1
  O  O11  1  0.84312098  0.11856200  0.87521898  1
  O  O12  1  0.10119200  0.64369698  0.89077797  1
  O  O13  1  0.48194199  0.73994097  0.97605597  1
  O  O14  1  0.51805799  0.26005899  0.02394400  1
  O  O15  1  0.89880798  0.35630299  0.10922199  1
  O  O16  1  0.15687900  0.88143797  0.12478098  1
  O  O17  1  0.65687898  0.11856200  0.37521899  1
  O  O18  1  0.39880799  0.64369698  0.39077798  1
  O  O19  1  0.01805800  0.73994097  0.47605598  1
