# generated using pymatgen
data_Sr2Ca3P3OsC11
_symmetry_space_group_name_H-M   'P 1'
_cell_length_a   4.50941420
_cell_length_b   5.54781723
_cell_length_c   12.21406746
_cell_angle_alpha   90.00000000
_cell_angle_beta   90.00000000
_cell_angle_gamma   90.00000000
_symmetry_Int_Tables_number   1
_chemical_formula_structural   Sr2Ca3P3OsC11
_chemical_formula_sum   'Sr2 Ca3 P3 Os1 C11'
_cell_volume   305.56428179
_cell_formula_units_Z   1
loop_
 _symmetry_equiv_pos_site_id
 _symmetry_equiv_pos_as_xyz
  1  'x, y, z'
loop_
 _atom_site_type_symbol
 _atom_site_label
 _atom_site_symmetry_multiplicity
 _atom_site_fract_x
 _atom_site_fract_y
 _atom_site_fract_z
 _atom_site_occupancy
  Ca  Ca0  1  0.28159999  0.31626099  0.35929199  1
  Sr  Sr1  1  0.21839999  0.68373897  0.85929197  1
  Ca  Ca2  1  0.71839997  0.81626097  0.14070799  1
  Sr  Sr3  1  0.78159997  0.18373899  0.64070798  1
  Ca  Ca4  1  0.15531299  0.30231499  0.06979800  1
  P  P5  1  0.34468699  0.69768497  0.56979798  1
  P  P6  1  0.84468696  0.80231497  0.43020198  1
  P  P7  1  0.65531297  0.19768499  0.93020197  1
  C  C8  1  0.23000499  0.12785799  0.16190799  1
  C  C9  1  0.26999499  0.87214196  0.66190798  1
  C  C10  1  0.76999497  0.62785797  0.33809199  1
  C  C11  1  0.73000497  0.37214198  0.83809197  1
  C  C12  1  0.22169399  0.56848698  0.08939500  1
  C  C13  1  0.27830599  0.43151298  0.58939498  1
  C  C14  1  0.77830597  0.06848700  0.41060498  1
  C  C15  1  0.72169397  0.93151296  0.91060497  1
  C  C16  1  0.80720996  0.28035599  0.04301000  1
  C  C17  1  0.69278997  0.71964397  0.54300998  1
  Os  Os18  1  0.19278999  0.78035597  0.45698998  1
  C  C19  1  0.30720999  0.21964399  0.95698996  1
