# generated using pymatgen
data_LaTh13Ru6
_symmetry_space_group_name_H-M   'P 1'
_cell_length_a   6.27620506
_cell_length_b   10.03139782
_cell_length_c   10.03139877
_cell_angle_alpha   120.00000000
_cell_angle_beta   90.00000000
_cell_angle_gamma   90.00000000
_symmetry_Int_Tables_number   1
_chemical_formula_structural   LaTh13Ru6
_chemical_formula_sum   'La1 Th13 Ru6'
_cell_volume   546.95387734
_cell_formula_units_Z   1
loop_
 _symmetry_equiv_pos_site_id
 _symmetry_equiv_pos_as_xyz
  1  'x, y, z'
loop_
 _atom_site_type_symbol
 _atom_site_label
 _atom_site_symmetry_multiplicity
 _atom_site_fract_x
 _atom_site_fract_y
 _atom_site_fract_z
 _atom_site_occupancy
  La  La0  1  0.41874900  0.33333334  0.66666665  1
  Th  Th1  1  0.91874899  0.66666669  0.33333334  1
  Th  Th2  1  0.25390700  0.12827200  0.87172897  1
  Th  Th3  1  0.25390700  0.74345702  0.87172899  1
  Th  Th4  1  0.25390700  0.12827200  0.25654399  1
  Th  Th5  1  0.75390699  0.87172803  0.12827102  1
  Th  Th6  1  0.75390699  0.25654301  0.12827100  1
  Th  Th7  1  0.75390699  0.87172803  0.74345600  1
  Th  Th8  1  0.46117500  0.54129902  0.45870200  1
  Th  Th9  1  0.46117500  0.91740303  0.45870201  1
  Th  Th10  1  0.46117500  0.54129902  0.08259801  1
  Th  Th11  1  0.96117499  0.45870101  0.54129799  1
  Th  Th12  1  0.96117499  0.08259700  0.54129798  1
  Th  Th13  1  0.96117499  0.45870101  0.91740198  1
  Ru  Ru14  1  0.19825100  0.81524003  0.18476002  1
  Ru  Ru15  1  0.19825100  0.36952001  0.18476000  1
  Ru  Ru16  1  0.19825100  0.81524003  0.63048000  1
  Ru  Ru17  1  0.69825099  0.18476001  0.81523998  1
  Ru  Ru18  1  0.69825099  0.63048002  0.81523999  1
  Ru  Ru19  1  0.69825099  0.18476001  0.36951999  1
