# generated using pymatgen
data_CsKCuH2(IO5)2
_symmetry_space_group_name_H-M   'P 1'
_cell_length_a   7.39211988
_cell_length_b   7.39211988
_cell_length_c   7.39211988
_cell_angle_alpha   60.00000000
_cell_angle_beta   60.00000000
_cell_angle_gamma   60.00000000
_symmetry_Int_Tables_number   1
_chemical_formula_structural   CsKCuH2(IO5)2
_chemical_formula_sum   'Cs1 K1 Cu1 H2 I2 O10'
_cell_volume   285.62223091
_cell_formula_units_Z   1
loop_
 _symmetry_equiv_pos_site_id
 _symmetry_equiv_pos_as_xyz
  1  'x, y, z'
loop_
 _atom_site_type_symbol
 _atom_site_label
 _atom_site_symmetry_multiplicity
 _atom_site_fract_x
 _atom_site_fract_y
 _atom_site_fract_z
 _atom_site_occupancy
  Cs  Cs0  1  0.00000000  0.00000000  0.00000000  1
  K  K1  1  0.69289199  0.69289199  0.92132398  1
  Cu  Cu2  1  0.30710799  0.07867600  0.30710799  1
  H  H3  1  0.07867600  0.30710799  0.30710799  1
  H  H4  1  0.30710799  0.30710799  0.30710799  1
  I  I5  1  0.69289199  0.69289199  0.69289199  1
  I  I6  1  0.69289199  0.92132398  0.69289199  1
  O  O7  1  0.92132398  0.69289199  0.69289199  1
  O  O8  1  0.30710799  0.30710799  0.07867600  1
  O  O9  1  0.75900499  0.75900499  0.24099500  1
  O  O10  1  0.75900499  0.24099500  0.75900499  1
  O  O11  1  0.24099500  0.75900499  0.24099500  1
  O  O12  1  0.75900499  0.24099500  0.24099500  1
  O  O13  1  0.24099500  0.75900499  0.75900499  1
  O  O14  1  0.24099500  0.24099500  0.75900499  1
  O  O15  1  0.74999999  0.74999999  0.74999999  1
  O  O16  1  0.25000000  0.25000000  0.25000000  1
