# generated using pymatgen
data_CeGe
_symmetry_space_group_name_H-M   'P 1'
_cell_length_a   3.95093203
_cell_length_b   4.61252213
_cell_length_c   10.86623955
_cell_angle_alpha   90.00000000
_cell_angle_beta   90.00000000
_cell_angle_gamma   90.00000000
_symmetry_Int_Tables_number   1
_chemical_formula_structural   CeGe
_chemical_formula_sum   'Ce4 Ge4'
_cell_volume   198.02375667
_cell_formula_units_Z   4
loop_
 _symmetry_equiv_pos_site_id
 _symmetry_equiv_pos_as_xyz
  1  'x, y, z'
loop_
 _atom_site_type_symbol
 _atom_site_label
 _atom_site_symmetry_multiplicity
 _atom_site_fract_x
 _atom_site_fract_y
 _atom_site_fract_z
 _atom_site_occupancy
  Ce  Ce0  1  0.00000000  0.49999999  0.14086501  1
  Ce  Ce1  1  0.00000000  0.00000000  0.63850503  1
  Ce  Ce2  1  0.50000000  0.00000000  0.36679402  1
  Ce  Ce3  1  0.50000000  0.49999999  0.85969504  1
  Ge  Ge4  1  0.00000000  0.49999999  0.43632402  1
  Ge  Ge5  1  0.00000000  0.00000000  0.92691604  1
  Ge  Ge6  1  0.50000000  0.00000000  0.06045900  1
  Ge  Ge7  1  0.50000000  0.49999999  0.57044202  1
