# generated using pymatgen
data_CeNi2
_symmetry_space_group_name_H-M   'P 1'
_cell_length_a   5.45694494
_cell_length_b   5.45694494
_cell_length_c   9.12677383
_cell_angle_alpha   72.60528564
_cell_angle_beta   72.60528564
_cell_angle_gamma   59.99998856
_symmetry_Int_Tables_number   1
_chemical_formula_structural   CeNi2
_chemical_formula_sum   'Ce4 Ni8'
_cell_volume   220.89944610
_cell_formula_units_Z   4
loop_
 _symmetry_equiv_pos_site_id
 _symmetry_equiv_pos_as_xyz
  1  'x, y, z'
loop_
 _atom_site_type_symbol
 _atom_site_label
 _atom_site_symmetry_multiplicity
 _atom_site_fract_x
 _atom_site_fract_y
 _atom_site_fract_z
 _atom_site_occupancy
  Ce  Ce0  1  0.00000000  0.00000000  0.00000000  1
  Ce  Ce1  1  0.14484200  0.14484200  0.56547397  1
  Ce  Ce2  1  0.85515800  0.85515800  0.43452592  1
  Ce  Ce3  1  0.57975600  0.07865900  0.76182894  1
  Ni  Ni4  1  0.07865900  0.57975600  0.76182894  1
  Ni  Ni5  1  0.57975600  0.57975600  0.76182893  1
  Ni  Ni6  1  0.42024400  0.42024400  0.23817096  1
  Ni  Ni7  1  0.92134100  0.42024400  0.23817094  1
  Ni  Ni8  1  0.42024400  0.92134100  0.23817094  1
  Ni  Ni9  1  0.33459200  0.33459200  0.99622394  1
  Ni  Ni10  1  0.50000000  0.50000000  0.49999994  1
  Ni  Ni11  1  0.66540800  0.66540800  0.00377595  1
