# generated using pymatgen
data_Li6MgSnTeO6
_symmetry_space_group_name_H-M   'P 1'
_cell_length_a   7.28065300
_cell_length_b   7.28065300
_cell_length_c   7.28065300
_cell_angle_alpha   60.00000000
_cell_angle_beta   60.00000000
_cell_angle_gamma   60.00000000
_symmetry_Int_Tables_number   1
_chemical_formula_structural   Li6MgSnTeO6
_chemical_formula_sum   'Li6 Mg1 Sn1 Te1 O6'
_cell_volume   272.89526520
_cell_formula_units_Z   1
loop_
 _symmetry_equiv_pos_site_id
 _symmetry_equiv_pos_as_xyz
  1  'x, y, z'
loop_
 _atom_site_type_symbol
 _atom_site_label
 _atom_site_symmetry_multiplicity
 _atom_site_fract_x
 _atom_site_fract_y
 _atom_site_fract_z
 _atom_site_occupancy
  Li  Li0  1  -0.00000000  0.00000000  0.49999999  1
  Li  Li1  1  -0.00000000  0.49999999  0.00000000  1
  Li  Li2  1  0.49999999  0.00000000  0.49999999  1
  Li  Li3  1  0.49999999  0.49999999  0.00000000  1
  Li  Li4  1  0.49999999  0.00000000  -0.00000000  1
  Li  Li5  1  -0.00000000  0.49999999  0.49999999  1
  Mg  Mg6  1  0.00000000  0.00000000  0.00000000  1
  O  O7  1  0.24999999  0.24999999  0.24999999  1
  Te  Te8  1  0.74999998  0.74999998  0.74999998  1
  Sn  Sn9  1  0.23744200  0.23744200  0.76255798  1
  O  O10  1  0.76255798  0.23744200  0.76255798  1
  O  O11  1  0.23744200  0.76255798  0.23744200  1
  O  O12  1  0.23744200  0.76255798  0.76255798  1
  O  O13  1  0.76255798  0.23744200  0.23744200  1
  O  O14  1  0.76255798  0.76255798  0.23744200  1
