# generated using pymatgen
data_CaSn2
_symmetry_space_group_name_H-M   'P 1'
_cell_length_a   6.41304016
_cell_length_b   6.41304016
_cell_length_c   8.98792076
_cell_angle_alpha   90.00000000
_cell_angle_beta   90.00000000
_cell_angle_gamma   90.00000000
_symmetry_Int_Tables_number   1
_chemical_formula_structural   CaSn2
_chemical_formula_sum   'Ca4 Sn8'
_cell_volume   369.64697310
_cell_formula_units_Z   4
loop_
 _symmetry_equiv_pos_site_id
 _symmetry_equiv_pos_as_xyz
  1  'x, y, z'
loop_
 _atom_site_type_symbol
 _atom_site_label
 _atom_site_symmetry_multiplicity
 _atom_site_fract_x
 _atom_site_fract_y
 _atom_site_fract_z
 _atom_site_occupancy
  Ca  Ca0  1  0.49999999  0.00000000  0.79423602  1
  Ca  Ca1  1  0.00000000  0.49999999  0.20576401  1
  Ca  Ca2  1  0.34250799  0.84250798  0.18277500  1
  Ca  Ca3  1  0.84250798  0.65749198  0.81722502  1
  Sn  Sn4  1  0.15749200  0.34250799  0.81722502  1
  Sn  Sn5  1  0.65749198  0.15749200  0.18277500  1
  Sn  Sn6  1  0.25166499  0.75166498  0.49899901  1
  Sn  Sn7  1  0.75166498  0.74833498  0.50100101  1
  Sn  Sn8  1  0.24833499  0.25166499  0.50100101  1
  Sn  Sn9  1  0.74833498  0.24833499  0.49899901  1
  Sn  Sn10  1  0.49999999  0.49999999  0.00000000  1
  Sn  Sn11  1  0.00000000  0.00000000  0.00000000  1
