# generated using pymatgen
data_Li4FeO7
_symmetry_space_group_name_H-M   'P 1'
_cell_length_a   4.75913382
_cell_length_b   5.62015104
_cell_length_c   5.69981766
_cell_angle_alpha   113.80088043
_cell_angle_beta   90.00000000
_cell_angle_gamma   90.00000000
_symmetry_Int_Tables_number   1
_chemical_formula_structural   Li4FeO7
_chemical_formula_sum   'Li4 Fe1 O7'
_cell_volume   139.48768713
_cell_formula_units_Z   1
loop_
 _symmetry_equiv_pos_site_id
 _symmetry_equiv_pos_as_xyz
  1  'x, y, z'
loop_
 _atom_site_type_symbol
 _atom_site_label
 _atom_site_symmetry_multiplicity
 _atom_site_fract_x
 _atom_site_fract_y
 _atom_site_fract_z
 _atom_site_occupancy
  Li  Li0  1  -0.00000000  0.49999999  0.50000000  1
  Li  Li1  1  0.50000002  0.49999999  -0.00000002  1
  Li  Li2  1  0.50000002  0.00000000  0.50000002  1
  Li  Li3  1  0.00000000  0.00000000  0.00000000  1
  Fe  Fe4  1  0.29180301  0.14181800  0.84428702  1
  O  O5  1  0.20819701  0.14181800  0.34428700  1
  O  O6  1  0.68597503  0.33107499  0.63958001  1
  O  O7  1  0.81402503  0.33107499  0.13957999  1
  O  O8  1  0.18597501  0.66892498  0.86042000  1
  O  O9  1  0.31402501  0.66892498  0.36041999  1
  O  O10  1  0.79180303  0.85818198  0.65571299  1
  O  O11  1  0.70819703  0.85818198  0.15571297  1
