# generated using pymatgen
data_Ti3Ni11
_symmetry_space_group_name_H-M   'P 1'
_cell_length_a   3.72967196
_cell_length_b   7.25171614
_cell_length_c   7.25171614
_cell_angle_alpha   90.00000000
_cell_angle_beta   90.00000000
_cell_angle_gamma   90.00000000
_symmetry_Int_Tables_number   1
_chemical_formula_structural   Ti3Ni11
_chemical_formula_sum   'Ti3 Ni11'
_cell_volume   196.13370223
_cell_formula_units_Z   1
loop_
 _symmetry_equiv_pos_site_id
 _symmetry_equiv_pos_as_xyz
  1  'x, y, z'
loop_
 _atom_site_type_symbol
 _atom_site_label
 _atom_site_symmetry_multiplicity
 _atom_site_fract_x
 _atom_site_fract_y
 _atom_site_fract_z
 _atom_site_occupancy
  Ti  Ti0  1  0.00000000  0.00000000  0.00000000  1
  Ti  Ti1  1  0.50000001  0.49999999  0.49999999  1
  Ti  Ti2  1  0.00000000  0.58309699  0.14448900  1
  Ni  Ni3  1  0.00000000  0.41690299  0.85551098  1
  Ni  Ni4  1  0.50000001  0.64448899  0.91690298  1
  Ni  Ni5  1  0.50000001  0.08309700  0.35551099  1
  Ni  Ni6  1  0.50000001  0.35551099  0.08309700  1
  Ni  Ni7  1  0.50000001  0.91690298  0.64448899  1
  Ni  Ni8  1  0.00000000  0.14448900  0.58309699  1
  Ni  Ni9  1  0.00000000  0.85551098  0.41690299  1
  Ni  Ni10  1  1.00000001  0.27867399  0.27867399  1
  Ni  Ni11  1  0.00000000  0.72132599  0.72132599  1
  Ni  Ni12  1  0.50000001  0.77867399  0.22132600  1
  Ni  Ni13  1  0.50000001  0.22132600  0.77867399  1
