# generated using pymatgen
data_Mg5GaAs4
_symmetry_space_group_name_H-M   'P 1'
_cell_length_a   4.16687012
_cell_length_b   4.16687012
_cell_length_c   14.80925560
_cell_angle_alpha   98.08746338
_cell_angle_beta   98.08746338
_cell_angle_gamma   90.00000000
_symmetry_Int_Tables_number   1
_chemical_formula_structural   Mg5GaAs4
_chemical_formula_sum   'Mg5 Ga1 As4'
_cell_volume   251.98969312
_cell_formula_units_Z   1
loop_
 _symmetry_equiv_pos_site_id
 _symmetry_equiv_pos_as_xyz
  1  'x, y, z'
loop_
 _atom_site_type_symbol
 _atom_site_label
 _atom_site_symmetry_multiplicity
 _atom_site_fract_x
 _atom_site_fract_y
 _atom_site_fract_z
 _atom_site_occupancy
  Mg  Mg0  1  0.00000000  0.00000000  0.00000000  1
  Mg  Mg1  1  0.39689698  0.39689699  0.79379400  1
  Mg  Mg2  1  0.79829796  0.79829797  0.59659599  1
  Mg  Mg3  1  0.20170199  0.20170199  0.40340400  1
  Mg  Mg4  1  0.60310297  0.60310298  0.20620599  1
  Ga  Ga5  1  0.10541899  0.10541900  0.21083800  1
  As  As6  1  0.49999998  0.49999998  -0.00000001  1
  As  As7  1  0.89458096  0.89458097  0.78916199  1
  As  As8  1  0.29932699  0.29932699  0.59865400  1
  As  As9  1  0.70067297  0.70067298  0.40134599  1
