# generated using pymatgen
data_CaGaSb2(Te3O)2
_symmetry_space_group_name_H-M   'P 1'
_cell_length_a   6.52068615
_cell_length_b   6.84330750
_cell_length_c   6.52068615
_cell_angle_alpha   118.45236206
_cell_angle_beta   90.00000000
_cell_angle_gamma   118.45236206
_symmetry_Int_Tables_number   1
_chemical_formula_structural   CaGaSb2(Te3O)2
_chemical_formula_sum   'Ca1 Ga1 Sb2 Te6 O2'
_cell_volume   215.01167899
_cell_formula_units_Z   1
loop_
 _symmetry_equiv_pos_site_id
 _symmetry_equiv_pos_as_xyz
  1  'x, y, z'
loop_
 _atom_site_type_symbol
 _atom_site_label
 _atom_site_symmetry_multiplicity
 _atom_site_fract_x
 _atom_site_fract_y
 _atom_site_fract_z
 _atom_site_occupancy
  Ca  Ca0  1  0.00000000  0.00000000  0.00000000  1
  Ga  Ga1  1  0.49999999  0.00000000  0.49999999  1
  Sb  Sb2  1  0.21473094  0.72111796  0.00638695  1
  Sb  Sb3  1  0.71473093  0.72111796  0.21473094  1
  Te  Te4  1  0.00638695  0.72111796  0.50638694  1
  Te  Te5  1  0.28526897  0.27888199  0.78526896  1
  Te  Te6  1  0.99361296  0.27888199  0.49361297  1
  Te  Te7  1  0.49361297  0.27888199  0.28526897  1
  Te  Te8  1  0.78526896  0.27888199  0.99361296  1
  Te  Te9  1  0.50638694  0.72111796  0.71473093  1
  O  O10  1  0.74999995  0.49999998  0.74999995  1
  O  O11  1  0.24999996  0.49999998  0.24999996  1
