# generated using pymatgen
data_LiS
_symmetry_space_group_name_H-M   'P 1'
_cell_length_a   3.71920991
_cell_length_b   6.40350389
_cell_length_c   11.20539761
_cell_angle_alpha   104.46272278
_cell_angle_beta   90.00000000
_cell_angle_gamma   106.88217163
_symmetry_Int_Tables_number   1
_chemical_formula_structural   LiS
_chemical_formula_sum   'Li6 S6'
_cell_volume   246.51537328
_cell_formula_units_Z   6
loop_
 _symmetry_equiv_pos_site_id
 _symmetry_equiv_pos_as_xyz
  1  'x, y, z'
loop_
 _atom_site_type_symbol
 _atom_site_label
 _atom_site_symmetry_multiplicity
 _atom_site_fract_x
 _atom_site_fract_y
 _atom_site_fract_z
 _atom_site_occupancy
  Li  Li0  1  0.30569301  0.61138699  0.20292203  1
  Li  Li1  1  0.69393702  0.38787400  0.80402904  1
  Li  Li2  1  0.00069600  0.00139200  0.00529600  1
  Li  Li3  1  0.88638503  0.77276999  0.56645305  1
  Li  Li4  1  0.11462300  0.22924600  0.42342602  1
  Li  Li5  1  0.25319901  0.50639799  0.63686904  1
  S  S6  1  0.73248102  0.46496299  0.35352303  1
  S  S7  1  0.66191902  0.32383800  0.05141901  1
  S  S8  1  0.34047401  0.68094799  0.94794306  1
  S  S9  1  0.96799503  0.93598999  0.22700704  1
  S  S10  1  0.03652700  0.07305500  0.78471703  1
  S  S11  1  0.50606801  0.01213600  0.49639502  1
