# generated using pymatgen
data_CaBe5(BC)3
_symmetry_space_group_name_H-M   'P 1'
_cell_length_a   4.06915522
_cell_length_b   5.41090822
_cell_length_c   5.41090727
_cell_angle_alpha   120.00000763
_cell_angle_beta   90.00000000
_cell_angle_gamma   90.00000000
_symmetry_Int_Tables_number   1
_chemical_formula_structural   CaBe5(BC)3
_chemical_formula_sum   'Ca1 Be5 B3 C3'
_cell_volume   103.17515102
_cell_formula_units_Z   1
loop_
 _symmetry_equiv_pos_site_id
 _symmetry_equiv_pos_as_xyz
  1  'x, y, z'
loop_
 _atom_site_type_symbol
 _atom_site_label
 _atom_site_symmetry_multiplicity
 _atom_site_fract_x
 _atom_site_fract_y
 _atom_site_fract_z
 _atom_site_occupancy
  Be  Be0  1  0.12117099  0.00000000  -0.00000000  1
  Ca  Ca1  1  0.00631600  0.33333333  0.66666670  1
  Be  Be2  1  0.00631600  0.66666666  0.33333338  1
  Be  Be3  1  0.49579097  0.50000000  0.00000003  1
  Be  Be4  1  0.49579097  0.99999999  0.50000007  1
  Be  Be5  1  0.49579097  0.50000000  0.50000004  1
  B  B6  1  0.70960796  0.20454000  0.40908002  1
  B  B7  1  0.70960796  0.59091900  0.79545905  1
  C  C8  1  0.70960796  0.20454000  0.79545902  1
  B  B9  1  0.70960796  0.79546000  0.59092006  1
  C  C10  1  0.70960796  0.79546000  0.20454106  1
  C  C11  1  0.70960796  0.40908100  0.20454103  1
