# generated using pymatgen
data_Hf7ZrNi6
_symmetry_space_group_name_H-M   'P 1'
_cell_length_a   5.15966797
_cell_length_b   7.66916895
_cell_length_c   7.66916895
_cell_angle_alpha   83.50258636
_cell_angle_beta   70.34289551
_cell_angle_gamma   70.34289551
_symmetry_Int_Tables_number   1
_chemical_formula_structural   Hf7ZrNi6
_chemical_formula_sum   'Hf7 Zr1 Ni6'
_cell_volume   269.13141870
_cell_formula_units_Z   1
loop_
 _symmetry_equiv_pos_site_id
 _symmetry_equiv_pos_as_xyz
  1  'x, y, z'
loop_
 _atom_site_type_symbol
 _atom_site_label
 _atom_site_symmetry_multiplicity
 _atom_site_fract_x
 _atom_site_fract_y
 _atom_site_fract_z
 _atom_site_occupancy
  Hf  Hf0  1  0.10479199  0.11197300  0.67844401  1
  Zr  Zr1  1  0.59403598  0.31192701  0.50000002  1
  Hf  Hf2  1  0.90596297  0.50000001  0.68807403  1
  Hf  Hf3  1  0.89520794  0.88802702  0.32155606  1
  Hf  Hf4  1  0.40596395  0.68807301  0.50000005  1
  Hf  Hf5  1  0.78323499  0.32155601  0.11197401  1
  Hf  Hf6  1  0.21676495  0.67844401  0.88802606  1
  Hf  Hf7  1  0.39520898  0.32155601  0.88802603  1
  Ni  Ni8  1  0.28323600  0.11197300  0.32155601  1
  Ni  Ni9  1  0.60479095  0.67844401  0.11197405  1
  Ni  Ni10  1  0.09403696  0.50000001  0.31192604  1
  Ni  Ni11  1  0.71676394  0.88802702  0.67844407  1
  Ni  Ni12  1  0.24999992  1.00000002  0.00000008  1
  Ni  Ni13  1  0.74999993  1.00000002  1.00000008  1
