# generated using pymatgen
data_Ba3Nd2AlB3Ru2PtC2
_symmetry_space_group_name_H-M   'P 1'
_cell_length_a   6.27285910
_cell_length_b   6.27285910
_cell_length_c   8.97670555
_cell_angle_alpha   90.00000000
_cell_angle_beta   90.00000000
_cell_angle_gamma   90.00000000
_symmetry_Int_Tables_number   1
_chemical_formula_structural   Ba3Nd2AlB3Ru2PtC2
_chemical_formula_sum   'Ba3 Nd2 Al1 B3 Ru2 Pt1 C2'
_cell_volume   353.22224350
_cell_formula_units_Z   1
loop_
 _symmetry_equiv_pos_site_id
 _symmetry_equiv_pos_as_xyz
  1  'x, y, z'
loop_
 _atom_site_type_symbol
 _atom_site_label
 _atom_site_symmetry_multiplicity
 _atom_site_fract_x
 _atom_site_fract_y
 _atom_site_fract_z
 _atom_site_occupancy
  Ba  Ba0  1  0.50000099  0.00000000  0.25000001  1
  Ba  Ba1  1  0.00000000  0.50000099  0.25000001  1
  Ba  Ba2  1  0.50000099  0.00000000  0.75000004  1
  Al  Al3  1  0.00000000  0.50000099  0.75000004  1
  Nd  Nd4  1  0.18752500  0.18752500  0.00000000  1
  Nd  Nd5  1  0.81247499  0.81247499  0.00000000  1
  B  B6  1  0.00000000  0.00000000  0.18536201  1
  B  B7  1  0.50000099  0.50000099  0.31463802  1
  B  B8  1  0.68752499  0.31247500  0.50000103  1
  Ru  Ru9  1  0.31247500  0.68752499  0.50000103  1
  Ru  Ru10  1  0.50000099  0.50000099  0.68536303  1
  Pt  Pt11  1  0.00000000  0.00000000  0.81463804  1
  C  C12  1  0.00000000  0.00000000  0.00000000  1
  C  C13  1  0.50000099  0.50000099  0.50000103  1
