# generated using pymatgen
data_Ca4SiP5
_symmetry_space_group_name_H-M   'P 1'
_cell_length_a   6.81607008
_cell_length_b   6.87209225
_cell_length_c   9.73982430
_cell_angle_alpha   105.41503906
_cell_angle_beta   90.00000000
_cell_angle_gamma   119.73069763
_symmetry_Int_Tables_number   1
_chemical_formula_structural   Ca4SiP5
_chemical_formula_sum   'Ca8 Si2 P10'
_cell_volume   377.14919889
_cell_formula_units_Z   2
loop_
 _symmetry_equiv_pos_site_id
 _symmetry_equiv_pos_as_xyz
  1  'x, y, z'
loop_
 _atom_site_type_symbol
 _atom_site_label
 _atom_site_symmetry_multiplicity
 _atom_site_fract_x
 _atom_site_fract_y
 _atom_site_fract_z
 _atom_site_occupancy
  Ca  Ca0  1  0.78733301  0.22051300  0.93995600  1
  Ca  Ca1  1  0.61567903  0.58161101  0.85987699  1
  Ca  Ca2  1  0.14178306  0.97903402  0.75741198  1
  Ca  Ca3  1  0.55582205  0.81661101  0.54717298  1
  Ca  Ca4  1  0.43318001  0.22051300  0.43995600  1
  Ca  Ca5  1  0.96593203  0.58161101  0.35987699  1
  Ca  Ca6  1  0.83725106  0.97903402  0.25741198  1
  Ca  Ca7  1  0.26078905  0.81661101  0.04717298  1
  Si  Si8  1  0.95439705  0.98779402  0.00142097  1
  Si  Si9  1  0.20017802  0.39753601  0.89731900  1
  P  P10  1  0.43671405  0.81872201  0.80434398  1
  P  P11  1  0.75397303  0.62350701  0.61793399  1
  P  P12  1  0.52448401  0.17941100  0.67823200  1
  P  P13  1  0.19735802  0.39753601  0.39731899  1
  P  P14  1  0.03339707  0.98779402  0.50142098  1
  P  P15  1  0.65492700  0.17941100  0.17823200  1
  P  P16  1  0.38200805  0.81872201  0.30434398  1
  P  P17  1  0.86953403  0.62350701  0.11793398  1
  P  P18  1  0.01165903  0.40057001  0.65153999  1
  P  P19  1  0.38891102  0.40057001  0.15153999  1
