# generated using pymatgen
data_CeGaSi3
_symmetry_space_group_name_H-M   'P 1'
_cell_length_a   4.26759195
_cell_length_b   4.26759195
_cell_length_c   5.95799494
_cell_angle_alpha   110.98600769
_cell_angle_beta   110.98600769
_cell_angle_gamma   90.00000000
_symmetry_Int_Tables_number   1
_chemical_formula_structural   CeGaSi3
_chemical_formula_sum   'Ce1 Ga1 Si3'
_cell_volume   93.56169563
_cell_formula_units_Z   1
loop_
 _symmetry_equiv_pos_site_id
 _symmetry_equiv_pos_as_xyz
  1  'x, y, z'
loop_
 _atom_site_type_symbol
 _atom_site_label
 _atom_site_symmetry_multiplicity
 _atom_site_fract_x
 _atom_site_fract_y
 _atom_site_fract_z
 _atom_site_occupancy
  Ce  Ce0  1  0.00000000  0.00000000  0.00000000  1
  Ga  Ga1  1  0.61169300  0.61169301  0.22338600  1
  Si  Si2  1  0.38830700  0.38830700  0.77661400  1
  Si  Si3  1  0.75000001  0.25000000  0.50000000  1
  Si  Si4  1  0.25000000  0.75000001  0.50000000  1
