# generated using pymatgen
data_DyY2Al5
_symmetry_space_group_name_H-M   'P 1'
_cell_length_a   4.86073303
_cell_length_b   6.49968386
_cell_length_c   6.49968338
_cell_angle_alpha   120.00000000
_cell_angle_beta   90.00000000
_cell_angle_gamma   90.00000000
_symmetry_Int_Tables_number   1
_chemical_formula_structural   DyY2Al5
_chemical_formula_sum   'Y2 Dy1 Al5'
_cell_volume   177.83483447
_cell_formula_units_Z   1
loop_
 _symmetry_equiv_pos_site_id
 _symmetry_equiv_pos_as_xyz
  1  'x, y, z'
loop_
 _atom_site_type_symbol
 _atom_site_label
 _atom_site_symmetry_multiplicity
 _atom_site_fract_x
 _atom_site_fract_y
 _atom_site_fract_z
 _atom_site_occupancy
  Y  Y0  1  0.75000000  0.33333333  0.66666668  1
  Dy  Dy1  1  0.25000000  0.66666667  0.33333332  1
  Y  Y2  1  0.25000000  0.15595700  0.31191400  1
  Al  Al3  1  0.25000000  0.68808600  0.84404300  1
  Al  Al4  1  0.25000000  0.15595700  0.84404302  1
  Al  Al5  1  0.75000000  0.84404300  0.68808599  1
  Al  Al6  1  0.75000000  0.31191400  0.15595699  1
  Al  Al7  1  0.75000000  0.84404300  0.15595697  1
