# generated using pymatgen
data_Na4TeO5
_symmetry_space_group_name_H-M   'P 1'
_cell_length_a   6.02325439
_cell_length_b   6.02325439
_cell_length_c   6.06038094
_cell_angle_alpha   60.20244217
_cell_angle_beta   60.20244217
_cell_angle_gamma   59.99999237
_symmetry_Int_Tables_number   1
_chemical_formula_structural   Na4TeO5
_chemical_formula_sum   'Na4 Te1 O5'
_cell_volume   155.94428392
_cell_formula_units_Z   1
loop_
 _symmetry_equiv_pos_site_id
 _symmetry_equiv_pos_as_xyz
  1  'x, y, z'
loop_
 _atom_site_type_symbol
 _atom_site_label
 _atom_site_symmetry_multiplicity
 _atom_site_fract_x
 _atom_site_fract_y
 _atom_site_fract_z
 _atom_site_occupancy
  Na  Na0  1  0.35339802  0.35339802  0.93980600  1
  Na  Na1  1  0.61855504  0.61855503  0.14433496  1
  Na  Na2  1  0.11830801  0.11830801  0.64507601  1
  Na  Na3  1  0.84748505  0.84748504  0.45754495  1
  Te  Te4  1  0.61942604  0.15263701  0.24293998  1
  O  O5  1  0.71560404  0.05138200  0.69480699  1
  O  O6  1  0.05138201  0.53820703  0.69480699  1
  O  O7  1  0.98499706  0.61942603  0.24293995  1
  O  O8  1  0.15263702  0.98499705  0.24293996  1
  O  O9  1  0.53820704  0.71560404  0.69480697  1
