# generated using pymatgen
data_Dy2Lu(InPd)3
_symmetry_space_group_name_H-M   'P 1'
_cell_length_a   4.20022583
_cell_length_b   7.32834578
_cell_length_c   7.32834625
_cell_angle_alpha   120.00000000
_cell_angle_beta   90.00000000
_cell_angle_gamma   90.00000000
_symmetry_Int_Tables_number   1
_chemical_formula_structural   Dy2Lu(InPd)3
_chemical_formula_sum   'Dy2 Lu1 In3 Pd3'
_cell_volume   195.35080559
_cell_formula_units_Z   1
loop_
 _symmetry_equiv_pos_site_id
 _symmetry_equiv_pos_as_xyz
  1  'x, y, z'
loop_
 _atom_site_type_symbol
 _atom_site_label
 _atom_site_symmetry_multiplicity
 _atom_site_fract_x
 _atom_site_fract_y
 _atom_site_fract_z
 _atom_site_occupancy
  Dy  Dy0  1  0.50000002  0.58173002  0.00000001  1
  Dy  Dy1  1  0.50000002  0.41827002  0.41827000  1
  Lu  Lu2  1  0.50000002  0.00000000  0.58172999  1
  In  In3  1  -0.00000000  0.23279301  0.00000000  1
  In  In4  1  -0.00000000  0.76720703  0.76720700  1
  In  In5  1  1.00000004  0.00000000  0.23279300  1
  Pd  Pd6  1  -0.00000000  0.33333335  0.66666666  1
  Pd  Pd7  1  -0.00000000  0.66666669  0.33333334  1
  Pd  Pd8  1  0.50000002  0.00000000  -0.00000000  1
