# generated using pymatgen
data_Cs2SeO2
_symmetry_space_group_name_H-M   'P 1'
_cell_length_a   4.03652620
_cell_length_b   9.27975368
_cell_length_c   10.04220867
_cell_angle_alpha   115.19609833
_cell_angle_beta   90.00000000
_cell_angle_gamma   102.56171417
_symmetry_Int_Tables_number   1
_chemical_formula_structural   Cs2SeO2
_chemical_formula_sum   'Cs4 Se2 O4'
_cell_volume   330.39294310
_cell_formula_units_Z   2
loop_
 _symmetry_equiv_pos_site_id
 _symmetry_equiv_pos_as_xyz
  1  'x, y, z'
loop_
 _atom_site_type_symbol
 _atom_site_label
 _atom_site_symmetry_multiplicity
 _atom_site_fract_x
 _atom_site_fract_y
 _atom_site_fract_z
 _atom_site_occupancy
  Cs  Cs0  1  0.80360805  0.60721600  0.67647100  1
  Cs  Cs1  1  0.19639205  0.39278400  0.32352900  1
  Cs  Cs2  1  0.94542708  0.89085400  0.65411399  1
  Cs  Cs3  1  0.05457301  0.10914600  0.34588601  1
  O  O4  1  0.67428802  0.34857600  0.73842501  1
  Se  Se5  1  0.32571208  0.65142400  0.26157499  1
  Se  Se6  1  0.37920009  0.75840000  0.91415300  1
  O  O7  1  0.62080000  0.24160000  0.08584700  1
  O  O8  1  0.27142107  0.54284200  0.58101000  1
  O  O9  1  0.72857903  0.45715800  0.41899000  1
