# generated using pymatgen
data_Ca2MgGaNi
_symmetry_space_group_name_H-M   'P 1'
_cell_length_a   4.56806612
_cell_length_b   4.56806517
_cell_length_c   14.50391293
_cell_angle_alpha   90.00000000
_cell_angle_beta   90.00000000
_cell_angle_gamma   120.00000763
_symmetry_Int_Tables_number   1
_chemical_formula_structural   Ca2MgGaNi
_chemical_formula_sum   'Ca4 Mg2 Ga2 Ni2'
_cell_volume   262.10810728
_cell_formula_units_Z   2
loop_
 _symmetry_equiv_pos_site_id
 _symmetry_equiv_pos_as_xyz
  1  'x, y, z'
loop_
 _atom_site_type_symbol
 _atom_site_label
 _atom_site_symmetry_multiplicity
 _atom_site_fract_x
 _atom_site_fract_y
 _atom_site_fract_z
 _atom_site_occupancy
  Ca  Ca0  1  0.33333333  0.66666664  0.00018300  1
  Ca  Ca1  1  0.33333333  0.66666664  0.49927300  1
  Ca  Ca2  1  0.00000000  0.00000000  0.81567800  1
  Ca  Ca3  1  0.66666665  0.33333332  0.18666200  1
  Ga  Ga4  1  0.66666665  0.33333332  0.68433800  1
  Mg  Mg5  1  0.00000000  0.00000000  0.31388000  1
  Ni  Ni6  1  0.00000000  0.00000000  0.11558700  1
  Mg  Mg7  1  0.00000000  0.00000000  0.61211500  1
  Ga  Ga8  1  0.66666665  0.33333332  0.38476600  1
  Ni  Ni9  1  0.66666665  0.33333332  0.88751700  1
