# generated using pymatgen
data_YTmLuSn5
_symmetry_space_group_name_H-M   'P 1'
_cell_length_a   5.16851616
_cell_length_b   6.36219406
_cell_length_c   6.36219454
_cell_angle_alpha   60.00000000
_cell_angle_beta   90.00000000
_cell_angle_gamma   90.00000000
_symmetry_Int_Tables_number   1
_chemical_formula_structural   YTmLuSn5
_chemical_formula_sum   'Y1 Tm1 Lu1 Sn5'
_cell_volume   181.18004639
_cell_formula_units_Z   1
loop_
 _symmetry_equiv_pos_site_id
 _symmetry_equiv_pos_as_xyz
  1  'x, y, z'
loop_
 _atom_site_type_symbol
 _atom_site_label
 _atom_site_symmetry_multiplicity
 _atom_site_fract_x
 _atom_site_fract_y
 _atom_site_fract_z
 _atom_site_occupancy
  Tm  Tm0  1  0.74999998  0.66666667  0.66666662  1
  Lu  Lu1  1  0.24999999  0.33333334  0.33333331  1
  Y  Y2  1  0.74999998  0.66344200  0.16827897  1
  Sn  Sn3  1  0.74999998  0.16827900  0.66344197  1
  Sn  Sn4  1  0.74999998  0.16827900  0.16827899  1
  Sn  Sn5  1  0.24999999  0.83172101  0.83172094  1
  Sn  Sn6  1  0.24999999  0.83172101  0.33655796  1
  Sn  Sn7  1  0.24999999  0.33655800  0.83172096  1
