# generated using pymatgen
data_Ce2Ge9
_symmetry_space_group_name_H-M   'P 1'
_cell_length_a   6.94615221
_cell_length_b   6.94615221
_cell_length_c   6.96839476
_cell_angle_alpha   119.89447021
_cell_angle_beta   119.89447021
_cell_angle_gamma   90.00000000
_symmetry_Int_Tables_number   1
_chemical_formula_structural   Ce2Ge9
_chemical_formula_sum   'Ce2 Ge9'
_cell_volume   238.49865895
_cell_formula_units_Z   1
loop_
 _symmetry_equiv_pos_site_id
 _symmetry_equiv_pos_as_xyz
  1  'x, y, z'
loop_
 _atom_site_type_symbol
 _atom_site_label
 _atom_site_symmetry_multiplicity
 _atom_site_fract_x
 _atom_site_fract_y
 _atom_site_fract_z
 _atom_site_occupancy
  Ce  Ce0  1  0.00000000  0.00000000  0.00000000  1
  Ce  Ce1  1  0.11840203  0.47027901  0.58868104  1
  Ge  Ge2  1  0.47027901  0.11840200  0.58868103  1
  Ge  Ge3  1  0.88159806  0.88159802  0.41131912  1
  Ge  Ge4  1  0.52972104  0.52972101  0.41131907  1
  Ge  Ge5  1  0.50000000  0.00000000  1.00000001  1
  Ge  Ge6  1  0.00000004  0.50000001  0.00000005  1
  Ge  Ge7  1  0.75001903  0.40535101  0.15537007  1
  Ge  Ge8  1  0.40535105  0.75001901  0.15537009  1
  Ge  Ge9  1  0.24998102  0.24998100  0.84463002  1
  Ge  Ge10  1  0.59464904  0.59464901  0.84463008  1
