# generated using pymatgen
data_CaNiBi6TeO11
_symmetry_space_group_name_H-M   'P 1'
_cell_length_a   2.93730307
_cell_length_b   9.42012119
_cell_length_c   9.42012119
_cell_angle_alpha   90.00000000
_cell_angle_beta   90.00000000
_cell_angle_gamma   90.00000000
_symmetry_Int_Tables_number   1
_chemical_formula_structural   CaNiBi6TeO11
_chemical_formula_sum   'Ca1 Ni1 Bi6 Te1 O11'
_cell_volume   260.65240652
_cell_formula_units_Z   1
loop_
 _symmetry_equiv_pos_site_id
 _symmetry_equiv_pos_as_xyz
  1  'x, y, z'
loop_
 _atom_site_type_symbol
 _atom_site_label
 _atom_site_symmetry_multiplicity
 _atom_site_fract_x
 _atom_site_fract_y
 _atom_site_fract_z
 _atom_site_occupancy
  Ca  Ca0  1  0.99999998  0.82533498  0.32533499  1
  Bi  Bi1  1  0.00000000  0.32533499  0.17466500  1
  Bi  Bi2  1  0.99999998  0.67466499  0.82533498  1
  Bi  Bi3  1  0.99999998  0.17466500  0.67466499  1
  Bi  Bi4  1  0.00000000  0.00000000  0.00000000  1
  Bi  Bi5  1  0.00000000  0.49999999  0.49999999  1
  Ni  Ni6  1  0.00000000  0.62525399  0.12525400  1
  Bi  Bi7  1  0.00000000  0.12525400  0.37474599  1
  O  O8  1  0.99999998  0.87474598  0.62525399  1
  Te  Te9  1  0.99999998  0.37474599  0.87474598  1
  O  O10  1  0.49999999  0.07206700  0.21361600  1
  O  O11  1  0.49999999  0.21361600  0.92793298  1
  O  O12  1  0.49999999  0.78638398  0.07206700  1
  O  O13  1  0.49999999  0.92793298  0.78638398  1
  O  O14  1  0.49999999  0.42793299  0.71361599  1
  O  O15  1  0.49999999  0.57206699  0.28638399  1
  O  O16  1  0.49999999  0.71361599  0.57206699  1
  O  O17  1  0.49999999  0.28638399  0.42793299  1
  O  O18  1  0.49999999  0.49999999  0.00000000  1
  O  O19  1  0.49999999  0.99999998  0.49999999  1
