# generated using pymatgen
data_Nd4MgCdNi4
_symmetry_space_group_name_H-M   'P 1'
_cell_length_a   3.99844694
_cell_length_b   7.72113514
_cell_length_c   7.72113514
_cell_angle_alpha   90.00000000
_cell_angle_beta   90.00000000
_cell_angle_gamma   90.00000000
_symmetry_Int_Tables_number   1
_chemical_formula_structural   Nd4MgCdNi4
_chemical_formula_sum   'Nd4 Mg1 Cd1 Ni4'
_cell_volume   238.37112434
_cell_formula_units_Z   1
loop_
 _symmetry_equiv_pos_site_id
 _symmetry_equiv_pos_as_xyz
  1  'x, y, z'
loop_
 _atom_site_type_symbol
 _atom_site_label
 _atom_site_symmetry_multiplicity
 _atom_site_fract_x
 _atom_site_fract_y
 _atom_site_fract_z
 _atom_site_occupancy
  Nd  Nd0  1  0.50000001  0.17162000  0.32837999  1
  Nd  Nd1  1  0.50000001  0.67161999  0.17162000  1
  Nd  Nd2  1  0.50000001  0.82837999  0.67161999  1
  Nd  Nd3  1  0.50000001  0.32837999  0.82837999  1
  Mg  Mg4  1  0.00000000  0.00000000  0.00000000  1
  Cd  Cd5  1  0.00000000  0.49999999  0.49999999  1
  Ni  Ni6  1  1.00000001  0.13332100  0.63332099  1
  Ni  Ni7  1  0.00000000  0.63332099  0.86667898  1
  Ni  Ni8  1  1.00000001  0.36667899  0.13332100  1
  Ni  Ni9  1  1.00000001  0.86667898  0.36667899  1
