# generated using pymatgen
data_Mg
_symmetry_space_group_name_H-M   'P 1'
_cell_length_a   4.20566797
_cell_length_b   5.22479153
_cell_length_c   5.22479153
_cell_angle_alpha   80.67792511
_cell_angle_beta   66.26717377
_cell_angle_gamma   66.26717377
_symmetry_Int_Tables_number   1
_chemical_formula_structural   Mg
_chemical_formula_sum   Mg5
_cell_volume   96.21111419
_cell_formula_units_Z   5
loop_
 _symmetry_equiv_pos_site_id
 _symmetry_equiv_pos_as_xyz
  1  'x, y, z'
loop_
 _atom_site_type_symbol
 _atom_site_label
 _atom_site_symmetry_multiplicity
 _atom_site_fract_x
 _atom_site_fract_y
 _atom_site_fract_z
 _atom_site_occupancy
  Mg  Mg0  1  0.00000000  0.00000000  0.00000000  1
  Mg  Mg1  1  0.59983302  0.60023903  0.20009396  1
  Mg  Mg2  1  0.40016701  0.39976102  0.79990600  1
  Mg  Mg3  1  0.20007201  0.20009401  0.39976200  1
  Mg  Mg4  1  0.79992803  0.79990604  0.60023796  1
