# generated using pymatgen
data_Cu5Pd
_symmetry_space_group_name_H-M   'P 1'
_cell_length_a   2.98337293
_cell_length_b   5.84273577
_cell_length_c   6.28332376
_cell_angle_alpha   90.00000000
_cell_angle_beta   90.00000000
_cell_angle_gamma   90.00000000
_symmetry_Int_Tables_number   1
_chemical_formula_structural   Cu5Pd
_chemical_formula_sum   'Cu5 Pd1'
_cell_volume   109.52499170
_cell_formula_units_Z   1
loop_
 _symmetry_equiv_pos_site_id
 _symmetry_equiv_pos_as_xyz
  1  'x, y, z'
loop_
 _atom_site_type_symbol
 _atom_site_label
 _atom_site_symmetry_multiplicity
 _atom_site_fract_x
 _atom_site_fract_y
 _atom_site_fract_z
 _atom_site_occupancy
  Cu  Cu0  1  -0.00000000  0.83201603  0.37248601  1
  Cu  Cu1  1  0.00000000  0.16798401  0.62751402  1
  Cu  Cu2  1  0.50000001  0.33201601  0.12751400  1
  Cu  Cu3  1  0.50000001  0.66798403  0.87248603  1
  Pd  Pd4  1  0.00000000  0.00000000  0.00000000  1
  Cu  Cu5  1  0.50000001  0.50000002  0.50000002  1
