# generated using pymatgen
data_Lu2CuRh
_symmetry_space_group_name_H-M   'P 1'
_cell_length_a   4.63599586
_cell_length_b   4.63599586
_cell_length_c   4.63599586
_cell_angle_alpha   60.00000000
_cell_angle_beta   60.00000000
_cell_angle_gamma   60.00000000
_symmetry_Int_Tables_number   1
_chemical_formula_structural   Lu2CuRh
_chemical_formula_sum   'Lu2 Cu1 Rh1'
_cell_volume   70.45537356
_cell_formula_units_Z   1
loop_
 _symmetry_equiv_pos_site_id
 _symmetry_equiv_pos_as_xyz
  1  'x, y, z'
loop_
 _atom_site_type_symbol
 _atom_site_label
 _atom_site_symmetry_multiplicity
 _atom_site_fract_x
 _atom_site_fract_y
 _atom_site_fract_z
 _atom_site_occupancy
  Lu  Lu0  1  0.00000000  0.00000000  0.00000000  1
  Lu  Lu1  1  0.49999998  0.49999998  0.49999998  1
  Cu  Cu2  1  0.24999999  0.24999999  0.24999999  1
  Rh  Rh3  1  0.74999997  0.74999997  0.74999997  1
