# generated using pymatgen
data_Ca5Cr(WO6)2
_symmetry_space_group_name_H-M   'P 1'
_cell_length_a   5.76486492
_cell_length_b   5.76668406
_cell_length_c   8.13865662
_cell_angle_alpha   90.07614136
_cell_angle_beta   90.00000000
_cell_angle_gamma   90.00000000
_symmetry_Int_Tables_number   1
_chemical_formula_structural   Ca5Cr(WO6)2
_chemical_formula_sum   'Ca5 Cr1 W2 O12'
_cell_volume   270.56252007
_cell_formula_units_Z   1
loop_
 _symmetry_equiv_pos_site_id
 _symmetry_equiv_pos_as_xyz
  1  'x, y, z'
loop_
 _atom_site_type_symbol
 _atom_site_label
 _atom_site_symmetry_multiplicity
 _atom_site_fract_x
 _atom_site_fract_y
 _atom_site_fract_z
 _atom_site_occupancy
  Ca  Ca0  1  0.51599501  0.99667899  0.25023995  1
  Ca  Ca1  1  0.48400501  0.00332100  0.74975996  1
  Ca  Ca2  1  0.01599500  0.50332100  0.24975997  1
  Ca  Ca3  1  0.98400501  0.49667900  0.75023994  1
  Cr  Cr4  1  0.00000000  0.00000000  0.00000000  1
  Ca  Ca5  1  0.50000001  0.50000000  0.49999996  1
  W  W6  1  1.00000001  0.00000000  0.49999997  1
  W  W7  1  0.50000001  0.50000000  0.99999993  1
  O  O8  1  0.28028400  0.76860499  0.03089197  1
  O  O9  1  0.71971601  0.23139500  0.96910794  1
  O  O10  1  0.78028401  0.73139499  0.46910795  1
  O  O11  1  0.21971600  0.26860500  0.53089196  1
  O  O12  1  0.99108601  0.05974100  0.25598198  1
  O  O13  1  0.00891400  0.94025899  0.74401793  1
  O  O14  1  0.49108601  0.44025900  0.24401797  1
  O  O15  1  0.50891401  0.55974099  0.75598194  1
  O  O16  1  0.76951201  0.71902599  0.03149497  1
  O  O17  1  0.23048800  0.28097400  0.96850494  1
  O  O18  1  0.26951200  0.78097399  0.46850495  1
  O  O19  1  0.73048801  0.21902600  0.53149496  1
