# generated using pymatgen
data_URu2
_symmetry_space_group_name_H-M   'P 1'
_cell_length_a   4.90885592
_cell_length_b   5.05780554
_cell_length_c   5.05780506
_cell_angle_alpha   61.90689468
_cell_angle_beta   60.96949005
_cell_angle_gamma   60.96949005
_symmetry_Int_Tables_number   1
_chemical_formula_structural   URu2
_chemical_formula_sum   'U2 Ru4'
_cell_volume   91.33852360
_cell_formula_units_Z   2
loop_
 _symmetry_equiv_pos_site_id
 _symmetry_equiv_pos_as_xyz
  1  'x, y, z'
loop_
 _atom_site_type_symbol
 _atom_site_label
 _atom_site_symmetry_multiplicity
 _atom_site_fract_x
 _atom_site_fract_y
 _atom_site_fract_z
 _atom_site_occupancy
  U  U0  1  0.87474801  0.37525198  0.87525205  1
  U  U1  1  0.12525202  0.62474797  0.12474799  1
  Ru  Ru2  1  0.50000000  0.00000000  0.50000003  1
  Ru  Ru3  1  1.00000001  0.00000000  0.50000005  1
  Ru  Ru4  1  0.50000000  0.00000000  0.00000001  1
  Ru  Ru5  1  0.50000002  0.49999998  0.50000002  1
