# generated using pymatgen
data_BaNdGe4
_symmetry_space_group_name_H-M   'P 1'
_cell_length_a   4.77366400
_cell_length_b   6.05749750
_cell_length_c   6.05749750
_cell_angle_alpha   74.95822906
_cell_angle_beta   66.79454803
_cell_angle_gamma   66.79454803
_symmetry_Int_Tables_number   1
_chemical_formula_structural   BaNdGe4
_chemical_formula_sum   'Ba1 Nd1 Ge4'
_cell_volume   146.83456296
_cell_formula_units_Z   1
loop_
 _symmetry_equiv_pos_site_id
 _symmetry_equiv_pos_as_xyz
  1  'x, y, z'
loop_
 _atom_site_type_symbol
 _atom_site_label
 _atom_site_symmetry_multiplicity
 _atom_site_fract_x
 _atom_site_fract_y
 _atom_site_fract_z
 _atom_site_occupancy
  Ba  Ba0  1  0.46583200  0.28416801  0.78416802  1
  Nd  Nd1  1  0.53416801  0.71583203  0.21583198  1
  Ge  Ge2  1  0.83610401  0.70204803  0.62574400  1
  Ge  Ge3  1  0.16389601  0.29795201  0.37425600  1
  Ge  Ge4  1  0.16389702  0.87425603  0.79795099  1
  Ge  Ge5  1  0.83610300  0.12574400  0.20204900  1
