# generated using pymatgen
data_Ce7Sn2Ge9
_symmetry_space_group_name_H-M   'P 1'
_cell_length_a   4.96632385
_cell_length_b   6.32835388
_cell_length_c   17.80579758
_cell_angle_alpha   83.97099304
_cell_angle_beta   81.98351288
_cell_angle_gamma   66.89690399
_symmetry_Int_Tables_number   1
_chemical_formula_structural   Ce7Sn2Ge9
_chemical_formula_sum   'Ce7 Sn2 Ge9'
_cell_volume   508.92338761
_cell_formula_units_Z   1
loop_
 _symmetry_equiv_pos_site_id
 _symmetry_equiv_pos_as_xyz
  1  'x, y, z'
loop_
 _atom_site_type_symbol
 _atom_site_label
 _atom_site_symmetry_multiplicity
 _atom_site_fract_x
 _atom_site_fract_y
 _atom_site_fract_z
 _atom_site_occupancy
  Ce  Ce0  1  0.94387007  0.70740800  0.90485303  1
  Ce  Ce1  1  0.28109205  0.70437700  0.23343901  1
  Ce  Ce2  1  0.61262006  0.70615800  0.56860202  1
  Ce  Ce3  1  0.72046303  0.29387700  0.76519703  1
  Ce  Ce4  1  0.05522802  0.29263900  0.09690400  1
  Ce  Ce5  1  0.38702503  0.29530000  0.43064901  1
  Ce  Ce6  1  0.70093806  0.72544300  0.37268302  1
  Ge  Ge7  1  0.03359805  0.72550800  0.70729601  1
  Sn  Sn8  1  0.57874602  0.10844900  0.23405801  1
  Sn  Sn9  1  0.91180103  0.10868600  0.56771303  1
  Ge  Ge10  1  0.24572101  0.10385100  0.90470702  1
  Ge  Ge11  1  0.96398704  0.27365700  0.29837002  1
  Ge  Ge12  1  0.29754002  0.27283300  0.63208702  1
  Ge  Ge13  1  0.62437403  0.28528900  0.96596403  1
  Ge  Ge14  1  0.76293907  0.88281100  0.09131202  1
  Ge  Ge15  1  0.09071806  0.89210700  0.42645701  1
  Ge  Ge16  1  0.42429507  0.89091000  0.76050002  1
  Ge  Ge17  1  0.36504905  0.73069600  0.03920701  1
