# generated using pymatgen
data_Li3Sb
_symmetry_space_group_name_H-M   'P 1'
_cell_length_a   3.49483204
_cell_length_b   3.49483204
_cell_length_c   10.11512947
_cell_angle_alpha   80.05210114
_cell_angle_beta   80.05210114
_cell_angle_gamma   60.00000000
_symmetry_Int_Tables_number   1
_chemical_formula_structural   Li3Sb
_chemical_formula_sum   'Li3 Sb1'
_cell_volume   104.84253633
_cell_formula_units_Z   1
loop_
 _symmetry_equiv_pos_site_id
 _symmetry_equiv_pos_as_xyz
  1  'x, y, z'
loop_
 _atom_site_type_symbol
 _atom_site_label
 _atom_site_symmetry_multiplicity
 _atom_site_fract_x
 _atom_site_fract_y
 _atom_site_fract_z
 _atom_site_occupancy
  Li  Li0  1  0.79080895  0.79080898  0.62757300  1
  Li  Li1  1  0.20919099  0.20919100  0.37242700  1
  Li  Li2  1  0.59752896  0.59752899  0.20741301  1
  Sb  Sb3  1  0.40247098  0.40247099  0.79258699  1
