# generated using pymatgen
data_Ce2Al6Fe3Si
_symmetry_space_group_name_H-M   'P 1'
_cell_length_a   5.06721210
_cell_length_b   5.06721163
_cell_length_c   8.01649475
_cell_angle_alpha   90.00000000
_cell_angle_beta   90.00000000
_cell_angle_gamma   120.00000000
_symmetry_Int_Tables_number   1
_chemical_formula_structural   Ce2Al6Fe3Si
_chemical_formula_sum   'Ce2 Al6 Fe3 Si1'
_cell_volume   178.25974066
_cell_formula_units_Z   1
loop_
 _symmetry_equiv_pos_site_id
 _symmetry_equiv_pos_as_xyz
  1  'x, y, z'
loop_
 _atom_site_type_symbol
 _atom_site_label
 _atom_site_symmetry_multiplicity
 _atom_site_fract_x
 _atom_site_fract_y
 _atom_site_fract_z
 _atom_site_occupancy
  Ce  Ce0  1  0.66666664  0.33333333  0.56160802  1
  Ce  Ce1  1  0.33333330  0.66666667  0.43839201  1
  Al  Al2  1  0.33333330  0.66666667  0.06160800  1
  Al  Al3  1  0.66666664  0.33333333  0.93839203  1
  Al  Al4  1  0.83100698  0.16899200  0.25000001  1
  Si  Si5  1  0.83100696  0.66201400  0.25000001  1
  Al  Al6  1  0.66201496  0.83100800  0.75000002  1
  Al  Al7  1  0.16899297  0.83100800  0.75000002  1
  Al  Al8  1  0.33798499  0.16899200  0.25000001  1
  Fe  Fe9  1  0.00000000  0.00000000  0.00000000  1
  Fe  Fe10  1  0.16899298  0.33798600  0.75000002  1
  Fe  Fe11  1  0.00000000  0.00000000  0.50000002  1
