# generated using pymatgen
data_InGa9Sn10
_symmetry_space_group_name_H-M   'P 1'
_cell_length_a   4.10547495
_cell_length_b   4.10547495
_cell_length_c   20.48827553
_cell_angle_alpha   90.00000000
_cell_angle_beta   90.00000000
_cell_angle_gamma   90.00000000
_symmetry_Int_Tables_number   1
_chemical_formula_structural   InGa9Sn10
_chemical_formula_sum   'In1 Ga9 Sn10'
_cell_volume   345.32833830
_cell_formula_units_Z   1
loop_
 _symmetry_equiv_pos_site_id
 _symmetry_equiv_pos_as_xyz
  1  'x, y, z'
loop_
 _atom_site_type_symbol
 _atom_site_label
 _atom_site_symmetry_multiplicity
 _atom_site_fract_x
 _atom_site_fract_y
 _atom_site_fract_z
 _atom_site_occupancy
  Sn  Sn0  1  0.00000000  0.00000000  0.20054199  1
  Ga  Ga1  1  0.00000000  0.00000000  0.39995899  1
  Ga  Ga2  1  0.00000000  0.00000000  0.60004098  1
  Ga  Ga3  1  0.00000000  0.00000000  0.79945798  1
  Ga  Ga4  1  0.50000001  0.50000001  0.00000000  1
  In  In5  1  0.50000001  0.50000001  0.19957199  1
  Ga  Ga6  1  0.50000001  0.50000001  0.39998699  1
  Ga  Ga7  1  0.50000001  0.50000001  0.60001298  1
  Ga  Ga8  1  0.50000001  0.50000001  0.80042798  1
  Sn  Sn9  1  0.50000001  0.00000000  0.10019700  1
  Sn  Sn10  1  0.50000001  0.00000000  0.30019899  1
  Ga  Ga11  1  0.50000001  0.00000000  0.49999999  1
  Sn  Sn12  1  0.50000001  0.00000000  0.69980098  1
  Sn  Sn13  1  0.50000001  0.00000000  0.89980298  1
  Sn  Sn14  1  0.00000000  0.50000001  0.10019700  1
  Sn  Sn15  1  0.00000000  0.50000001  0.30019899  1
  Sn  Sn16  1  0.00000000  0.50000001  0.49999999  1
  Sn  Sn17  1  0.00000000  0.50000001  0.69980098  1
  Sn  Sn18  1  0.00000000  0.50000001  0.89980298  1
  Ga  Ga19  1  0.00000000  0.00000000  0.00000000  1
