# generated using pymatgen
data_BaScP4
_symmetry_space_group_name_H-M   'P 1'
_cell_length_a   4.22589588
_cell_length_b   4.22589588
_cell_length_c   7.53346586
_cell_angle_alpha   90.00000000
_cell_angle_beta   90.00000000
_cell_angle_gamma   90.00000000
_symmetry_Int_Tables_number   1
_chemical_formula_structural   BaScP4
_chemical_formula_sum   'Ba1 Sc1 P4'
_cell_volume   134.53410995
_cell_formula_units_Z   1
loop_
 _symmetry_equiv_pos_site_id
 _symmetry_equiv_pos_as_xyz
  1  'x, y, z'
loop_
 _atom_site_type_symbol
 _atom_site_label
 _atom_site_symmetry_multiplicity
 _atom_site_fract_x
 _atom_site_fract_y
 _atom_site_fract_z
 _atom_site_occupancy
  Ba  Ba0  1  0.50000001  0.00000000  0.81821801  1
  Sc  Sc1  1  0.00000000  0.50000001  0.18178200  1
  P  P2  1  0.50000001  0.50000001  0.00000000  1
  P  P3  1  0.00000000  0.00000000  0.00000000  1
  P  P4  1  0.00000000  0.50000001  0.65847501  1
  P  P5  1  0.50000001  0.00000000  0.34152501  1
