# generated using pymatgen
data_Fe5(B2N3)2
_symmetry_space_group_name_H-M   'P 1'
_cell_length_a   4.16287994
_cell_length_b   6.46870470
_cell_length_c   6.46870422
_cell_angle_alpha   84.05715179
_cell_angle_beta   71.22995758
_cell_angle_gamma   71.22994232
_symmetry_Int_Tables_number   1
_chemical_formula_structural   Fe5(B2N3)2
_chemical_formula_sum   'Fe5 B4 N6'
_cell_volume   156.15688551
_cell_formula_units_Z   1
loop_
 _symmetry_equiv_pos_site_id
 _symmetry_equiv_pos_as_xyz
  1  'x, y, z'
loop_
 _atom_site_type_symbol
 _atom_site_label
 _atom_site_symmetry_multiplicity
 _atom_site_fract_x
 _atom_site_fract_y
 _atom_site_fract_z
 _atom_site_occupancy
  Fe  Fe0  1  0.18652297  0.50000001  0.18454202  1
  Fe  Fe1  1  0.87106599  0.50000001  0.81545797  1
  Fe  Fe2  1  0.31347595  0.81545801  0.50000002  1
  Fe  Fe3  1  0.62893501  0.18454200  0.49999997  1
  Fe  Fe4  1  0.70554295  0.87334101  0.71568200  1
  B  B5  1  0.29456600  0.12665900  0.28431799  1
  B  B6  1  0.79445700  0.28431800  0.12665898  1
  B  B7  1  0.20543395  0.71568201  0.87334101  1
  B  B8  1  0.57877496  0.71568201  0.12665901  1
  N  N9  1  0.42111599  0.28431800  0.87334098  1
  N  N10  1  0.07888399  0.12665900  0.71568199  1
  N  N11  1  0.92122496  0.87334101  0.28431801  1
  N  N12  1  0.74999999  0.50000001  0.49999999  1
  N  N13  1  0.25000001  0.00000000  -0.00000001  1
  N  N14  1  0.75000002  0.00000000  -0.00000003  1
