# generated using pymatgen
data_MgMnGa10
_symmetry_space_group_name_H-M   'P 1'
_cell_length_a   6.84333992
_cell_length_b   7.47260427
_cell_length_c   6.84333992
_cell_angle_alpha   62.74862671
_cell_angle_beta   90.00000000
_cell_angle_gamma   117.25137329
_symmetry_Int_Tables_number   1
_chemical_formula_structural   MgMnGa10
_chemical_formula_sum   'Mg1 Mn1 Ga10'
_cell_volume   266.66783405
_cell_formula_units_Z   1
loop_
 _symmetry_equiv_pos_site_id
 _symmetry_equiv_pos_as_xyz
  1  'x, y, z'
loop_
 _atom_site_type_symbol
 _atom_site_label
 _atom_site_symmetry_multiplicity
 _atom_site_fract_x
 _atom_site_fract_y
 _atom_site_fract_z
 _atom_site_occupancy
  Mg  Mg0  1  0.50000001  0.00000000  0.50000001  1
  Mn  Mn1  1  0.00000000  0.00000000  0.00000000  1
  Ga  Ga2  1  0.70504098  0.72028698  0.79495904  1
  Ga  Ga3  1  0.51524597  0.72028698  0.29495904  1
  Ga  Ga4  1  0.20504097  0.72028698  0.98475404  1
  Ga  Ga5  1  0.79495900  0.27971299  0.01524601  1
  Ga  Ga6  1  0.48475399  0.27971299  0.70504102  1
  Ga  Ga7  1  0.29495899  0.27971299  0.20504101  1
  Ga  Ga8  1  0.98475400  0.27971299  0.51524602  1
  Ga  Ga9  1  0.01524597  0.72028698  0.48475404  1
  Ga  Ga10  1  0.74999999  0.49999998  0.25000002  1
  Ga  Ga11  1  0.24999998  0.49999998  0.75000003  1
