# generated using pymatgen
data_Ce2Al5SiP3
_symmetry_space_group_name_H-M   'P 1'
_cell_length_a   4.08937407
_cell_length_b   6.49022388
_cell_length_c   7.77399015
_cell_angle_alpha   114.67256165
_cell_angle_beta   105.24912262
_cell_angle_gamma   90.00000000
_symmetry_Int_Tables_number   1
_chemical_formula_structural   Ce2Al5SiP3
_chemical_formula_sum   'Ce2 Al5 Si1 P3'
_cell_volume   179.46753543
_cell_formula_units_Z   1
loop_
 _symmetry_equiv_pos_site_id
 _symmetry_equiv_pos_as_xyz
  1  'x, y, z'
loop_
 _atom_site_type_symbol
 _atom_site_label
 _atom_site_symmetry_multiplicity
 _atom_site_fract_x
 _atom_site_fract_y
 _atom_site_fract_z
 _atom_site_occupancy
  Ce  Ce0  1  0.12872101  0.62872101  0.25744200  1
  Ce  Ce1  1  0.87127900  0.37127900  0.74255801  1
  Al  Al2  1  0.00000000  0.00000000  0.00000000  1
  Al  Al3  1  0.66916200  0.36073900  0.33832401  1
  Al  Al4  1  0.33083801  0.63926101  0.66167600  1
  Al  Al5  1  0.66916301  0.97758601  0.33832500  1
  Al  Al6  1  0.33083700  0.02241400  0.66167501  1
  Si  Si7  1  0.78391701  0.78391701  0.56783401  1
  P  P8  1  0.21608300  0.21608300  0.43216600  1
  P  P9  1  0.50000000  0.31434400  0.00000000  1
  P  P10  1  0.50000001  0.68565601  1.00000001  1
