# generated using pymatgen
data_Cs3SrBrO9
_symmetry_space_group_name_H-M   'P 1'
_cell_length_a   6.03389978
_cell_length_b   6.03389931
_cell_length_c   7.88732576
_cell_angle_alpha   90.00000000
_cell_angle_beta   90.00000000
_cell_angle_gamma   120.00000000
_symmetry_Int_Tables_number   1
_chemical_formula_structural   Cs3SrBrO9
_chemical_formula_sum   'Cs3 Sr1 Br1 O9'
_cell_volume   248.68899166
_cell_formula_units_Z   1
loop_
 _symmetry_equiv_pos_site_id
 _symmetry_equiv_pos_as_xyz
  1  'x, y, z'
loop_
 _atom_site_type_symbol
 _atom_site_label
 _atom_site_symmetry_multiplicity
 _atom_site_fract_x
 _atom_site_fract_y
 _atom_site_fract_z
 _atom_site_occupancy
  Sr  Sr0  1  0.33333330  0.66666666  0.69313802  1
  Cs  Cs1  1  0.66666667  0.33333333  0.30686201  1
  Cs  Cs2  1  0.00000000  0.00000000  0.00000000  1
  Cs  Cs3  1  0.00000000  0.00000000  0.50000001  1
  Br  Br4  1  0.33333330  0.66666666  0.25619901  1
  O  O5  1  0.66666667  0.33333333  0.74380102  1
  O  O6  1  0.33333330  0.66666666  0.04265100  1
  O  O7  1  0.66666667  0.33333333  0.95734903  1
  O  O8  1  0.17414995  0.82584899  0.33315401  1
  O  O9  1  0.82585002  0.17415100  0.66684602  1
  O  O10  1  0.17414998  0.34829999  0.33315401  1
  O  O11  1  0.82584999  0.65169999  0.66684602  1
  O  O12  1  0.65169897  0.82584899  0.33315401  1
  O  O13  1  0.34830100  0.17415100  0.66684602  1
