# generated using pymatgen
data_Ce2Co7
_symmetry_space_group_name_H-M   'P 1'
_cell_length_a   5.03474903
_cell_length_b   5.03474951
_cell_length_c   12.54537487
_cell_angle_alpha   78.42434692
_cell_angle_beta   78.42434692
_cell_angle_gamma   59.99999619
_symmetry_Int_Tables_number   1
_chemical_formula_structural   Ce2Co7
_chemical_formula_sum   'Ce4 Co14'
_cell_volume   267.90906185
_cell_formula_units_Z   2
loop_
 _symmetry_equiv_pos_site_id
 _symmetry_equiv_pos_as_xyz
  1  'x, y, z'
loop_
 _atom_site_type_symbol
 _atom_site_label
 _atom_site_symmetry_multiplicity
 _atom_site_fract_x
 _atom_site_fract_y
 _atom_site_fract_z
 _atom_site_occupancy
  Ce  Ce0  1  0.05047600  0.05047600  0.84857099  1
  Ce  Ce1  1  0.94952399  0.94952404  0.15142896  1
  Ce  Ce2  1  0.14747700  0.14747701  0.55756799  1
  Ce  Ce3  1  0.85252299  0.85252304  0.44243196  1
  Co  Co4  1  0.49999999  0.50000002  0.49999998  1
  Co  Co5  1  0.27842600  0.27842601  0.16472099  1
  Co  Co6  1  0.72157399  0.72157403  0.83527896  1
  Co  Co7  1  0.38804199  0.38804202  0.83587398  1
  Co  Co8  1  0.61195799  0.61195803  0.16412597  1
  Co  Co9  1  0.49999998  1.00000005  -0.00000003  1
  Co  Co10  1  -0.00000001  0.50000002  -0.00000001  1
  Co  Co11  1  0.49999999  0.50000002  0.99999997  1
  Co  Co12  1  0.60854499  0.60854503  0.67422897  1
  Co  Co13  1  0.60854500  0.10868201  0.67422898  1
  Co  Co14  1  0.10868199  0.60854503  0.67422898  1
  Co  Co15  1  0.39145499  0.39145502  0.32577098  1
  Co  Co16  1  0.39145499  0.89131804  0.32577097  1
  Co  Co17  1  0.89131800  0.39145502  0.32577097  1
