# generated using pymatgen
data_Mn2P
_symmetry_space_group_name_H-M   'P 1'
_cell_length_a   3.18353605
_cell_length_b   4.55047607
_cell_length_c   6.78721666
_cell_angle_alpha   80.77307892
_cell_angle_beta   76.43640900
_cell_angle_gamma   69.52476501
_symmetry_Int_Tables_number   1
_chemical_formula_structural   Mn2P
_chemical_formula_sum   'Mn4 P2'
_cell_volume   89.21134880
_cell_formula_units_Z   2
loop_
 _symmetry_equiv_pos_site_id
 _symmetry_equiv_pos_as_xyz
  1  'x, y, z'
loop_
 _atom_site_type_symbol
 _atom_site_label
 _atom_site_symmetry_multiplicity
 _atom_site_fract_x
 _atom_site_fract_y
 _atom_site_fract_z
 _atom_site_occupancy
  Mn  Mn0  1  0.86209699  0.25155801  0.02424799  1
  Mn  Mn1  1  0.13790301  0.74844203  0.97575202  1
  Mn  Mn2  1  0.60052400  0.19842301  0.60052900  1
  Mn  Mn3  1  0.39947601  0.80157704  0.39947100  1
  P  P4  1  0.15804401  0.39115902  0.29275300  1
  P  P5  1  0.84195600  0.60884103  0.70724700  1
