# generated using pymatgen
data_Tb6DyLuIn3Cu5
_symmetry_space_group_name_H-M   'P 1'
_cell_length_a   4.26458597
_cell_length_b   6.82360697
_cell_length_c   13.78351307
_cell_angle_alpha   90.00000000
_cell_angle_beta   90.00000000
_cell_angle_gamma   90.00000000
_symmetry_Int_Tables_number   1
_chemical_formula_structural   Tb6DyLuIn3Cu5
_chemical_formula_sum   'Tb6 Dy1 Lu1 In3 Cu5'
_cell_volume   401.09828067
_cell_formula_units_Z   1
loop_
 _symmetry_equiv_pos_site_id
 _symmetry_equiv_pos_as_xyz
  1  'x, y, z'
loop_
 _atom_site_type_symbol
 _atom_site_label
 _atom_site_symmetry_multiplicity
 _atom_site_fract_x
 _atom_site_fract_y
 _atom_site_fract_z
 _atom_site_occupancy
  Lu  Lu0  1  0.72049600  0.29356400  0.37262300  1
  Dy  Dy1  1  0.22049600  0.20643600  0.62737700  1
  Tb  Tb2  1  0.27950400  0.79356400  0.12737700  1
  Tb  Tb3  1  0.77950401  0.70643600  0.87262300  1
  Tb  Tb4  1  0.00738600  0.70681500  0.62715000  1
  Tb  Tb5  1  0.99261401  0.20681500  0.87285000  1
  Tb  Tb6  1  0.50738600  0.79318500  0.37285000  1
  Tb  Tb7  1  0.49261400  0.29318500  0.12715000  1
  Cu  Cu8  1  0.22827700  0.48956500  0.47330900  1
  Cu  Cu9  1  0.72827700  0.01043500  0.52669100  1
  In  In10  1  0.77172301  0.98956500  0.02669100  1
  In  In11  1  0.27172300  0.51043500  0.97330900  1
  Cu  Cu12  1  0.22280500  0.08837000  0.27434200  1
  In  In13  1  0.27719500  0.91163000  0.77434200  1
  Cu  Cu14  1  0.77719501  0.58837000  0.22565800  1
  Cu  Cu15  1  0.72280500  0.41163000  0.72565800  1
