# generated using pymatgen
data_Ca5BeO11
_symmetry_space_group_name_H-M   'P 1'
_cell_length_a   3.98083806
_cell_length_b   5.75800419
_cell_length_c   11.46003723
_cell_angle_alpha   104.54977417
_cell_angle_beta   100.00205231
_cell_angle_gamma   90.00000000
_symmetry_Int_Tables_number   1
_chemical_formula_structural   Ca5BeO11
_chemical_formula_sum   'Ca5 Be1 O11'
_cell_volume   250.13220601
_cell_formula_units_Z   1
loop_
 _symmetry_equiv_pos_site_id
 _symmetry_equiv_pos_as_xyz
  1  'x, y, z'
loop_
 _atom_site_type_symbol
 _atom_site_label
 _atom_site_symmetry_multiplicity
 _atom_site_fract_x
 _atom_site_fract_y
 _atom_site_fract_z
 _atom_site_occupancy
  Ca  Ca0  1  0.79515997  0.79515996  0.59031995  1
  Ca  Ca1  1  0.20483999  0.20483999  0.40967998  1
  Ca  Ca2  1  -0.00000001  0.49999998  -0.00000001  1
  Ca  Ca3  1  0.36495499  0.36495498  0.72990996  1
  Ca  Ca4  1  0.63504498  0.63504497  0.27008997  1
  Be  Be5  1  0.49999999  0.00000000  -0.00000000  1
  O  O6  1  0.44053698  0.67694297  0.88107495  1
  O  O7  1  0.44053799  0.20413199  0.88107596  1
  O  O8  1  0.69460597  0.93211196  0.38921196  1
  O  O9  1  0.30539398  0.54289998  0.61078796  1
  O  O10  1  0.55946298  0.32305699  0.11892498  1
  O  O11  1  0.55946197  0.79586796  0.11892397  1
  O  O12  1  0.00000000  0.00000000  0.00000000  1
  O  O13  1  0.87985698  0.37985698  0.75971396  1
  O  O14  1  0.12014298  0.62014297  0.24028597  1
  O  O15  1  0.30539399  0.06788800  0.61078797  1
  O  O16  1  0.69460598  0.45709998  0.38921197  1
