# generated using pymatgen
data_NbFe7Mo6
_symmetry_space_group_name_H-M   'P 1'
_cell_length_a   6.31315088
_cell_length_b   6.66137218
_cell_length_c   6.66137171
_cell_angle_alpha   120.00000000
_cell_angle_beta   90.00000000
_cell_angle_gamma   90.00000000
_symmetry_Int_Tables_number   1
_chemical_formula_structural   NbFe7Mo6
_chemical_formula_sum   'Nb1 Fe7 Mo6'
_cell_volume   242.60746959
_cell_formula_units_Z   1
loop_
 _symmetry_equiv_pos_site_id
 _symmetry_equiv_pos_as_xyz
  1  'x, y, z'
loop_
 _atom_site_type_symbol
 _atom_site_label
 _atom_site_symmetry_multiplicity
 _atom_site_fract_x
 _atom_site_fract_y
 _atom_site_fract_z
 _atom_site_occupancy
  Nb  Nb0  1  0.50000001  0.66666664  0.33333331  1
  Fe  Fe1  1  0.50000001  0.33333332  0.66666665  1
  Fe  Fe2  1  0.13023800  0.00000000  0.33723500  1
  Fe  Fe3  1  0.13023800  0.66276497  0.66276497  1
  Fe  Fe4  1  0.13023800  0.33723498  0.99999998  1
  Fe  Fe5  1  0.86976202  0.00000000  0.66276500  1
  Fe  Fe6  1  0.86976202  0.33723498  0.33723499  1
  Fe  Fe7  1  0.86976202  0.66276497  0.99999997  1
  Mo  Mo8  1  0.25185900  0.66721397  -0.00000002  1
  Mo  Mo9  1  0.25185900  0.00000000  0.66721400  1
  Mo  Mo10  1  0.25185900  0.33278599  0.33278599  1
  Mo  Mo11  1  0.74814101  0.33278599  -0.00000001  1
  Mo  Mo12  1  0.74814101  0.00000000  0.33278600  1
  Mo  Mo13  1  0.74814101  0.66721397  0.66721397  1
