# generated using pymatgen
data_DyErLu5(SnGe3)2
_symmetry_space_group_name_H-M   'P 1'
_cell_length_a   3.70550394
_cell_length_b   10.99853516
_cell_length_c   10.99810696
_cell_angle_alpha   60.00720978
_cell_angle_beta   89.99900055
_cell_angle_gamma   89.99916840
_symmetry_Int_Tables_number   1
_chemical_formula_structural   DyErLu5(SnGe3)2
_chemical_formula_sum   'Dy1 Er1 Lu5 Sn2 Ge6'
_cell_volume   388.20600088
_cell_formula_units_Z   1
loop_
 _symmetry_equiv_pos_site_id
 _symmetry_equiv_pos_as_xyz
  1  'x, y, z'
loop_
 _atom_site_type_symbol
 _atom_site_label
 _atom_site_symmetry_multiplicity
 _atom_site_fract_x
 _atom_site_fract_y
 _atom_site_fract_z
 _atom_site_occupancy
  Er  Er0  1  0.50000001  0.00000000  1.00000003  1
  Dy  Dy1  1  0.25212705  0.61213401  0.89937201  1
  Lu  Lu2  1  0.25211808  0.89933902  0.48847799  1
  Lu  Lu3  1  0.25214104  0.48850701  0.61215000  1
  Lu  Lu4  1  0.74787304  0.38786601  0.10062799  1
  Lu  Lu5  1  0.74788202  0.10066100  0.51152201  1
  Lu  Lu6  1  0.74785905  0.51149301  0.38785000  1
  Ge  Ge7  1  0.24507908  0.93453802  0.72124499  1
  Ge  Ge8  1  0.24505806  0.72126401  0.34420299  1
  Ge  Ge9  1  0.24508803  0.34418501  0.93453402  1
  Ge  Ge10  1  0.75492102  0.06546200  0.27875501  1
  Ge  Ge11  1  0.75494203  0.27873600  0.65579701  1
  Ge  Ge12  1  0.75491207  0.65581501  0.06546598  1
  Sn  Sn13  1  0.24926203  0.33333334  0.33333333  1
  Sn  Sn14  1  0.75073807  0.66666668  0.66666667  1
