# generated using pymatgen
data_Se
_symmetry_space_group_name_H-M   'P 1'
_cell_length_a   3.36251402
_cell_length_b   3.36251354
_cell_length_c   39.74253082
_cell_angle_alpha   90.00000000
_cell_angle_beta   90.00000000
_cell_angle_gamma   120.00000763
_symmetry_Int_Tables_number   1
_chemical_formula_structural   Se
_chemical_formula_sum   Se12
_cell_volume   389.14751707
_cell_formula_units_Z   12
loop_
 _symmetry_equiv_pos_site_id
 _symmetry_equiv_pos_as_xyz
  1  'x, y, z'
loop_
 _atom_site_type_symbol
 _atom_site_label
 _atom_site_symmetry_multiplicity
 _atom_site_fract_x
 _atom_site_fract_y
 _atom_site_fract_z
 _atom_site_occupancy
  Se  Se0  1  0.66666668  0.33333334  0.04781200  1
  Se  Se1  1  0.33333337  0.66666668  0.95218800  1
  Se  Se2  1  0.33333337  0.66666668  0.85718600  1
  Se  Se3  1  0.66666668  0.33333334  0.14281400  1
  Se  Se4  1  0.66666668  0.33333334  0.28189600  1
  Se  Se5  1  0.66666668  0.33333334  0.90466400  1
  Se  Se6  1  0.33333337  0.66666668  0.09533600  1
  Se  Se7  1  0.33333337  0.66666668  0.71810400  1
  Se  Se8  1  0.66666668  0.33333334  0.67998300  1
  Se  Se9  1  0.33333337  0.66666668  0.32001700  1
  Se  Se10  1  0.33333337  0.66666668  0.24384300  1
  Se  Se11  1  0.66666668  0.33333334  0.75615700  1
