# generated using pymatgen
data_CsK4MnSnS11
_symmetry_space_group_name_H-M   'P 1'
_cell_length_a   7.76597500
_cell_length_b   7.76597500
_cell_length_c   10.72351837
_cell_angle_alpha   90.00000000
_cell_angle_beta   90.00000000
_cell_angle_gamma   90.00000000
_symmetry_Int_Tables_number   1
_chemical_formula_structural   CsK4MnSnS11
_chemical_formula_sum   'Cs1 K4 Mn1 Sn1 S11'
_cell_volume   646.73933578
_cell_formula_units_Z   1
loop_
 _symmetry_equiv_pos_site_id
 _symmetry_equiv_pos_as_xyz
  1  'x, y, z'
loop_
 _atom_site_type_symbol
 _atom_site_label
 _atom_site_symmetry_multiplicity
 _atom_site_fract_x
 _atom_site_fract_y
 _atom_site_fract_z
 _atom_site_occupancy
  K  K0  1  0.50000000  0.00000000  0.77930897  1
  Cs  Cs1  1  0.00000000  0.50000000  0.22069099  1
  K  K2  1  0.50000000  0.00000000  0.22069099  1
  K  K3  1  0.00000000  0.50000000  0.77930897  1
  K  K4  1  0.00000000  0.00000000  0.00000000  1
  Mn  Mn5  1  0.50000000  0.50000000  0.49999998  1
  S  S6  1  0.00000000  0.00000000  0.74553897  1
  Sn  Sn7  1  0.50000000  0.50000000  0.27407199  1
  S  S8  1  0.72020500  0.72020500  0.49999998  1
  S  S9  1  0.24785300  0.24785300  -0.00000000  1
  S  S10  1  0.72020500  0.27979500  0.49999998  1
  S  S11  1  0.24785300  0.75214700  0.00000000  1
  S  S12  1  0.00000000  0.00000000  0.25446099  1
  S  S13  1  0.50000000  0.50000000  0.72592797  1
  S  S14  1  0.27979500  0.27979500  0.49999998  1
  S  S15  1  0.75214700  0.75214700  0.00000000  1
  S  S16  1  0.27979500  0.72020500  0.49999998  1
  S  S17  1  0.75214700  0.24785300  0.00000000  1
