# generated using pymatgen
data_Li6FeO7
_symmetry_space_group_name_H-M   'P 1'
_cell_length_a   5.11817598
_cell_length_b   5.71607924
_cell_length_c   6.22633934
_cell_angle_alpha   90.00000000
_cell_angle_beta   89.92370605
_cell_angle_gamma   90.00000000
_symmetry_Int_Tables_number   1
_chemical_formula_structural   Li6FeO7
_chemical_formula_sum   'Li6 Fe1 O7'
_cell_volume   182.15699625
_cell_formula_units_Z   1
loop_
 _symmetry_equiv_pos_site_id
 _symmetry_equiv_pos_as_xyz
  1  'x, y, z'
loop_
 _atom_site_type_symbol
 _atom_site_label
 _atom_site_symmetry_multiplicity
 _atom_site_fract_x
 _atom_site_fract_y
 _atom_site_fract_z
 _atom_site_occupancy
  Li  Li0  1  0.99578900  0.66070497  0.75100804  1
  Li  Li1  1  0.49578900  0.33929499  0.25100802  1
  Li  Li2  1  0.99533900  0.17221399  0.99694305  1
  Li  Li3  1  0.49533900  0.82778597  0.49694302  1
  Li  Li4  1  0.49957000  0.84839097  0.00063301  1
  Li  Li5  1  0.99957000  0.15160899  0.50063303  1
  O  O6  1  0.84502800  0.87299596  0.97900704  1
  Fe  Fe7  1  0.35784300  0.13175799  0.02399701  1
  O  O8  1  0.37978400  0.71185697  0.76295803  1
  O  O9  1  0.93189700  0.32204099  0.73515604  1
  O  O10  1  0.85784300  0.86824196  0.52399703  1
  O  O11  1  0.34502800  0.12700399  0.47900702  1
  O  O12  1  0.87978400  0.28814299  0.26295802  1
  O  O13  1  0.43189700  0.67795897  0.23515601  1
