# generated using pymatgen
data_HfSn
_symmetry_space_group_name_H-M   'P 1'
_cell_length_a   6.10976410
_cell_length_b   6.10976410
_cell_length_c   9.55051899
_cell_angle_alpha   90.00000000
_cell_angle_beta   90.00000000
_cell_angle_gamma   120.00000000
_symmetry_Int_Tables_number   1
_chemical_formula_structural   HfSn
_chemical_formula_sum   'Hf8 Sn8'
_cell_volume   308.74966044
_cell_formula_units_Z   8
loop_
 _symmetry_equiv_pos_site_id
 _symmetry_equiv_pos_as_xyz
  1  'x, y, z'
loop_
 _atom_site_type_symbol
 _atom_site_label
 _atom_site_symmetry_multiplicity
 _atom_site_fract_x
 _atom_site_fract_y
 _atom_site_fract_z
 _atom_site_occupancy
  Hf  Hf0  1  0.66666666  0.33333334  0.25000000  1
  Hf  Hf1  1  0.33333334  0.66666668  0.75000000  1
  Hf  Hf2  1  0.00000000  0.00000000  0.00000000  1
  Hf  Hf3  1  0.00000000  0.00000000  0.50000000  1
  Hf  Hf4  1  0.18362500  0.36725001  0.25000000  1
  Hf  Hf5  1  0.18362501  0.81637501  0.25000000  1
  Hf  Hf6  1  0.63275000  0.81637501  0.25000000  1
  Hf  Hf7  1  0.81637500  0.63275001  0.75000000  1
  Sn  Sn8  1  0.81637499  0.18362500  0.75000000  1
  Sn  Sn9  1  0.36725000  0.18362500  0.75000000  1
  Sn  Sn10  1  0.49999999  0.00000000  -0.00000000  1
  Sn  Sn11  1  0.50000000  0.50000001  1.00000000  1
  Sn  Sn12  1  0.00000001  0.50000001  -0.00000000  1
  Sn  Sn13  1  0.49999999  0.00000000  0.50000000  1
  Sn  Sn14  1  0.50000000  0.50000001  0.50000000  1
  Sn  Sn15  1  0.00000001  0.50000001  0.50000000  1
