# generated using pymatgen
data_B
_symmetry_space_group_name_H-M   'P 1'
_cell_length_a   3.58802605
_cell_length_b   3.75243640
_cell_length_c   3.75243640
_cell_angle_alpha   106.04700470
_cell_angle_beta   90.00000000
_cell_angle_gamma   90.00000000
_symmetry_Int_Tables_number   1
_chemical_formula_structural   B
_chemical_formula_sum   B4
_cell_volume   48.55361627
_cell_formula_units_Z   4
loop_
 _symmetry_equiv_pos_site_id
 _symmetry_equiv_pos_as_xyz
  1  'x, y, z'
loop_
 _atom_site_type_symbol
 _atom_site_label
 _atom_site_symmetry_multiplicity
 _atom_site_fract_x
 _atom_site_fract_y
 _atom_site_fract_z
 _atom_site_occupancy
  B  B0  1  -0.00000000  0.99776296  0.00223695  1
  B  B1  1  0.49999999  0.61465897  0.38534096  1
  B  B2  1  0.49999999  0.15099899  0.54342098  1
  B  B3  1  0.49999999  0.45657898  0.84900095  1
