# generated using pymatgen
data_Li5Mn2Br7
_symmetry_space_group_name_H-M   'P 1'
_cell_length_a   8.14585781
_cell_length_b   8.14585781
_cell_length_c   8.14585781
_cell_angle_alpha   60.00000000
_cell_angle_beta   60.00000000
_cell_angle_gamma   60.00000000
_symmetry_Int_Tables_number   1
_chemical_formula_structural   Li5Mn2Br7
_chemical_formula_sum   'Li5 Mn2 Br7'
_cell_volume   382.20421948
_cell_formula_units_Z   1
loop_
 _symmetry_equiv_pos_site_id
 _symmetry_equiv_pos_as_xyz
  1  'x, y, z'
loop_
 _atom_site_type_symbol
 _atom_site_label
 _atom_site_symmetry_multiplicity
 _atom_site_fract_x
 _atom_site_fract_y
 _atom_site_fract_z
 _atom_site_occupancy
  Li  Li0  1  0.37499998  0.87499995  0.87499995  1
  Li  Li1  1  0.87499995  0.87499995  0.37499998  1
  Li  Li2  1  0.87499995  0.37499998  0.87499995  1
  Li  Li3  1  0.87499995  0.87499995  0.87499995  1
  Li  Li4  1  0.24999999  0.24999999  0.24999999  1
  Mn  Mn5  1  0.49999997  0.49999997  0.49999997  1
  Br  Br6  1  0.11201299  0.11201199  0.66396297  1
  Mn  Mn7  1  0.08603600  0.63798797  0.63798797  1
  Br  Br8  1  0.11201299  0.66396297  0.11201199  1
  Br  Br9  1  0.11201299  0.11201199  0.11201199  1
  Br  Br10  1  0.63798697  0.08603700  0.63798797  1
  Br  Br11  1  0.63798697  0.63798797  0.63798797  1
  Br  Br12  1  0.63798697  0.63798797  0.08603700  1
  Br  Br13  1  0.66396397  0.11201199  0.11201199  1
