# generated using pymatgen
data_BaO2
_symmetry_space_group_name_H-M   'P 1'
_cell_length_a   5.47894812
_cell_length_b   5.47894859
_cell_length_c   8.04460621
_cell_angle_alpha   90.00000000
_cell_angle_beta   90.00000000
_cell_angle_gamma   119.99999237
_symmetry_Int_Tables_number   1
_chemical_formula_structural   BaO2
_chemical_formula_sum   'Ba4 O8'
_cell_volume   209.13651578
_cell_formula_units_Z   4
loop_
 _symmetry_equiv_pos_site_id
 _symmetry_equiv_pos_as_xyz
  1  'x, y, z'
loop_
 _atom_site_type_symbol
 _atom_site_label
 _atom_site_symmetry_multiplicity
 _atom_site_fract_x
 _atom_site_fract_y
 _atom_site_fract_z
 _atom_site_occupancy
  Ba  Ba0  1  -0.00000003  0.50000000  0.33333332  1
  Ba  Ba1  1  0.49999996  0.50000000  -0.00000000  1
  Ba  Ba2  1  0.49999999  0.00000000  0.66666665  1
  Ba  Ba3  1  0.49999999  0.00000000  0.16666700  1
  O  O4  1  -0.00000003  0.50000000  0.83333298  1
  O  O5  1  0.49999996  0.50000000  0.49999999  1
  O  O6  1  0.84627397  0.15372500  -0.00000000  1
  O  O7  1  0.15372598  0.30745200  0.66666665  1
  O  O8  1  0.15372594  0.84627499  -0.00000000  1
  O  O9  1  0.30745098  0.15372500  0.33333332  1
  O  O10  1  0.69254893  0.84627499  0.33333332  1
  O  O11  1  0.84627394  0.69254799  0.66666665  1
