# generated using pymatgen
data_Li3Ca3Mg
_symmetry_space_group_name_H-M   'P 1'
_cell_length_a   4.30946016
_cell_length_b   4.30946016
_cell_length_c   14.11805058
_cell_angle_alpha   81.22107697
_cell_angle_beta   81.22107697
_cell_angle_gamma   59.99999619
_symmetry_Int_Tables_number   1
_chemical_formula_structural   Li3Ca3Mg
_chemical_formula_sum   'Li3 Ca3 Mg1'
_cell_volume   223.51154513
_cell_formula_units_Z   1
loop_
 _symmetry_equiv_pos_site_id
 _symmetry_equiv_pos_as_xyz
  1  'x, y, z'
loop_
 _atom_site_type_symbol
 _atom_site_label
 _atom_site_symmetry_multiplicity
 _atom_site_fract_x
 _atom_site_fract_y
 _atom_site_fract_z
 _atom_site_occupancy
  Li  Li0  1  0.42954304  0.42954301  0.71137097  1
  Li  Li1  1  0.57347205  0.57347202  0.27958397  1
  Ca  Ca2  1  0.00201200  0.00201200  0.99396398  1
  Li  Li3  1  0.13023001  0.13023000  0.60930998  1
  Ca  Ca4  1  0.86583507  0.86583503  0.40249496  1
  Ca  Ca5  1  0.28863002  0.28863001  0.13410999  1
  Mg  Mg6  1  0.71027906  0.71027902  0.86916295  1
