# generated using pymatgen
data_Nd4HfZrNi12
_symmetry_space_group_name_H-M   'P 1'
_cell_length_a   6.63448000
_cell_length_b   6.63448000
_cell_length_c   7.86912012
_cell_angle_alpha   90.00000000
_cell_angle_beta   90.00000000
_cell_angle_gamma   120.00000000
_symmetry_Int_Tables_number   1
_chemical_formula_structural   Nd4HfZrNi12
_chemical_formula_sum   'Nd4 Hf1 Zr1 Ni12'
_cell_volume   299.96500056
_cell_formula_units_Z   1
loop_
 _symmetry_equiv_pos_site_id
 _symmetry_equiv_pos_as_xyz
  1  'x, y, z'
loop_
 _atom_site_type_symbol
 _atom_site_label
 _atom_site_symmetry_multiplicity
 _atom_site_fract_x
 _atom_site_fract_y
 _atom_site_fract_z
 _atom_site_occupancy
  Nd  Nd0  1  0.58172399  0.58172398  0.49999999  1
  Nd  Nd1  1  -0.00000001  0.41827598  0.49999999  1
  Nd  Nd2  1  0.41827600  0.00000000  0.49999999  1
  Nd  Nd3  1  0.37616300  0.00000000  0.99999998  1
  Zr  Zr4  1  -0.00000001  0.37616299  -0.00000000  1
  Hf  Hf5  1  0.24933100  0.24933099  0.22304500  1
  Ni  Ni6  1  0.62383699  0.62383698  -0.00000000  1
  Ni  Ni7  1  -0.00000001  0.75066897  0.22304500  1
  Ni  Ni8  1  0.24933100  0.24933099  0.77695499  1
  Ni  Ni9  1  -0.00000001  0.75066897  0.77695499  1
  Ni  Ni10  1  0.75066900  0.00000000  0.22304500  1
  Ni  Ni11  1  0.75066900  0.00000000  0.77695499  1
  Ni  Ni12  1  0.00000000  0.00000000  0.00000000  1
  Ni  Ni13  1  0.33333332  0.66666664  0.76209899  1
  Ni  Ni14  1  0.33333332  0.66666664  0.23790100  1
  Ni  Ni15  1  0.00000000  0.00000000  0.49999999  1
  Ni  Ni16  1  0.66666666  0.33333332  0.23790100  1
  Ni  Ni17  1  0.66666666  0.33333332  0.76209899  1
