# generated using pymatgen
data_SrCa5(MgP2)2
_symmetry_space_group_name_H-M   'P 1'
_cell_length_a   4.40141010
_cell_length_b   4.40141010
_cell_length_c   20.47163773
_cell_angle_alpha   90.00000000
_cell_angle_beta   90.00000000
_cell_angle_gamma   120.00000000
_symmetry_Int_Tables_number   1
_chemical_formula_structural   SrCa5(MgP2)2
_chemical_formula_sum   'Sr1 Ca5 Mg2 P4'
_cell_volume   343.45266544
_cell_formula_units_Z   1
loop_
 _symmetry_equiv_pos_site_id
 _symmetry_equiv_pos_as_xyz
  1  'x, y, z'
loop_
 _atom_site_type_symbol
 _atom_site_label
 _atom_site_symmetry_multiplicity
 _atom_site_fract_x
 _atom_site_fract_y
 _atom_site_fract_z
 _atom_site_occupancy
  Ca  Ca0  1  0.00000000  0.00000000  0.49999998  1
  Sr  Sr1  1  0.00000000  0.00000000  0.00000000  1
  Ca  Ca2  1  0.00000000  0.00000000  0.74999997  1
  Ca  Ca3  1  0.00000000  0.00000000  0.24999999  1
  Ca  Ca4  1  0.66666666  0.33333334  0.63499898  1
  Ca  Ca5  1  0.33333334  0.66666667  0.36500099  1
  Mg  Mg6  1  0.33333334  0.66666667  0.13499900  1
  Mg  Mg7  1  0.66666666  0.33333334  0.86500097  1
  P  P8  1  0.66666666  0.33333334  0.11628100  1
  P  P9  1  0.33333334  0.66666667  0.88371897  1
  P  P10  1  0.33333334  0.66666667  0.61628098  1
  P  P11  1  0.66666666  0.33333334  0.38371899  1
