# generated using pymatgen
data_Ba7SrSiP10
_symmetry_space_group_name_H-M   'P 1'
_cell_length_a   8.94064522
_cell_length_b   8.94064522
_cell_length_c   9.45123672
_cell_angle_alpha   117.47545624
_cell_angle_beta   117.47545624
_cell_angle_gamma   91.40766907
_symmetry_Int_Tables_number   1
_chemical_formula_structural   Ba7SrSiP10
_chemical_formula_sum   'Ba7 Sr1 Si1 P10'
_cell_volume   566.97505912
_cell_formula_units_Z   1
loop_
 _symmetry_equiv_pos_site_id
 _symmetry_equiv_pos_as_xyz
  1  'x, y, z'
loop_
 _atom_site_type_symbol
 _atom_site_label
 _atom_site_symmetry_multiplicity
 _atom_site_fract_x
 _atom_site_fract_y
 _atom_site_fract_z
 _atom_site_occupancy
  Ba  Ba0  1  0.75393897  0.75393899  0.49999989  1
  Ba  Ba1  1  0.25393899  0.25393900  0.49999998  1
  Ba  Ba2  1  0.35945200  0.14991000  1.00000000  1
  Ba  Ba3  1  0.64990997  0.85945199  0.99999991  1
  Ba  Ba4  1  0.15397297  0.65397300  -0.00000007  1
  Ba  Ba5  1  0.24936397  0.74936499  0.50097793  1
  Ba  Ba6  1  0.74838599  0.24838600  0.49902194  1
  Sr  Sr7  1  0.77417399  0.46854100  -0.00000010  1
  Si  Si8  1  0.96854099  0.27417400  -0.00000009  1
  P  P9  1  0.98396597  0.78483899  0.28338587  1
  P  P10  1  0.28483898  0.48396600  0.28338594  1
  P  P11  1  0.80264199  0.30264200  0.30092793  1
  P  P12  1  0.49337096  0.99337099  0.29522888  1
  P  P13  1  0.00145199  0.20058000  0.71661401  1
  P  P14  1  0.70057998  0.50145200  0.71661393  1
  P  P15  1  0.19814197  0.69814200  0.70477095  1
  P  P16  1  0.50171400  0.00171400  0.69907199  1
  P  P17  1  0.50837498  0.49686100  0.99999995  1
  P  P18  1  0.99686100  0.00837500  -0.00000007  1
