# generated using pymatgen
data_CePr(NdNi6)2
_symmetry_space_group_name_H-M   'P 1'
_cell_length_a   3.90872407
_cell_length_b   3.90872407
_cell_length_c   17.98260498
_cell_angle_alpha   90.00000000
_cell_angle_beta   90.00000000
_cell_angle_gamma   90.00000000
_symmetry_Int_Tables_number   1
_chemical_formula_structural   CePr(NdNi6)2
_chemical_formula_sum   'Ce1 Pr1 Nd2 Ni12'
_cell_volume   274.74046608
_cell_formula_units_Z   1
loop_
 _symmetry_equiv_pos_site_id
 _symmetry_equiv_pos_as_xyz
  1  'x, y, z'
loop_
 _atom_site_type_symbol
 _atom_site_label
 _atom_site_symmetry_multiplicity
 _atom_site_fract_x
 _atom_site_fract_y
 _atom_site_fract_z
 _atom_site_occupancy
  Ce  Ce0  1  0.49999999  0.00000000  0.62575000  1
  Pr  Pr1  1  0.49999999  0.00000000  0.07021200  1
  Nd  Nd2  1  0.00000000  0.49999999  0.92978800  1
  Nd  Nd3  1  0.00000000  0.49999999  0.37425000  1
  Ni  Ni4  1  0.00000000  0.00000000  0.76893800  1
  Ni  Ni5  1  0.49999999  0.49999999  0.76893800  1
  Ni  Ni6  1  0.00000000  0.00000000  0.23106200  1
  Ni  Ni7  1  0.49999999  0.49999999  0.23106200  1
  Ni  Ni8  1  0.00000000  0.49999999  0.14858600  1
  Ni  Ni9  1  0.00000000  0.49999999  0.67699800  1
  Ni  Ni10  1  0.49999999  0.00000000  0.32300200  1
  Ni  Ni11  1  0.49999999  0.00000000  0.85141400  1
  Ni  Ni12  1  0.49999999  0.49999999  0.50000000  1
  Ni  Ni13  1  0.00000000  0.00000000  0.50000000  1
  Ni  Ni14  1  0.49999999  0.49999999  -0.00000000  1
  Ni  Ni15  1  0.00000000  0.00000000  0.00000000  1
