# generated using pymatgen
data_Nd(AlC)2
_symmetry_space_group_name_H-M   'P 1'
_cell_length_a   3.75281596
_cell_length_b   5.53863907
_cell_length_c   6.74288607
_cell_angle_alpha   90.00000000
_cell_angle_beta   90.00000000
_cell_angle_gamma   109.80287170
_symmetry_Int_Tables_number   1
_chemical_formula_structural   Nd(AlC)2
_chemical_formula_sum   'Nd2 Al4 C4'
_cell_volume   131.86602293
_cell_formula_units_Z   2
loop_
 _symmetry_equiv_pos_site_id
 _symmetry_equiv_pos_as_xyz
  1  'x, y, z'
loop_
 _atom_site_type_symbol
 _atom_site_label
 _atom_site_symmetry_multiplicity
 _atom_site_fract_x
 _atom_site_fract_y
 _atom_site_fract_z
 _atom_site_occupancy
  Nd  Nd0  1  0.45065607  0.90131201  0.74999999  1
  Nd  Nd1  1  0.54934401  0.09868800  0.25000000  1
  Al  Al2  1  0.16554703  0.33109400  0.93727499  1
  Al  Al3  1  0.83445306  0.66890601  0.06272500  1
  Al  Al4  1  0.83445306  0.66890601  0.43727500  1
  Al  Al5  1  0.16554703  0.33109400  0.56272499  1
  C  C6  1  0.73096404  0.46192800  0.74999999  1
  C  C7  1  0.26903604  0.53807201  0.25000000  1
  C  C8  1  0.00000000  0.00000000  0.00000000  1
  C  C9  1  0.00000000  0.00000000  0.50000000  1
