# generated using pymatgen
data_TiNi18
_symmetry_space_group_name_H-M   'P 1'
_cell_length_a   4.79494810
_cell_length_b   6.38964701
_cell_length_c   8.70895672
_cell_angle_alpha   87.82359314
_cell_angle_beta   74.76322174
_cell_angle_gamma   82.87879181
_symmetry_Int_Tables_number   1
_chemical_formula_structural   TiNi18
_chemical_formula_sum   'Ti1 Ni18'
_cell_volume   255.45583435
_cell_formula_units_Z   1
loop_
 _symmetry_equiv_pos_site_id
 _symmetry_equiv_pos_as_xyz
  1  'x, y, z'
loop_
 _atom_site_type_symbol
 _atom_site_label
 _atom_site_symmetry_multiplicity
 _atom_site_fract_x
 _atom_site_fract_y
 _atom_site_fract_z
 _atom_site_occupancy
  Ti  Ti0  1  0.41381703  0.45309900  0.30067997  1
  Ni  Ni1  1  0.58618303  0.54690100  0.69931996  1
  Ni  Ni2  1  0.04135701  0.12573700  0.70942699  1
  Ni  Ni3  1  0.95864305  0.87426300  0.29057294  1
  Ni  Ni4  1  0.59839001  0.18726100  0.52315097  1
  Ni  Ni5  1  0.40161005  0.81273900  0.47684896  1
  Ni  Ni6  1  0.31017104  0.66305200  0.03253197  1
  Ni  Ni7  1  0.68982902  0.33694800  0.96746796  1
  Ni  Ni8  1  0.00994502  0.29366600  0.17262599  1
  Ni  Ni9  1  0.99005504  0.70633400  0.82737394  1
  Ni  Ni10  1  0.49157800  0.00795100  0.16548098  1
  Ni  Ni11  1  0.50842206  0.99204900  0.83451895  1
  Ni  Ni12  1  0.22684202  0.35249700  0.88002997  1
  Ni  Ni13  1  0.77315804  0.64750300  0.11996996  1
  Ni  Ni14  1  0.13950801  0.15616200  0.41737499  1
  Ni  Ni15  1  0.86049205  0.84383800  0.58262495  1
  Ni  Ni16  1  0.00000000  0.00000000  0.00000000  1
  Ni  Ni17  1  0.16546503  0.48089500  0.58596098  1
  Ni  Ni18  1  0.83453503  0.51910500  0.41403896  1
