# generated using pymatgen
data_Li2V2N5
_symmetry_space_group_name_H-M   'P 1'
_cell_length_a   4.08399582
_cell_length_b   4.89547348
_cell_length_c   4.89547348
_cell_angle_alpha   79.98018646
_cell_angle_beta   65.34712982
_cell_angle_gamma   65.34712982
_symmetry_Int_Tables_number   1
_chemical_formula_structural   Li2V2N5
_chemical_formula_sum   'Li2 V2 N5'
_cell_volume   80.84639162
_cell_formula_units_Z   1
loop_
 _symmetry_equiv_pos_site_id
 _symmetry_equiv_pos_as_xyz
  1  'x, y, z'
loop_
 _atom_site_type_symbol
 _atom_site_label
 _atom_site_symmetry_multiplicity
 _atom_site_fract_x
 _atom_site_fract_y
 _atom_site_fract_z
 _atom_site_occupancy
  Li  Li0  1  0.38699800  0.83104497  0.39495904  1
  Li  Li1  1  0.61300202  0.16895499  0.60504099  1
  V  V2  1  0.78195702  0.60504098  0.83104502  1
  V  V3  1  0.21804300  0.39495898  0.16895502  1
  N  N4  1  0.06747500  0.19778899  0.66726199  1
  N  N5  1  0.93252502  0.80221097  0.33273805  1
  N  N6  1  0.73473602  0.33273799  0.19779002  1
  N  N7  1  0.26526400  0.66726197  0.80221002  1
  N  N8  1  0.00000000  0.00000000  0.00000000  1
