# generated using pymatgen
data_Li9CaMg4
_symmetry_space_group_name_H-M   'P 1'
_cell_length_a   4.30460596
_cell_length_b   8.61516666
_cell_length_c   8.64645672
_cell_angle_alpha   75.40438080
_cell_angle_beta   75.58620453
_cell_angle_gamma   75.53271484
_symmetry_Int_Tables_number   1
_chemical_formula_structural   Li9CaMg4
_chemical_formula_sum   'Li9 Ca1 Mg4'
_cell_volume   294.48864281
_cell_formula_units_Z   1
loop_
 _symmetry_equiv_pos_site_id
 _symmetry_equiv_pos_as_xyz
  1  'x, y, z'
loop_
 _atom_site_type_symbol
 _atom_site_label
 _atom_site_symmetry_multiplicity
 _atom_site_fract_x
 _atom_site_fract_y
 _atom_site_fract_z
 _atom_site_occupancy
  Li  Li0  1  0.50000000  0.00000000  0.00000001  1
  Li  Li1  1  0.82828906  0.65813696  0.68528500  1
  Li  Li2  1  0.17171103  0.34186298  0.31471500  1
  Li  Li3  1  0.64051701  0.12832899  0.59063700  1
  Ca  Ca4  1  0.17139006  0.68195696  0.97526298  1
  Li  Li5  1  0.82861003  0.31804298  0.02473702  1
  Mg  Mg6  1  0.35948308  0.87167094  0.40936300  1
  Li  Li7  1  0.83083601  0.06927500  0.26905301  1
  Li  Li8  1  0.62278005  0.59859996  0.15584001  1
  Mg  Mg9  1  0.50000004  0.49999997  0.50000000  1
  Li  Li10  1  0.16916408  0.93072494  0.73094699  1
  Mg  Mg11  1  0.98307806  0.70650495  0.32733901  1
  Li  Li12  1  0.01692203  0.29349498  0.67266099  1
  Mg  Mg13  1  0.37722004  0.40139997  0.84415999  1
