# generated using pymatgen
data_K2Ca
_symmetry_space_group_name_H-M   'P 1'
_cell_length_a   4.52047873
_cell_length_b   4.52047873
_cell_length_c   11.40528870
_cell_angle_alpha   78.56974792
_cell_angle_beta   78.56974792
_cell_angle_gamma   59.99998856
_symmetry_Int_Tables_number   1
_chemical_formula_structural   K2Ca
_chemical_formula_sum   'K2 Ca1'
_cell_volume   196.48364781
_cell_formula_units_Z   1
loop_
 _symmetry_equiv_pos_site_id
 _symmetry_equiv_pos_as_xyz
  1  'x, y, z'
loop_
 _atom_site_type_symbol
 _atom_site_label
 _atom_site_symmetry_multiplicity
 _atom_site_fract_x
 _atom_site_fract_y
 _atom_site_fract_z
 _atom_site_occupancy
  K  K0  1  0.00000000  0.00000000  0.00000000  1
  Ca  Ca1  1  0.77779902  0.77779901  0.66660301  1
  K  K2  1  0.22220101  0.22220100  0.33339701  1
