# generated using pymatgen
data_Li8MnO3
_symmetry_space_group_name_H-M   'P 1'
_cell_length_a   4.01223516
_cell_length_b   7.82836008
_cell_length_c   7.83330154
_cell_angle_alpha   67.50601196
_cell_angle_beta   75.76169586
_cell_angle_gamma   75.71138000
_symmetry_Int_Tables_number   1
_chemical_formula_structural   Li8MnO3
_chemical_formula_sum   'Li8 Mn1 O3'
_cell_volume   217.10926708
_cell_formula_units_Z   1
loop_
 _symmetry_equiv_pos_site_id
 _symmetry_equiv_pos_as_xyz
  1  'x, y, z'
loop_
 _atom_site_type_symbol
 _atom_site_label
 _atom_site_symmetry_multiplicity
 _atom_site_fract_x
 _atom_site_fract_y
 _atom_site_fract_z
 _atom_site_occupancy
  Li  Li0  1  0.17853407  0.80827301  0.30896593  1
  Li  Li1  1  0.80587704  0.19269700  0.69196296  1
  Li  Li2  1  0.49573507  0.68923001  0.80899992  1
  Li  Li3  1  0.49600004  0.30902700  0.18928597  1
  Li  Li4  1  0.59054005  0.39972601  0.90017794  1
  Li  Li5  1  0.37444909  0.94553801  0.79975891  1
  Li  Li6  1  0.37441504  0.30125000  0.44468996  1
  Li  Li7  1  0.99610508  0.69483401  0.80248191  1
  Mn  Mn8  1  0.99666705  0.30225100  0.19458896  1
  O  O9  1  0.61482007  0.69614201  0.55388893  1
  O  O10  1  0.61425302  0.05304400  0.19768498  1
  O  O11  1  0.40510006  0.59903101  0.09855795  1
