# generated using pymatgen
data_TmLuGa6
_symmetry_space_group_name_H-M   'P 1'
_cell_length_a   4.60261679
_cell_length_b   6.21224785
_cell_length_c   6.21224833
_cell_angle_alpha   120.00000000
_cell_angle_beta   90.00000000
_cell_angle_gamma   90.00000000
_symmetry_Int_Tables_number   1
_chemical_formula_structural   TmLuGa6
_chemical_formula_sum   'Tm1 Lu1 Ga6'
_cell_volume   153.82716311
_cell_formula_units_Z   1
loop_
 _symmetry_equiv_pos_site_id
 _symmetry_equiv_pos_as_xyz
  1  'x, y, z'
loop_
 _atom_site_type_symbol
 _atom_site_label
 _atom_site_symmetry_multiplicity
 _atom_site_fract_x
 _atom_site_fract_y
 _atom_site_fract_z
 _atom_site_occupancy
  Tm  Tm0  1  0.25000001  0.66666670  0.33333336  1
  Lu  Lu1  1  0.75000003  0.33333335  0.66666668  1
  Ga  Ga2  1  0.75000003  0.84930504  0.15069403  1
  Ga  Ga3  1  0.75000003  0.30138901  0.15069401  1
  Ga  Ga4  1  0.75000003  0.84930504  0.69861004  1
  Ga  Ga5  1  0.25000001  0.15069501  0.84930601  1
  Ga  Ga6  1  0.25000001  0.69861103  0.84930603  1
  Ga  Ga7  1  0.25000001  0.15069501  0.30139001  1
