# generated using pymatgen
data_YbCe(InPd)2
_symmetry_space_group_name_H-M   'P 1'
_cell_length_a   4.70683193
_cell_length_b   4.70683193
_cell_length_c   7.67244005
_cell_angle_alpha   90.00000000
_cell_angle_beta   90.00000000
_cell_angle_gamma   120.00000000
_symmetry_Int_Tables_number   1
_chemical_formula_structural   YbCe(InPd)2
_chemical_formula_sum   'Yb1 Ce1 In2 Pd2'
_cell_volume   147.20464618
_cell_formula_units_Z   1
loop_
 _symmetry_equiv_pos_site_id
 _symmetry_equiv_pos_as_xyz
  1  'x, y, z'
loop_
 _atom_site_type_symbol
 _atom_site_label
 _atom_site_symmetry_multiplicity
 _atom_site_fract_x
 _atom_site_fract_y
 _atom_site_fract_z
 _atom_site_occupancy
  Ce  Ce0  1  0.00000000  0.00000000  0.25444700  1
  Yb  Yb1  1  0.00000000  0.00000000  0.75444699  1
  In  In2  1  0.33333333  0.66666666  0.03418300  1
  In  In3  1  0.66666667  0.33333333  0.53418300  1
  Pd  Pd4  1  0.66666667  0.33333333  0.93736999  1
  Pd  Pd5  1  0.33333333  0.66666666  0.43737000  1
