# generated using pymatgen
data_MoS2
_symmetry_space_group_name_H-M   'P 1'
_cell_length_a   3.36023808
_cell_length_b   3.36023855
_cell_length_c   23.86941910
_cell_angle_alpha   90.00000000
_cell_angle_beta   90.00000000
_cell_angle_gamma   119.99999237
_symmetry_Int_Tables_number   1
_chemical_formula_structural   MoS2
_chemical_formula_sum   'Mo2 S4'
_cell_volume   233.40635349
_cell_formula_units_Z   2
loop_
 _symmetry_equiv_pos_site_id
 _symmetry_equiv_pos_as_xyz
  1  'x, y, z'
loop_
 _atom_site_type_symbol
 _atom_site_label
 _atom_site_symmetry_multiplicity
 _atom_site_fract_x
 _atom_site_fract_y
 _atom_site_fract_z
 _atom_site_occupancy
  Mo  Mo0  1  0.66666663  0.33333331  0.46937102  1
  Mo  Mo1  1  0.66666663  0.33333331  0.62781802  1
  S  S2  1  0.66666663  0.33333331  0.84955003  1
  S  S3  1  0.33333328  0.66666663  0.54855902  1
  S  S4  1  0.33333328  0.66666663  0.91294303  1
  S  S5  1  0.33333328  0.66666663  0.78615503  1
