# generated using pymatgen
data_Li3FeO6
_symmetry_space_group_name_H-M   'P 1'
_cell_length_a   5.22615623
_cell_length_b   5.57849312
_cell_length_c   7.49186277
_cell_angle_alpha   90.00000000
_cell_angle_beta   90.00000000
_cell_angle_gamma   90.00000000
_symmetry_Int_Tables_number   1
_chemical_formula_structural   Li3FeO6
_chemical_formula_sum   'Li6 Fe2 O12'
_cell_volume   218.41834112
_cell_formula_units_Z   2
loop_
 _symmetry_equiv_pos_site_id
 _symmetry_equiv_pos_as_xyz
  1  'x, y, z'
loop_
 _atom_site_type_symbol
 _atom_site_label
 _atom_site_symmetry_multiplicity
 _atom_site_fract_x
 _atom_site_fract_y
 _atom_site_fract_z
 _atom_site_occupancy
  Li  Li0  1  0.01957600  0.92616698  0.25000001  1
  Li  Li1  1  0.48042398  0.42616699  0.25000001  1
  Li  Li2  1  0.51957598  0.57383299  0.75000002  1
  Li  Li3  1  0.98042396  0.07383300  0.75000002  1
  Li  Li4  1  0.00000000  0.49999999  -0.00000000  1
  Li  Li5  1  0.00000000  0.49999999  0.50000002  1
  Fe  Fe6  1  0.49999998  0.00000000  0.00000000  1
  Fe  Fe7  1  0.49999998  0.00000000  0.50000002  1
  O  O8  1  0.09977700  0.47140999  0.75000002  1
  O  O9  1  0.19350499  0.19977400  0.44944701  1
  O  O10  1  0.19350499  0.19977400  0.05055300  1
  O  O11  1  0.30649499  0.69977399  0.44944701  1
  O  O12  1  0.30649499  0.69977399  0.05055300  1
  O  O13  1  0.40022298  0.97140998  0.75000002  1
  O  O14  1  0.59977697  0.02859000  0.25000001  1
  O  O15  1  0.69350497  0.30022599  0.94944703  1
  O  O16  1  0.69350497  0.30022599  0.55055302  1
  O  O17  1  0.80649496  0.80022598  0.94944703  1
  O  O18  1  0.80649496  0.80022598  0.55055302  1
  O  O19  1  0.90022296  0.52858999  0.25000001  1
