# generated using pymatgen
data_HfTiNi12
_symmetry_space_group_name_H-M   'P 1'
_cell_length_a   3.76711512
_cell_length_b   6.88188314
_cell_length_c   6.88188314
_cell_angle_alpha   90.00000000
_cell_angle_beta   90.00000000
_cell_angle_gamma   90.00000000
_symmetry_Int_Tables_number   1
_chemical_formula_structural   HfTiNi12
_chemical_formula_sum   'Hf1 Ti1 Ni12'
_cell_volume   178.41176085
_cell_formula_units_Z   1
loop_
 _symmetry_equiv_pos_site_id
 _symmetry_equiv_pos_as_xyz
  1  'x, y, z'
loop_
 _atom_site_type_symbol
 _atom_site_label
 _atom_site_symmetry_multiplicity
 _atom_site_fract_x
 _atom_site_fract_y
 _atom_site_fract_z
 _atom_site_occupancy
  Ti  Ti0  1  0.99999997  0.49999999  0.49999999  1
  Hf  Hf1  1  0.49999998  0.00000000  0.00000000  1
  Ni  Ni2  1  0.49999998  0.59038799  0.14790200  1
  Ni  Ni3  1  0.49999998  0.40961199  0.85209798  1
  Ni  Ni4  1  0.00000000  0.09038800  0.35209799  1
  Ni  Ni5  1  0.99999997  0.90961198  0.64790199  1
  Ni  Ni6  1  0.49999998  0.14790200  0.59038799  1
  Ni  Ni7  1  0.49999998  0.85209798  0.40961199  1
  Ni  Ni8  1  0.00000000  0.35209799  0.09038800  1
  Ni  Ni9  1  0.99999997  0.64790199  0.90961198  1
  Ni  Ni10  1  0.49999998  0.71733798  0.71733798  1
  Ni  Ni11  1  0.49999998  0.28266199  0.28266199  1
  Ni  Ni12  1  0.00000000  0.21733800  0.78266198  1
  Ni  Ni13  1  0.00000000  0.78266198  0.21733800  1
