# generated using pymatgen
data_LiFeO3
_symmetry_space_group_name_H-M   'P 1'
_cell_length_a   6.48998070
_cell_length_b   6.48998070
_cell_length_c   6.48998070
_cell_angle_alpha   109.47122192
_cell_angle_beta   109.47122192
_cell_angle_gamma   109.47122192
_symmetry_Int_Tables_number   1
_chemical_formula_structural   LiFeO3
_chemical_formula_sum   'Li4 Fe4 O12'
_cell_volume   210.43031433
_cell_formula_units_Z   4
loop_
 _symmetry_equiv_pos_site_id
 _symmetry_equiv_pos_as_xyz
  1  'x, y, z'
loop_
 _atom_site_type_symbol
 _atom_site_label
 _atom_site_symmetry_multiplicity
 _atom_site_fract_x
 _atom_site_fract_y
 _atom_site_fract_z
 _atom_site_occupancy
  Li  Li0  1  0.00000000  0.00000000  0.00000000  1
  Li  Li1  1  0.50000002  0.50000001  0.50000003  1
  Li  Li2  1  0.00000000  0.00000000  0.49999999  1
  Li  Li3  1  0.00000003  0.50000001  0.00000003  1
  Fe  Fe4  1  0.50000005  1.00000001  1.00000004  1
  Fe  Fe5  1  0.50000002  0.50000001  0.00000004  1
  Fe  Fe6  1  0.49999999  0.00000000  0.50000000  1
  Fe  Fe7  1  0.00000003  0.50000001  0.50000001  1
  O  O8  1  0.46970401  0.30477700  0.16492702  1
  O  O9  1  0.13985002  0.30477700  0.83507300  1
  O  O10  1  0.86015003  0.69522301  0.16492705  1
  O  O11  1  0.53029603  0.69522301  0.83507303  1
  O  O12  1  0.30477705  0.83507301  0.13985005  1
  O  O13  1  0.30477700  0.16492700  0.46970400  1
  O  O14  1  0.69522304  0.83507301  0.53029605  1
  O  O15  1  0.69522300  0.16492700  0.86015000  1
  O  O16  1  0.16492705  0.86015001  0.69522303  1
  O  O17  1  0.83507302  0.53029601  0.69522303  1
  O  O18  1  0.16492703  0.46970401  0.30477702  1
  O  O19  1  0.83507299  0.13985000  0.30477702  1
