# generated using pymatgen
data_CaNiO4
_symmetry_space_group_name_H-M   'P 1'
_cell_length_a   5.98177290
_cell_length_b   5.98177290
_cell_length_c   5.98177290
_cell_angle_alpha   106.30846405
_cell_angle_beta   106.30846405
_cell_angle_gamma   116.00075531
_symmetry_Int_Tables_number   1
_chemical_formula_structural   CaNiO4
_chemical_formula_sum   'Ca2 Ni2 O8'
_cell_volume   163.14337206
_cell_formula_units_Z   2
loop_
 _symmetry_equiv_pos_site_id
 _symmetry_equiv_pos_as_xyz
  1  'x, y, z'
loop_
 _atom_site_type_symbol
 _atom_site_label
 _atom_site_symmetry_multiplicity
 _atom_site_fract_x
 _atom_site_fract_y
 _atom_site_fract_z
 _atom_site_occupancy
  Ca  Ca0  1  0.74999996  0.24999998  0.49999999  1
  Ca  Ca1  1  0.00000000  0.00000000  0.00000000  1
  Ni  Ni2  1  0.49999996  0.49999997  0.00000001  1
  Ni  Ni3  1  0.24999995  0.74999995  0.49999998  1
  O  O4  1  0.13792698  0.32319698  0.81472997  1
  O  O5  1  0.07319695  0.75846695  0.68526997  1
  O  O6  1  0.07319698  0.38792698  0.31472899  1
  O  O7  1  0.50846797  0.32319798  0.18527100  1
  O  O8  1  0.61207293  0.92680294  0.68526998  1
  O  O9  1  0.67680295  0.49153297  0.81472998  1
  O  O10  1  0.67680293  0.86207295  0.18527100  1
  O  O11  1  0.24153194  0.92680194  0.31472899  1
