# generated using pymatgen
data_NdSn
_symmetry_space_group_name_H-M   'P 1'
_cell_length_a   4.52505589
_cell_length_b   6.10755348
_cell_length_c   8.47452831
_cell_angle_alpha   90.00000000
_cell_angle_beta   90.00000000
_cell_angle_gamma   111.74321747
_symmetry_Int_Tables_number   1
_chemical_formula_structural   NdSn
_chemical_formula_sum   'Nd4 Sn4'
_cell_volume   217.54742222
_cell_formula_units_Z   4
loop_
 _symmetry_equiv_pos_site_id
 _symmetry_equiv_pos_as_xyz
  1  'x, y, z'
loop_
 _atom_site_type_symbol
 _atom_site_label
 _atom_site_symmetry_multiplicity
 _atom_site_fract_x
 _atom_site_fract_y
 _atom_site_fract_z
 _atom_site_occupancy
  Nd  Nd0  1  0.55901601  0.11803200  0.24999999  1
  Nd  Nd1  1  0.44098399  0.88196802  0.74999997  1
  Nd  Nd2  1  0.16076499  0.32153001  0.94426097  1
  Nd  Nd3  1  0.83923500  0.67847001  0.05573900  1
  Sn  Sn4  1  0.16076499  0.32153001  0.55573898  1
  Sn  Sn5  1  0.83923500  0.67847001  0.44426098  1
  Sn  Sn6  1  0.27710799  0.55421601  0.24999999  1
  Sn  Sn7  1  0.72289201  0.44578401  0.74999997  1
