# generated using pymatgen
data_Tl3GeS2
_symmetry_space_group_name_H-M   'P 1'
_cell_length_a   4.35154581
_cell_length_b   4.35154676
_cell_length_c   24.49222755
_cell_angle_alpha   90.00000000
_cell_angle_beta   90.00000000
_cell_angle_gamma   119.99999237
_symmetry_Int_Tables_number   1
_chemical_formula_structural   Tl3GeS2
_chemical_formula_sum   'Tl6 Ge2 S4'
_cell_volume   401.64851520
_cell_formula_units_Z   2
loop_
 _symmetry_equiv_pos_site_id
 _symmetry_equiv_pos_as_xyz
  1  'x, y, z'
loop_
 _atom_site_type_symbol
 _atom_site_label
 _atom_site_symmetry_multiplicity
 _atom_site_fract_x
 _atom_site_fract_y
 _atom_site_fract_z
 _atom_site_occupancy
  Tl  Tl0  1  0.00000000  0.00000000  0.86868402  1
  Tl  Tl1  1  0.00000000  0.00000000  0.13131600  1
  Tl  Tl2  1  0.66666667  0.33333330  0.70723301  1
  Tl  Tl3  1  0.33333330  0.66666661  0.29276701  1
  Ge  Ge4  1  0.66666667  0.33333330  0.46824501  1
  Tl  Tl5  1  0.33333330  0.66666661  0.53175501  1
  Ge  Ge6  1  0.66666667  0.33333330  0.93784702  1
  Tl  Tl7  1  0.33333330  0.66666661  0.06215300  1
  S  S8  1  0.66666667  0.33333330  0.21233300  1
  S  S9  1  0.33333330  0.66666661  0.78766701  1
  S  S10  1  0.00000000  0.00000000  0.63729201  1
  S  S11  1  0.00000000  0.00000000  0.36270801  1
