# generated using pymatgen
data_LiCa2Cu5O8
_symmetry_space_group_name_H-M   'P 1'
_cell_length_a   5.94216919
_cell_length_b   5.94216919
_cell_length_c   5.94216919
_cell_angle_alpha   90.00000000
_cell_angle_beta   90.00000000
_cell_angle_gamma   90.00000000
_symmetry_Int_Tables_number   1
_chemical_formula_structural   LiCa2Cu5O8
_chemical_formula_sum   'Li1 Ca2 Cu5 O8'
_cell_volume   209.81427830
_cell_formula_units_Z   1
loop_
 _symmetry_equiv_pos_site_id
 _symmetry_equiv_pos_as_xyz
  1  'x, y, z'
loop_
 _atom_site_type_symbol
 _atom_site_label
 _atom_site_symmetry_multiplicity
 _atom_site_fract_x
 _atom_site_fract_y
 _atom_site_fract_z
 _atom_site_occupancy
  Ca  Ca0  1  0.49999998  0.49999998  0.49999998  1
  Ca  Ca1  1  0.00000000  0.00000000  0.00000000  1
  Li  Li2  1  0.49999998  0.00000000  0.74999998  1
  Cu  Cu3  1  0.49999998  0.00000000  0.24999999  1
  Cu  Cu4  1  0.74999998  0.49999998  0.00000000  1
  Cu  Cu5  1  0.00000000  0.74999998  0.49999998  1
  Cu  Cu6  1  0.00000000  0.24999999  0.49999998  1
  Cu  Cu7  1  0.24999999  0.49999998  0.00000000  1
  O  O8  1  0.74999998  0.74999998  0.74999998  1
  O  O9  1  0.74999998  0.24999999  0.74999998  1
  O  O10  1  0.74999998  0.74999998  0.24999999  1
  O  O11  1  0.74999998  0.24999999  0.24999999  1
  O  O12  1  0.24999999  0.74999998  0.74999998  1
  O  O13  1  0.24999999  0.74999998  0.24999999  1
  O  O14  1  0.24999999  0.24999999  0.74999998  1
  O  O15  1  0.24999999  0.24999999  0.24999999  1
