# generated using pymatgen
data_Ce2Al2Pd7
_symmetry_space_group_name_H-M   'P 1'
_cell_length_a   4.13110924
_cell_length_b   7.70215988
_cell_length_c   7.70215988
_cell_angle_alpha   120.00000000
_cell_angle_beta   90.00000000
_cell_angle_gamma   90.00000000
_symmetry_Int_Tables_number   1
_chemical_formula_structural   Ce2Al2Pd7
_chemical_formula_sum   'Ce2 Al2 Pd7'
_cell_volume   212.23762137
_cell_formula_units_Z   1
loop_
 _symmetry_equiv_pos_site_id
 _symmetry_equiv_pos_as_xyz
  1  'x, y, z'
loop_
 _atom_site_type_symbol
 _atom_site_label
 _atom_site_symmetry_multiplicity
 _atom_site_fract_x
 _atom_site_fract_y
 _atom_site_fract_z
 _atom_site_occupancy
  Ce  Ce0  1  -0.00000000  0.33333334  0.66666665  1
  Ce  Ce1  1  0.99999994  0.66666667  0.33333332  1
  Al  Al2  1  0.49999997  0.28821400  0.28821399  1
  Al  Al3  1  0.49999997  0.00000000  0.71178599  1
  Pd  Pd4  1  -0.00000000  0.81080501  0.81080498  1
  Pd  Pd5  1  -0.00000000  0.18919500  -0.00000000  1
  Pd  Pd6  1  0.49999997  0.71178601  -0.00000001  1
  Pd  Pd7  1  0.99999994  1.00000001  0.18919498  1
  Pd  Pd8  1  0.49999997  0.61850300  0.61850298  1
  Pd  Pd9  1  0.49999997  0.38149700  0.99999998  1
  Pd  Pd10  1  0.49999997  0.00000000  0.38149700  1
