# generated using pymatgen
data_CuSe
_symmetry_space_group_name_H-M   'P 1'
_cell_length_a   6.22212410
_cell_length_b   6.22212410
_cell_length_c   6.22212410
_cell_angle_alpha   90.00000000
_cell_angle_beta   90.00000000
_cell_angle_gamma   90.00000000
_symmetry_Int_Tables_number   1
_chemical_formula_structural   CuSe
_chemical_formula_sum   'Cu6 Se6'
_cell_volume   240.88846626
_cell_formula_units_Z   6
loop_
 _symmetry_equiv_pos_site_id
 _symmetry_equiv_pos_as_xyz
  1  'x, y, z'
loop_
 _atom_site_type_symbol
 _atom_site_label
 _atom_site_symmetry_multiplicity
 _atom_site_fract_x
 _atom_site_fract_y
 _atom_site_fract_z
 _atom_site_occupancy
  Cu  Cu0  1  0.12736100  0.62736099  0.87263899  1
  Cu  Cu1  1  0.62736099  0.87263899  0.12736100  1
  Cu  Cu2  1  0.87263899  0.12736100  0.62736099  1
  Cu  Cu3  1  0.37263899  0.37263899  0.37263899  1
  Cu  Cu4  1  0.47799299  0.97799298  0.52200699  1
  Cu  Cu5  1  0.97799298  0.52200699  0.47799299  1
  Se  Se6  1  0.52200699  0.47799299  0.97799298  1
  Se  Se7  1  0.02200700  0.02200700  0.02200700  1
  Se  Se8  1  0.88110599  0.38110599  0.11889400  1
  Se  Se9  1  0.38110599  0.11889400  0.88110599  1
  Se  Se10  1  0.11889400  0.88110599  0.38110599  1
  Se  Se11  1  0.61889399  0.61889399  0.61889399  1
