# generated using pymatgen
data_Ta2FeB5CN5
_symmetry_space_group_name_H-M   'P 1'
_cell_length_a   3.42745399
_cell_length_b   3.42745471
_cell_length_c   15.88766384
_cell_angle_alpha   90.00000000
_cell_angle_beta   90.00000000
_cell_angle_gamma   119.99999237
_symmetry_Int_Tables_number   1
_chemical_formula_structural   Ta2FeB5CN5
_chemical_formula_sum   'Ta2 Fe1 B5 C1 N5'
_cell_volume   161.63450080
_cell_formula_units_Z   1
loop_
 _symmetry_equiv_pos_site_id
 _symmetry_equiv_pos_as_xyz
  1  'x, y, z'
loop_
 _atom_site_type_symbol
 _atom_site_label
 _atom_site_symmetry_multiplicity
 _atom_site_fract_x
 _atom_site_fract_y
 _atom_site_fract_z
 _atom_site_occupancy
  Ta  Ta0  1  0.00000000  0.00000000  0.25000000  1
  Ta  Ta1  1  0.00000000  0.00000000  0.75000001  1
  B  B2  1  0.33333332  0.66666665  0.12212100  1
  Fe  Fe3  1  0.66666666  0.33333332  0.87787901  1
  B  B4  1  0.66666666  0.33333332  0.62212101  1
  B  B5  1  0.33333332  0.66666665  0.37787900  1
  B  B6  1  0.00000000  0.00000000  0.00000000  1
  B  B7  1  0.00000000  0.00000000  0.50000000  1
  C  C8  1  0.33333332  0.66666665  0.25000000  1
  N  N9  1  0.66666666  0.33333332  0.75000001  1
  N  N10  1  0.00000000  0.00000000  0.09076000  1
  N  N11  1  0.00000000  0.00000000  0.90924001  1
  N  N12  1  0.00000000  0.00000000  0.59076001  1
  N  N13  1  0.00000000  0.00000000  0.40924000  1
