# generated using pymatgen
data_HfNi2
_symmetry_space_group_name_H-M   'P 1'
_cell_length_a   4.79394197
_cell_length_b   4.87615156
_cell_length_c   7.75223589
_cell_angle_alpha   90.00000000
_cell_angle_beta   90.00000000
_cell_angle_gamma   119.44384003
_symmetry_Int_Tables_number   1
_chemical_formula_structural   HfNi2
_chemical_formula_sum   'Hf4 Ni8'
_cell_volume   157.80991646
_cell_formula_units_Z   4
loop_
 _symmetry_equiv_pos_site_id
 _symmetry_equiv_pos_as_xyz
  1  'x, y, z'
loop_
 _atom_site_type_symbol
 _atom_site_label
 _atom_site_symmetry_multiplicity
 _atom_site_fract_x
 _atom_site_fract_y
 _atom_site_fract_z
 _atom_site_occupancy
  Hf  Hf0  1  0.66657601  0.33315202  0.81242601  1
  Hf  Hf1  1  0.33333334  0.66666670  0.68516701  1
  Hf  Hf2  1  0.33333334  0.66666670  0.31483300  1
  Hf  Hf3  1  0.66657601  0.33315202  0.18757400  1
  Ni  Ni4  1  0.99478701  0.98957405  0.75491501  1
  Ni  Ni5  1  0.99478701  0.98957405  0.24508500  1
  Ni  Ni6  1  0.17821201  0.83739004  1.00000001  1
  Ni  Ni7  1  0.65917801  0.83739004  1.00000001  1
  Ni  Ni8  1  0.17301000  0.34602002  1.00000001  1
  Ni  Ni9  1  0.83080001  0.16999201  0.50000001  1
  Ni  Ni10  1  0.33919200  0.16999201  0.50000001  1
  Ni  Ni11  1  0.83113101  0.66226203  0.50000001  1
