# generated using pymatgen
data_PrNdHfTiNiO6
_symmetry_space_group_name_H-M   'P 1'
_cell_length_a   3.90947104
_cell_length_b   3.92181993
_cell_length_c   11.33815098
_cell_angle_alpha   99.95926666
_cell_angle_beta   90.00000000
_cell_angle_gamma   90.00000000
_symmetry_Int_Tables_number   1
_chemical_formula_structural   PrNdHfTiNiO6
_chemical_formula_sum   'Pr1 Nd1 Hf1 Ti1 Ni1 O6'
_cell_volume   171.21967627
_cell_formula_units_Z   1
loop_
 _symmetry_equiv_pos_site_id
 _symmetry_equiv_pos_as_xyz
  1  'x, y, z'
loop_
 _atom_site_type_symbol
 _atom_site_label
 _atom_site_symmetry_multiplicity
 _atom_site_fract_x
 _atom_site_fract_y
 _atom_site_fract_z
 _atom_site_occupancy
  Nd  Nd0  1  0.99999999  0.23493601  0.46987200  1
  Pr  Pr1  1  0.99999999  0.99893603  0.99787202  1
  Ti  Ti2  1  0.50000000  0.39639601  0.79279201  1
  Hf  Hf3  1  0.50000000  0.60246902  0.20493801  1
  Ni  Ni4  1  0.99999999  0.41683001  0.83366001  1
  O  O5  1  0.00000000  0.58394802  0.16789601  1
  O  O6  1  0.50000000  0.31626101  0.63252201  1
  O  O7  1  0.50000000  0.68359402  0.36718801  1
  O  O8  1  0.50000000  0.08478600  0.16957200  1
  O  O9  1  0.50000000  0.91631503  0.83263002  1
  O  O10  1  0.50000000  0.50052801  0.00105601  1
