# generated using pymatgen
data_Ca4SiP3
_symmetry_space_group_name_H-M   'P 1'
_cell_length_a   4.18046379
_cell_length_b   7.31856203
_cell_length_c   7.58950949
_cell_angle_alpha   90.00000000
_cell_angle_beta   105.98648834
_cell_angle_gamma   90.00000000
_symmetry_Int_Tables_number   1
_chemical_formula_structural   Ca4SiP3
_chemical_formula_sum   'Ca4 Si1 P3'
_cell_volume   223.22093553
_cell_formula_units_Z   1
loop_
 _symmetry_equiv_pos_site_id
 _symmetry_equiv_pos_as_xyz
  1  'x, y, z'
loop_
 _atom_site_type_symbol
 _atom_site_label
 _atom_site_symmetry_multiplicity
 _atom_site_fract_x
 _atom_site_fract_y
 _atom_site_fract_z
 _atom_site_occupancy
  Ca  Ca0  1  0.37068902  0.25000000  0.74137801  1
  Ca  Ca1  1  0.62931103  0.75000000  0.25862200  1
  Ca  Ca2  1  0.10390600  0.25000000  0.20781200  1
  Ca  Ca3  1  0.89609404  0.75000000  0.79218801  1
  P  P4  1  0.69000003  0.25000000  0.38000000  1
  Si  Si5  1  0.31000001  0.75000000  0.62000001  1
  P  P6  1  0.00000000  0.00000000  0.00000000  1
  P  P7  1  0.00000000  0.50000000  -0.00000000  1
