# generated using pymatgen
data_FeSiCN
_symmetry_space_group_name_H-M   'P 1'
_cell_length_a   3.36496782
_cell_length_b   3.36496782
_cell_length_c   6.14772987
_cell_angle_alpha   74.11689758
_cell_angle_beta   74.11689758
_cell_angle_gamma   60.00000381
_symmetry_Int_Tables_number   1
_chemical_formula_structural   FeSiCN
_chemical_formula_sum   'Fe1 Si1 C1 N1'
_cell_volume   57.19541543
_cell_formula_units_Z   1
loop_
 _symmetry_equiv_pos_site_id
 _symmetry_equiv_pos_as_xyz
  1  'x, y, z'
loop_
 _atom_site_type_symbol
 _atom_site_label
 _atom_site_symmetry_multiplicity
 _atom_site_fract_x
 _atom_site_fract_y
 _atom_site_fract_z
 _atom_site_occupancy
  Fe  Fe0  1  0.50000001  0.50000000  0.50000001  1
  Si  Si1  1  0.00000000  0.00000000  0.00000000  1
  C  C2  1  0.89413402  0.89413400  0.31759804  1
  N  N3  1  0.10586600  0.10586600  0.68240198  1
