# generated using pymatgen
data_CeInPd
_symmetry_space_group_name_H-M   'P 1'
_cell_length_a   4.62499809
_cell_length_b   7.47174406
_cell_length_c   7.47174454
_cell_angle_alpha   120.00000000
_cell_angle_beta   90.00000000
_cell_angle_gamma   90.00000000
_symmetry_Int_Tables_number   1
_chemical_formula_structural   CeInPd
_chemical_formula_sum   'Ce3 In3 Pd3'
_cell_volume   223.60741006
_cell_formula_units_Z   3
loop_
 _symmetry_equiv_pos_site_id
 _symmetry_equiv_pos_as_xyz
  1  'x, y, z'
loop_
 _atom_site_type_symbol
 _atom_site_label
 _atom_site_symmetry_multiplicity
 _atom_site_fract_x
 _atom_site_fract_y
 _atom_site_fract_z
 _atom_site_occupancy
  Ce  Ce0  1  -0.00000000  0.42647001  0.42647004  1
  Ce  Ce1  1  -0.00000000  1.00000003  0.57353009  1
  Ce  Ce2  1  -0.00000000  0.57353002  1.00000007  1
  In  In3  1  0.49999999  0.75406902  0.75406908  1
  In  In4  1  0.49999999  1.00000003  0.24593108  1
  In  In5  1  0.49999999  0.24593101  1.00000005  1
  Pd  Pd6  1  0.49999999  0.66666668  0.33333339  1
  Pd  Pd7  1  0.49999999  0.33333334  0.66666671  1
  Pd  Pd8  1  0.00000000  0.00000000  0.00000000  1
