# generated using pymatgen
data_HfAlFeCo2Ni
_symmetry_space_group_name_H-M   'P 1'
_cell_length_a   3.67381406
_cell_length_b   3.73359609
_cell_length_c   14.59969330
_cell_angle_alpha   90.00000000
_cell_angle_beta   90.00000000
_cell_angle_gamma   90.00000000
_symmetry_Int_Tables_number   1
_chemical_formula_structural   HfAlFeCo2Ni
_chemical_formula_sum   'Hf2 Al2 Fe2 Co4 Ni2'
_cell_volume   200.25724486
_cell_formula_units_Z   2
loop_
 _symmetry_equiv_pos_site_id
 _symmetry_equiv_pos_as_xyz
  1  'x, y, z'
loop_
 _atom_site_type_symbol
 _atom_site_label
 _atom_site_symmetry_multiplicity
 _atom_site_fract_x
 _atom_site_fract_y
 _atom_site_fract_z
 _atom_site_occupancy
  Fe  Fe0  1  0.00000000  0.00000000  0.10424000  1
  Hf  Hf1  1  -0.00000000  0.49999999  0.60278099  1
  Al  Al2  1  0.49999999  0.49999999  0.39631899  1
  Hf  Hf3  1  0.49999999  0.00000000  0.89809998  1
  Co  Co4  1  0.00000000  0.00000000  0.44869599  1
  Al  Al5  1  -0.00000000  0.49999999  0.94513098  1
  Fe  Fe6  1  0.49999999  0.49999999  0.05280600  1
  Co  Co7  1  0.49999999  0.00000000  0.55275499  1
  Ni  Ni8  1  -0.00000000  0.49999999  0.24894799  1
  Co  Co9  1  0.00000000  0.00000000  0.74952798  1
  Ni  Ni10  1  0.49999999  0.00000000  0.24996599  1
  Co  Co11  1  0.49999999  0.49999999  0.75072998  1
