# generated using pymatgen
data_Ce2Ir
_symmetry_space_group_name_H-M   'P 1'
_cell_length_a   5.35858774
_cell_length_b   5.35858774
_cell_length_c   6.05926943
_cell_angle_alpha   63.75688553
_cell_angle_beta   63.75688553
_cell_angle_gamma   60.00000000
_symmetry_Int_Tables_number   1
_chemical_formula_structural   Ce2Ir
_chemical_formula_sum   'Ce4 Ir2'
_cell_volume   129.55743806
_cell_formula_units_Z   2
loop_
 _symmetry_equiv_pos_site_id
 _symmetry_equiv_pos_as_xyz
  1  'x, y, z'
loop_
 _atom_site_type_symbol
 _atom_site_label
 _atom_site_symmetry_multiplicity
 _atom_site_fract_x
 _atom_site_fract_y
 _atom_site_fract_z
 _atom_site_occupancy
  Ce  Ce0  1  0.66428601  0.00000000  0.00000001  1
  Ce  Ce1  1  0.83314398  0.83314403  0.50056805  1
  Ce  Ce2  1  0.33571398  0.66428602  0.00000002  1
  Ce  Ce3  1  -0.00000001  0.33571401  0.00000001  1
  Ir  Ir4  1  0.16685600  0.16685601  0.49943202  1
  Ir  Ir5  1  0.49999999  0.50000002  0.50000004  1
