# generated using pymatgen
data_Li3SnRuPtO4
_symmetry_space_group_name_H-M   'P 1'
_cell_length_a   5.24175596
_cell_length_b   5.49984074
_cell_length_c   5.24175596
_cell_angle_alpha   118.45947266
_cell_angle_beta   90.00000000
_cell_angle_gamma   118.45947266
_symmetry_Int_Tables_number   1
_chemical_formula_structural   Li3SnRuPtO4
_chemical_formula_sum   'Li3 Sn1 Ru1 Pt1 O4'
_cell_volume   111.64271621
_cell_formula_units_Z   1
loop_
 _symmetry_equiv_pos_site_id
 _symmetry_equiv_pos_as_xyz
  1  'x, y, z'
loop_
 _atom_site_type_symbol
 _atom_site_label
 _atom_site_symmetry_multiplicity
 _atom_site_fract_x
 _atom_site_fract_y
 _atom_site_fract_z
 _atom_site_occupancy
  Li  Li0  1  0.31372000  0.00000100  0.18628100  1
  Li  Li1  1  0.68627990  0.99999889  0.81371890  1
  Li  Li2  1  0.81371990  0.99999989  0.31371989  1
  Sn  Sn3  1  0.18627989  0.99999989  0.68627990  1
  Ru  Ru4  1  0.74999995  0.49999994  0.74999995  1
  Pt  Pt5  1  0.24999995  0.49999994  0.24999995  1
  O  O6  1  0.24999995  0.49999994  0.74999995  1
  O  O7  1  0.74999995  0.49999994  0.24999995  1
  O  O8  1  0.00000000  0.00000000  0.00000000  1
  O  O9  1  0.50000000  0.00000000  0.50000000  1
