# generated using pymatgen
data_Cs2RbZnBr5
_symmetry_space_group_name_H-M   'P 1'
_cell_length_a   8.05671692
_cell_length_b   8.05671692
_cell_length_c   8.05671692
_cell_angle_alpha   60.00000000
_cell_angle_beta   60.00000000
_cell_angle_gamma   60.00000000
_symmetry_Int_Tables_number   1
_chemical_formula_structural   Cs2RbZnBr5
_chemical_formula_sum   'Cs2 Rb1 Zn1 Br5'
_cell_volume   369.79353629
_cell_formula_units_Z   1
loop_
 _symmetry_equiv_pos_site_id
 _symmetry_equiv_pos_as_xyz
  1  'x, y, z'
loop_
 _atom_site_type_symbol
 _atom_site_label
 _atom_site_symmetry_multiplicity
 _atom_site_fract_x
 _atom_site_fract_y
 _atom_site_fract_z
 _atom_site_occupancy
  Cs  Cs0  1  0.74999998  0.74999998  0.74999998  1
  Rb  Rb1  1  0.24999999  0.24999999  0.24999999  1
  Zn  Zn2  1  0.00000000  0.00000000  0.00000000  1
  Cs  Cs3  1  0.24013899  0.75986098  0.24013899  1
  Br  Br4  1  0.75986098  0.24013899  0.75986098  1
  Br  Br5  1  0.24013899  0.75986098  0.75986098  1
  Br  Br6  1  0.75986098  0.24013899  0.24013899  1
  Br  Br7  1  0.24013899  0.24013899  0.75986098  1
  Br  Br8  1  0.75986098  0.75986098  0.24013899  1
