# generated using pymatgen
data_Ba5SbTeO9
_symmetry_space_group_name_H-M   'P 1'
_cell_length_a   4.64284182
_cell_length_b   6.88777399
_cell_length_c   9.66343975
_cell_angle_alpha   90.00000000
_cell_angle_beta   91.08518219
_cell_angle_gamma   90.00000000
_symmetry_Int_Tables_number   1
_chemical_formula_structural   Ba5SbTeO9
_chemical_formula_sum   'Ba5 Sb1 Te1 O9'
_cell_volume   308.97021719
_cell_formula_units_Z   1
loop_
 _symmetry_equiv_pos_site_id
 _symmetry_equiv_pos_as_xyz
  1  'x, y, z'
loop_
 _atom_site_type_symbol
 _atom_site_label
 _atom_site_symmetry_multiplicity
 _atom_site_fract_x
 _atom_site_fract_y
 _atom_site_fract_z
 _atom_site_occupancy
  Ba  Ba0  1  0.07129900  0.23224700  0.62927503  1
  Ba  Ba1  1  0.39667402  0.26307100  0.12389100  1
  Ba  Ba2  1  0.92870104  0.73224700  0.37072500  1
  Ba  Ba3  1  0.60332602  0.76307100  0.87610903  1
  Sb  Sb4  1  0.03605000  0.04290500  0.92803104  1
  Ba  Ba5  1  0.47984702  0.46267700  0.40973901  1
  Te  Te6  1  0.96395004  0.54290500  0.07196899  1
  O  O7  1  0.52015302  0.96267700  0.59026102  1
  O  O8  1  0.98243104  0.63323600  0.66809401  1
  O  O9  1  0.50889902  0.86308800  0.16998900  1
  O  O10  1  0.01756900  0.13323600  0.33190602  1
  O  O11  1  0.49110102  0.36308800  0.83001103  1
  O  O12  1  0.76206003  0.20201400  0.88057103  1
  O  O13  1  0.75025803  0.29955000  0.37076700  1
  O  O14  1  0.23794001  0.70201400  0.11942900  1
  O  O15  1  0.24974201  0.79955000  0.62923303  1
