# generated using pymatgen
data_TlS
_symmetry_space_group_name_H-M   'P 1'
_cell_length_a   4.22695780
_cell_length_b   4.22695780
_cell_length_c   8.70429897
_cell_angle_alpha   90.00000000
_cell_angle_beta   90.00000000
_cell_angle_gamma   90.00000000
_symmetry_Int_Tables_number   1
_chemical_formula_structural   TlS
_chemical_formula_sum   'Tl3 S3'
_cell_volume   155.52120886
_cell_formula_units_Z   3
loop_
 _symmetry_equiv_pos_site_id
 _symmetry_equiv_pos_as_xyz
  1  'x, y, z'
loop_
 _atom_site_type_symbol
 _atom_site_label
 _atom_site_symmetry_multiplicity
 _atom_site_fract_x
 _atom_site_fract_y
 _atom_site_fract_z
 _atom_site_occupancy
  Tl  Tl0  1  0.00000000  0.50000002  0.72430900  1
  Tl  Tl1  1  0.50000002  0.00000000  0.27569100  1
  Tl  Tl2  1  0.00000000  0.50000002  0.36433000  1
  S  S3  1  0.50000002  0.00000000  0.63567000  1
  S  S4  1  0.00000000  0.00000000  0.00000000  1
  S  S5  1  0.50000002  0.50000002  0.00000000  1
