# generated using pymatgen
data_TiNi3
_symmetry_space_group_name_H-M   'P 1'
_cell_length_a   3.42267489
_cell_length_b   5.55722094
_cell_length_c   6.03514194
_cell_angle_alpha   90.00000000
_cell_angle_beta   90.00000000
_cell_angle_gamma   90.00000000
_symmetry_Int_Tables_number   1
_chemical_formula_structural   TiNi3
_chemical_formula_sum   'Ti2 Ni6'
_cell_volume   114.79178297
_cell_formula_units_Z   2
loop_
 _symmetry_equiv_pos_site_id
 _symmetry_equiv_pos_as_xyz
  1  'x, y, z'
loop_
 _atom_site_type_symbol
 _atom_site_label
 _atom_site_symmetry_multiplicity
 _atom_site_fract_x
 _atom_site_fract_y
 _atom_site_fract_z
 _atom_site_occupancy
  Ni  Ni0  1  0.75000002  0.99671001  0.18979800  1
  Ti  Ti1  1  0.25000001  0.00329000  0.81020201  1
  Ti  Ti2  1  0.75000002  0.49671001  0.31020200  1
  Ni  Ni3  1  0.25000001  0.50329001  0.68979801  1
  Ni  Ni4  1  0.75000002  0.80352601  0.58116901  1
  Ni  Ni5  1  0.25000001  0.19647400  0.41883100  1
  Ni  Ni6  1  0.75000002  0.30352600  0.91883101  1
  Ni  Ni7  1  0.25000001  0.69647401  0.08116900  1
