# generated using pymatgen
data_Cu
_symmetry_space_group_name_H-M   'P 1'
_cell_length_a   3.93575692
_cell_length_b   6.67033005
_cell_length_c   9.94385815
_cell_angle_alpha   91.33327484
_cell_angle_beta   90.00000000
_cell_angle_gamma   90.00000000
_symmetry_Int_Tables_number   1
_chemical_formula_structural   Cu
_chemical_formula_sum   Cu10
_cell_volume   260.98341934
_cell_formula_units_Z   10
loop_
 _symmetry_equiv_pos_site_id
 _symmetry_equiv_pos_as_xyz
  1  'x, y, z'
loop_
 _atom_site_type_symbol
 _atom_site_label
 _atom_site_symmetry_multiplicity
 _atom_site_fract_x
 _atom_site_fract_y
 _atom_site_fract_z
 _atom_site_occupancy
  Cu  Cu0  1  0.75000001  0.24557600  0.99709400  1
  Cu  Cu1  1  0.25000000  0.75442399  0.00290600  1
  Cu  Cu2  1  0.75000001  0.60417300  0.34910200  1
  Cu  Cu3  1  0.25000000  0.39582700  0.65089800  1
  Cu  Cu4  1  0.25000000  0.74875899  0.51113600  1
  Cu  Cu5  1  0.75000001  0.25124100  0.48886400  1
  Cu  Cu6  1  0.75000001  0.57218600  0.85087200  1
  Cu  Cu7  1  0.25000000  0.42781400  0.14912800  1
  Cu  Cu8  1  0.75000001  0.91792099  0.14341200  1
  Cu  Cu9  1  0.25000000  0.08207900  0.85658800  1
