# generated using pymatgen
data_K2LiMn2Te7O
_symmetry_space_group_name_H-M   'P 1'
_cell_length_a   7.40594482
_cell_length_b   7.40594482
_cell_length_c   7.66865492
_cell_angle_alpha   105.04219055
_cell_angle_beta   106.73536682
_cell_angle_gamma   115.66428375
_symmetry_Int_Tables_number   1
_chemical_formula_structural   K2LiMn2Te7O
_chemical_formula_sum   'K2 Li1 Mn2 Te7 O1'
_cell_volume   325.10282453
_cell_formula_units_Z   1
loop_
 _symmetry_equiv_pos_site_id
 _symmetry_equiv_pos_as_xyz
  1  'x, y, z'
loop_
 _atom_site_type_symbol
 _atom_site_label
 _atom_site_symmetry_multiplicity
 _atom_site_fract_x
 _atom_site_fract_y
 _atom_site_fract_z
 _atom_site_occupancy
  Li  Li0  1  0.78836999  0.28837000  0.49999997  1
  K  K1  1  0.21162996  0.71163000  0.49999999  1
  Mn  Mn2  1  0.76648299  0.28252100  0.04900399  1
  K  K3  1  0.23351696  0.71747900  0.95099598  1
  Mn  Mn4  1  0.00000000  0.00000000  0.00000000  1
  Te  Te5  1  0.77439898  0.57133900  0.34573798  1
  O  O6  1  0.22560098  0.42866100  0.65426198  1
  Te  Te7  1  0.21267198  0.46083900  0.16638500  1
  Te  Te8  1  0.78732798  0.53916100  0.83361497  1
  Te  Te9  1  0.29445400  0.04628700  0.83361497  1
  Te  Te10  1  0.70554595  0.95371300  0.16638499  1
  Te  Te11  1  0.30714200  0.01326300  0.32040498  1
  Te  Te12  1  0.69285795  0.98673700  0.67959498  1
