# generated using pymatgen
data_LaCeSbHO
_symmetry_space_group_name_H-M   'P 1'
_cell_length_a   4.00393391
_cell_length_b   4.00393438
_cell_length_c   6.65384102
_cell_angle_alpha   90.00000000
_cell_angle_beta   90.00000000
_cell_angle_gamma   120.00000000
_symmetry_Int_Tables_number   1
_chemical_formula_structural   LaCeSbHO
_chemical_formula_sum   'La1 Ce1 Sb1 H1 O1'
_cell_volume   92.37977566
_cell_formula_units_Z   1
loop_
 _symmetry_equiv_pos_site_id
 _symmetry_equiv_pos_as_xyz
  1  'x, y, z'
loop_
 _atom_site_type_symbol
 _atom_site_label
 _atom_site_symmetry_multiplicity
 _atom_site_fract_x
 _atom_site_fract_y
 _atom_site_fract_z
 _atom_site_occupancy
  Ce  Ce0  1  0.66666670  0.33333334  0.00986500  1
  La  La1  1  0.00000000  0.00000000  0.62726500  1
  Sb  Sb2  1  0.33333338  0.66666669  0.36090300  1
  H  H3  1  0.33333338  0.66666669  0.73839800  1
  O  O4  1  0.00000000  0.00000000  0.26356800  1
