# generated using pymatgen
data_Li2CaMn2Be(BC)3
_symmetry_space_group_name_H-M   'P 1'
_cell_length_a   4.50693703
_cell_length_b   6.27944422
_cell_length_c   6.27944422
_cell_angle_alpha   120.00000000
_cell_angle_beta   90.00000000
_cell_angle_gamma   90.00000000
_symmetry_Int_Tables_number   1
_chemical_formula_structural   Li2CaMn2Be(BC)3
_chemical_formula_sum   'Li2 Ca1 Mn2 Be1 B3 C3'
_cell_volume   153.90564002
_cell_formula_units_Z   1
loop_
 _symmetry_equiv_pos_site_id
 _symmetry_equiv_pos_as_xyz
  1  'x, y, z'
loop_
 _atom_site_type_symbol
 _atom_site_label
 _atom_site_symmetry_multiplicity
 _atom_site_fract_x
 _atom_site_fract_y
 _atom_site_fract_z
 _atom_site_occupancy
  Li  Li0  1  0.50000000  0.00000000  0.69980097  1
  Li  Li1  1  0.50000000  0.69980098  -0.00000000  1
  Mn  Mn2  1  0.50000000  0.30019899  0.30019899  1
  Ca  Ca3  1  0.99999999  0.00000000  0.36555599  1
  Mn  Mn4  1  -0.00000000  0.36555599  -0.00000000  1
  Be  Be5  1  -0.00000000  0.63444398  0.63444397  1
  B  B6  1  0.67241400  0.33333332  0.66666664  1
  B  B7  1  0.32758600  0.33333332  0.66666664  1
  B  B8  1  0.32758600  0.66666664  0.33333332  1
  C  C9  1  0.67241400  0.66666664  0.33333332  1
  C  C10  1  0.17054400  0.00000000  -0.00000000  1
  C  C11  1  0.82945600  0.00000000  -0.00000000  1
