# generated using pymatgen
data_Nd8NiSn9
_symmetry_space_group_name_H-M   'P 1'
_cell_length_a   6.65374994
_cell_length_b   9.06730556
_cell_length_c   9.06730556
_cell_angle_alpha   120.00000000
_cell_angle_beta   90.00000000
_cell_angle_gamma   90.00000000
_symmetry_Int_Tables_number   1
_chemical_formula_structural   Nd8NiSn9
_chemical_formula_sum   'Nd8 Ni1 Sn9'
_cell_volume   473.75478585
_cell_formula_units_Z   1
loop_
 _symmetry_equiv_pos_site_id
 _symmetry_equiv_pos_as_xyz
  1  'x, y, z'
loop_
 _atom_site_type_symbol
 _atom_site_label
 _atom_site_symmetry_multiplicity
 _atom_site_fract_x
 _atom_site_fract_y
 _atom_site_fract_z
 _atom_site_occupancy
  Nd  Nd0  1  0.75000001  0.23737001  -0.00000001  1
  Nd  Nd1  1  0.25000000  0.00000000  0.76263001  1
  Nd  Nd2  1  0.50000000  0.66666669  0.33333332  1
  Nd  Nd3  1  0.75000001  0.76263003  0.76263000  1
  Nd  Nd4  1  0.25000000  0.76263003  -0.00000002  1
  Nd  Nd5  1  0.75000001  1.00000004  0.23736998  1
  Nd  Nd6  1  0.50000000  0.33333335  0.66666667  1
  Nd  Nd7  1  0.25000000  0.23737001  0.23737000  1
  Sn  Sn8  1  -0.00000000  0.66666669  0.33333332  1
  Sn  Sn9  1  -0.00000000  0.33333335  0.66666667  1
  Ni  Ni10  1  0.00000000  0.00000000  0.00000000  1
  Sn  Sn11  1  0.50000000  0.00000000  -0.00000000  1
  Sn  Sn12  1  0.25000000  0.60101302  0.60101300  1
  Sn  Sn13  1  0.75000001  0.39898702  0.39898700  1
  Sn  Sn14  1  0.75000001  0.60101302  1.00000000  1
  Sn  Sn15  1  0.75000001  1.00000004  0.60101299  1
  Sn  Sn16  1  0.25000000  0.00000000  0.39898701  1
  Sn  Sn17  1  0.25000000  0.39898702  1.00000001  1
