# generated using pymatgen
data_KCa(HO)2
_symmetry_space_group_name_H-M   'P 1'
_cell_length_a   3.35204029
_cell_length_b   3.58455396
_cell_length_c   5.97040224
_cell_angle_alpha   107.46923828
_cell_angle_beta   99.12277222
_cell_angle_gamma   90.00000000
_symmetry_Int_Tables_number   1
_chemical_formula_structural   KCa(HO)2
_chemical_formula_sum   'K1 Ca1 H2 O2'
_cell_volume   67.47721017
_cell_formula_units_Z   1
loop_
 _symmetry_equiv_pos_site_id
 _symmetry_equiv_pos_as_xyz
  1  'x, y, z'
loop_
 _atom_site_type_symbol
 _atom_site_label
 _atom_site_symmetry_multiplicity
 _atom_site_fract_x
 _atom_site_fract_y
 _atom_site_fract_z
 _atom_site_occupancy
  Ca  Ca0  1  0.25120201  0.36113001  0.72226002  1
  K  K1  1  0.80636504  0.64944002  0.29888003  1
  H  H2  1  0.47820302  0.18348500  0.36697001  1
  H  H3  1  0.87589004  0.94406902  0.88813804  1
  O  O4  1  0.21456801  0.13354500  0.26709001  1
  O  O5  1  0.75132504  0.85982602  0.71965204  1
