# generated using pymatgen
data_KCaB5N5O4
_symmetry_space_group_name_H-M   'P 1'
_cell_length_a   4.97843218
_cell_length_b   4.97843122
_cell_length_c   10.15015697
_cell_angle_alpha   90.00000000
_cell_angle_beta   90.00000000
_cell_angle_gamma   119.99999237
_symmetry_Int_Tables_number   1
_chemical_formula_structural   KCaB5N5O4
_chemical_formula_sum   'K1 Ca1 B5 N5 O4'
_cell_volume   217.86553394
_cell_formula_units_Z   1
loop_
 _symmetry_equiv_pos_site_id
 _symmetry_equiv_pos_as_xyz
  1  'x, y, z'
loop_
 _atom_site_type_symbol
 _atom_site_label
 _atom_site_symmetry_multiplicity
 _atom_site_fract_x
 _atom_site_fract_y
 _atom_site_fract_z
 _atom_site_occupancy
  Ca  Ca0  1  0.00000000  0.00000000  0.50000000  1
  K  K1  1  0.00000000  0.00000000  0.00000000  1
  B  B2  1  0.66666664  0.33333332  0.75000000  1
  B  B3  1  0.33333331  0.66666663  0.25000000  1
  B  B4  1  0.66666664  0.33333332  0.25000000  1
  B  B5  1  0.33333331  0.66666663  0.75000000  1
  O  O6  1  0.12677998  0.75270196  0.75000000  1
  B  B7  1  0.75270196  0.62592197  0.25000000  1
  N  N8  1  0.24729798  0.37407798  0.75000000  1
  O  O9  1  0.87321996  0.24729799  0.25000000  1
  N  N10  1  0.62592196  0.87321995  0.75000000  1
  N  N11  1  0.37407798  0.12677999  0.25000000  1
  O  O12  1  0.66666664  0.33333332  0.54509700  1
  N  N13  1  0.33333331  0.66666663  0.04509700  1
  N  N14  1  0.66666664  0.33333332  0.95490300  1
  O  O15  1  0.33333331  0.66666663  0.45490300  1
