# generated using pymatgen
data_Al
_symmetry_space_group_name_H-M   'P 1'
_cell_length_a   3.93031597
_cell_length_b   4.91038513
_cell_length_c   8.51662827
_cell_angle_alpha   89.99999237
_cell_angle_beta   90.00000000
_cell_angle_gamma   90.00000000
_symmetry_Int_Tables_number   1
_chemical_formula_structural   Al
_chemical_formula_sum   Al12
_cell_volume   164.36551839
_cell_formula_units_Z   12
loop_
 _symmetry_equiv_pos_site_id
 _symmetry_equiv_pos_as_xyz
  1  'x, y, z'
loop_
 _atom_site_type_symbol
 _atom_site_label
 _atom_site_symmetry_multiplicity
 _atom_site_fract_x
 _atom_site_fract_y
 _atom_site_fract_z
 _atom_site_occupancy
  Al  Al0  1  -0.00000000  0.99998600  0.00000001  1
  Al  Al1  1  0.00000000  0.49997800  0.50000003  1
  Al  Al2  1  -0.00000000  0.99996100  0.33390703  1
  Al  Al3  1  -0.00000000  0.49996000  0.83244405  1
  Al  Al4  1  -0.00000000  0.49996000  0.16755601  1
  Al  Al5  1  -0.00000000  0.99996100  0.66609304  1
  Al  Al6  1  0.50000000  0.00000800  0.50000002  1
  Al  Al7  1  0.50000000  0.50000600  0.00000000  1
  Al  Al8  1  0.50000000  0.25104800  0.25148702  1
  Al  Al9  1  0.50000000  0.74894200  0.74852104  1
  Al  Al10  1  0.50000000  0.74894200  0.25147902  1
  Al  Al11  1  0.50000000  0.25104800  0.74851304  1
