# generated using pymatgen
data_Mo2SeS3
_symmetry_space_group_name_H-M   'P 1'
_cell_length_a   3.25338006
_cell_length_b   3.25338030
_cell_length_c   36.88149261
_cell_angle_alpha   90.00000000
_cell_angle_beta   90.00000000
_cell_angle_gamma   120.00000000
_symmetry_Int_Tables_number   1
_chemical_formula_structural   Mo2SeS3
_chemical_formula_sum   'Mo4 Se2 S6'
_cell_volume   338.07165024
_cell_formula_units_Z   2
loop_
 _symmetry_equiv_pos_site_id
 _symmetry_equiv_pos_as_xyz
  1  'x, y, z'
loop_
 _atom_site_type_symbol
 _atom_site_label
 _atom_site_symmetry_multiplicity
 _atom_site_fract_x
 _atom_site_fract_y
 _atom_site_fract_z
 _atom_site_occupancy
  Mo  Mo0  1  0.33333336  0.66666667  0.71821003  1
  Mo  Mo1  1  0.66666667  0.33333334  0.90608703  1
  Mo  Mo2  1  0.66666667  0.33333334  0.53035402  1
  Mo  Mo3  1  0.33333336  0.66666667  0.34245501  1
  Se  Se4  1  0.66666667  0.33333334  0.67219003  1
  S  S5  1  0.66666667  0.33333334  0.29611201  1
  Se  Se6  1  0.66666667  0.33333334  0.76422403  1
  S  S7  1  0.66666667  0.33333334  0.38877401  1
  S  S8  1  0.33333336  0.66666667  0.94811504  1
  S  S9  1  0.33333336  0.66666667  0.57234502  1
  S  S10  1  0.33333336  0.66666667  0.86406403  1
  S  S11  1  0.33333336  0.66666667  0.48832202  1
