# generated using pymatgen
data_Ce2Be3Al2C3
_symmetry_space_group_name_H-M   'P 1'
_cell_length_a   3.63652897
_cell_length_b   5.58296204
_cell_length_c   6.95767117
_cell_angle_alpha   90.00000000
_cell_angle_beta   90.00000000
_cell_angle_gamma   109.00684357
_symmetry_Int_Tables_number   1
_chemical_formula_structural   Ce2Be3Al2C3
_chemical_formula_sum   'Ce2 Be3 Al2 C3'
_cell_volume   133.55736002
_cell_formula_units_Z   1
loop_
 _symmetry_equiv_pos_site_id
 _symmetry_equiv_pos_as_xyz
  1  'x, y, z'
loop_
 _atom_site_type_symbol
 _atom_site_label
 _atom_site_symmetry_multiplicity
 _atom_site_fract_x
 _atom_site_fract_y
 _atom_site_fract_z
 _atom_site_occupancy
  Ce  Ce0  1  0.45709603  0.91419097  0.24999999  1
  Ce  Ce1  1  0.54290401  0.08580900  0.74999998  1
  Al  Al2  1  0.16782101  0.33564099  0.06055000  1
  Al  Al3  1  0.83217902  0.66435898  0.93944998  1
  Be  Be4  1  0.83217902  0.66435898  0.56054999  1
  Be  Be5  1  0.16782101  0.33564099  0.43944999  1
  C  C6  1  0.73634402  0.47268798  0.24999999  1
  Be  Be7  1  0.26365602  0.52731198  0.74999998  1
  C  C8  1  0.00000000  0.00000000  0.00000000  1
  C  C9  1  0.00000000  0.00000000  0.49999999  1
