# generated using pymatgen
data_Na2CuO3
_symmetry_space_group_name_H-M   'P 1'
_cell_length_a   3.28635001
_cell_length_b   3.62903595
_cell_length_c   6.24191952
_cell_angle_alpha   106.89979553
_cell_angle_beta   90.00000000
_cell_angle_gamma   90.00000000
_symmetry_Int_Tables_number   1
_chemical_formula_structural   Na2CuO3
_chemical_formula_sum   'Na2 Cu1 O3'
_cell_volume   71.22804991
_cell_formula_units_Z   1
loop_
 _symmetry_equiv_pos_site_id
 _symmetry_equiv_pos_as_xyz
  1  'x, y, z'
loop_
 _atom_site_type_symbol
 _atom_site_label
 _atom_site_symmetry_multiplicity
 _atom_site_fract_x
 _atom_site_fract_y
 _atom_site_fract_z
 _atom_site_occupancy
  Na  Na0  1  0.25000000  0.13789700  0.27579401  1
  Na  Na1  1  0.75000000  0.86210303  0.72420604  1
  Cu  Cu2  1  0.25000000  0.46578002  0.93156002  1
  O  O3  1  0.75000000  0.53422002  0.06844002  1
  O  O4  1  0.25000000  0.33361701  0.66723402  1
  O  O5  1  0.75000000  0.66638302  0.33276603  1
