# generated using pymatgen
data_Li2Mn2CoNi3
_symmetry_space_group_name_H-M   'P 1'
_cell_length_a   5.22647381
_cell_length_b   5.22647381
_cell_length_c   6.39024258
_cell_angle_alpha   114.13837433
_cell_angle_beta   114.13837433
_cell_angle_gamma   90.00000000
_symmetry_Int_Tables_number   1
_chemical_formula_structural   Li2Mn2CoNi3
_chemical_formula_sum   'Li2 Mn2 Co1 Ni3'
_cell_volume   142.40321510
_cell_formula_units_Z   1
loop_
 _symmetry_equiv_pos_site_id
 _symmetry_equiv_pos_as_xyz
  1  'x, y, z'
loop_
 _atom_site_type_symbol
 _atom_site_label
 _atom_site_symmetry_multiplicity
 _atom_site_fract_x
 _atom_site_fract_y
 _atom_site_fract_z
 _atom_site_occupancy
  Li  Li0  1  0.50000001  0.50000001  -0.00000002  1
  Li  Li1  1  0.24999999  0.75000002  0.49999997  1
  Mn  Mn2  1  0.00000000  0.00000000  0.00000000  1
  Mn  Mn3  1  0.75000002  0.25000001  0.49999997  1
  Ni  Ni4  1  0.59687602  0.12500000  0.74999997  1
  Co  Co5  1  0.15312399  0.62500002  0.74999997  1
  Ni  Ni6  1  0.87500001  0.84687602  0.24999996  1
  Ni  Ni7  1  0.37500000  0.40312401  0.24999998  1
