# generated using pymatgen
data_Nb2BTeSe2
_symmetry_space_group_name_H-M   'P 1'
_cell_length_a   3.25471807
_cell_length_b   3.25471854
_cell_length_c   23.02290154
_cell_angle_alpha   90.00000000
_cell_angle_beta   90.00000000
_cell_angle_gamma   119.99999237
_symmetry_Int_Tables_number   1
_chemical_formula_structural   Nb2BTeSe2
_chemical_formula_sum   'Nb2 B1 Te1 Se2'
_cell_volume   211.21148680
_cell_formula_units_Z   1
loop_
 _symmetry_equiv_pos_site_id
 _symmetry_equiv_pos_as_xyz
  1  'x, y, z'
loop_
 _atom_site_type_symbol
 _atom_site_label
 _atom_site_symmetry_multiplicity
 _atom_site_fract_x
 _atom_site_fract_y
 _atom_site_fract_z
 _atom_site_occupancy
  Te  Te0  1  0.00000000  0.00000000  0.84956602  1
  Nb  Nb1  1  0.66666663  0.33333331  0.54855501  1
  B  B2  1  0.00000000  0.00000000  0.47441701  1
  Nb  Nb3  1  0.00000000  0.00000000  0.62271101  1
  Se  Se4  1  0.66666663  0.33333331  0.91686502  1
  Se  Se5  1  0.66666663  0.33333331  0.78228202  1
