# generated using pymatgen
data_CeGa12
_symmetry_space_group_name_H-M   'P 1'
_cell_length_a   5.62123013
_cell_length_b   7.24439812
_cell_length_c   7.24439812
_cell_angle_alpha   81.44046783
_cell_angle_beta   67.17170715
_cell_angle_gamma   67.17170715
_symmetry_Int_Tables_number   1
_chemical_formula_structural   CeGa12
_chemical_formula_sum   'Ce1 Ga12'
_cell_volume   250.60378057
_cell_formula_units_Z   1
loop_
 _symmetry_equiv_pos_site_id
 _symmetry_equiv_pos_as_xyz
  1  'x, y, z'
loop_
 _atom_site_type_symbol
 _atom_site_label
 _atom_site_symmetry_multiplicity
 _atom_site_fract_x
 _atom_site_fract_y
 _atom_site_fract_z
 _atom_site_occupancy
  Ce  Ce0  1  0.99828096  0.00171900  0.00171904  1
  Ga  Ga1  1  0.34171206  0.65828800  0.65828797  1
  Ga  Ga2  1  0.66638001  0.33362000  0.33362001  1
  Ga  Ga3  1  0.01161507  0.64966400  0.32710595  1
  Ga  Ga4  1  0.01161503  0.32710600  0.64966399  1
  Ga  Ga5  1  0.72668005  0.77332000  0.77331998  1
  Ga  Ga6  1  0.48794300  0.21004700  0.81406702  1
  Ga  Ga7  1  0.48794307  0.81406701  0.21004695  1
  Ga  Ga8  1  0.99570496  0.00650200  0.49608805  1
  Ga  Ga9  1  0.50170498  0.00650200  0.49608803  1
  Ga  Ga10  1  0.99570501  0.49608800  0.00650300  1
  Ga  Ga11  1  0.50170503  0.49608800  0.00650298  1
  Ga  Ga12  1  0.27301301  0.22698700  0.22698700  1
