# generated using pymatgen
data_Lu5InSe9
_symmetry_space_group_name_H-M   'P 1'
_cell_length_a   5.94756413
_cell_length_b   7.23711061
_cell_length_c   11.07492161
_cell_angle_alpha   77.51595306
_cell_angle_beta   74.42407990
_cell_angle_gamma   65.73815155
_symmetry_Int_Tables_number   1
_chemical_formula_structural   Lu5InSe9
_chemical_formula_sum   'Lu5 In1 Se9'
_cell_volume   415.58492815
_cell_formula_units_Z   1
loop_
 _symmetry_equiv_pos_site_id
 _symmetry_equiv_pos_as_xyz
  1  'x, y, z'
loop_
 _atom_site_type_symbol
 _atom_site_label
 _atom_site_symmetry_multiplicity
 _atom_site_fract_x
 _atom_site_fract_y
 _atom_site_fract_z
 _atom_site_occupancy
  Lu  Lu0  1  0.00000000  0.00000000  0.00000000  1
  Lu  Lu1  1  0.24960099  0.37515900  0.12563899  1
  Lu  Lu2  1  0.49689297  0.75307800  0.25313599  1
  Lu  Lu3  1  0.75039898  0.62484100  0.87436098  1
  Lu  Lu4  1  0.50310699  0.24692200  0.74686399  1
  Se  Se5  1  0.75070898  0.37330400  0.12527798  1
  Se  Se6  1  0.99920697  0.75167500  0.24991097  1
  In  In7  1  0.49999998  0.50000000  0.49999999  1
  Se  Se8  1  0.25081799  0.12294600  0.37541800  1
  Se  Se9  1  0.00079299  0.24832500  0.75008901  1
  Se  Se10  1  0.74918197  0.87705400  0.62458198  1
  Se  Se11  1  0.50000000  0.00000000  -0.00000002  1
  Se  Se12  1  0.24929098  0.62669600  0.87472200  1
  Se  Se13  1  0.74991399  0.12478000  0.37539198  1
  Se  Se14  1  0.25008597  0.87522000  0.62460800  1
