# generated using pymatgen
data_KF
_symmetry_space_group_name_H-M   'P 1'
_cell_length_a   6.15996790
_cell_length_b   9.79656410
_cell_length_c   10.60644341
_cell_angle_alpha   117.50469971
_cell_angle_beta   106.88118744
_cell_angle_gamma   90.00000000
_symmetry_Int_Tables_number   1
_chemical_formula_structural   KF
_chemical_formula_sum   'K7 F7'
_cell_volume   536.42989461
_cell_formula_units_Z   7
loop_
 _symmetry_equiv_pos_site_id
 _symmetry_equiv_pos_as_xyz
  1  'x, y, z'
loop_
 _atom_site_type_symbol
 _atom_site_label
 _atom_site_symmetry_multiplicity
 _atom_site_fract_x
 _atom_site_fract_y
 _atom_site_fract_z
 _atom_site_occupancy
  K  K0  1  0.16701702  0.38726801  0.33403404  1
  K  K1  1  0.50000002  0.21012200  0.00000002  1
  K  K2  1  0.16701704  0.94676602  0.33403407  1
  K  K3  1  0.83298304  0.61273201  0.66596607  1
  K  K4  1  0.83298302  0.05323400  0.66596604  1
  K  K5  1  0.50000004  0.78987801  0.00000005  1
  K  K6  1  1.00000004  0.50000001  1.00000008  1
  F  F7  1  0.35058502  0.35058501  0.70117005  1
  F  F8  1  0.69103402  0.19103400  0.38206804  1
  F  F9  1  0.00000000  0.00000000  0.00000000  1
  F  F10  1  0.64941504  0.64941501  0.29883006  1
  F  F11  1  0.30896604  0.80896601  0.61793208  1
  F  F12  1  0.00000001  0.20871500  0.00000001  1
  F  F13  1  1.00000006  0.79128501  1.00000010  1
