# generated using pymatgen
data_Al5Fe
_symmetry_space_group_name_H-M   'P 1'
_cell_length_a   3.29814410
_cell_length_b   4.93762302
_cell_length_c   6.96971560
_cell_angle_alpha   78.95089722
_cell_angle_beta   76.31372833
_cell_angle_gamma   70.48941803
_symmetry_Int_Tables_number   1
_chemical_formula_structural   Al5Fe
_chemical_formula_sum   'Al5 Fe1'
_cell_volume   103.15767441
_cell_formula_units_Z   1
loop_
 _symmetry_equiv_pos_site_id
 _symmetry_equiv_pos_as_xyz
  1  'x, y, z'
loop_
 _atom_site_type_symbol
 _atom_site_label
 _atom_site_symmetry_multiplicity
 _atom_site_fract_x
 _atom_site_fract_y
 _atom_site_fract_z
 _atom_site_occupancy
  Fe  Fe0  1  0.39606297  0.31106601  0.89680799  1
  Al  Al1  1  0.60393695  0.68893402  0.10319202  1
  Al  Al2  1  0.15445096  0.89244402  0.79865402  1
  Al  Al3  1  0.84554897  0.10755600  0.20134600  1
  Al  Al4  1  0.85445394  0.75477802  0.53631402  1
  Al  Al5  1  0.14554598  0.24522201  0.46368600  1
