# generated using pymatgen
data_Li2C
_symmetry_space_group_name_H-M   'P 1'
_cell_length_a   3.94303489
_cell_length_b   6.16526604
_cell_length_c   7.85631418
_cell_angle_alpha   90.00000000
_cell_angle_beta   90.00000000
_cell_angle_gamma   90.00000000
_symmetry_Int_Tables_number   1
_chemical_formula_structural   Li2C
_chemical_formula_sum   'Li8 C4'
_cell_volume   190.98589061
_cell_formula_units_Z   4
loop_
 _symmetry_equiv_pos_site_id
 _symmetry_equiv_pos_as_xyz
  1  'x, y, z'
loop_
 _atom_site_type_symbol
 _atom_site_label
 _atom_site_symmetry_multiplicity
 _atom_site_fract_x
 _atom_site_fract_y
 _atom_site_fract_z
 _atom_site_occupancy
  Li  Li0  1  0.49927301  0.25004000  0.24858699  1
  Li  Li1  1  0.49927301  0.74996000  0.24858699  1
  Li  Li2  1  0.50072701  0.74996000  0.74858698  1
  Li  Li3  1  0.50072701  0.25004000  0.74858698  1
  Li  Li4  1  0.01350700  0.00000000  0.93376798  1
  Li  Li5  1  0.98649303  0.00000000  0.43376799  1
  Li  Li6  1  0.87543103  0.50000000  0.49963599  1
  Li  Li7  1  0.12456900  0.50000000  0.99963598  1
  C  C8  1  0.00233900  0.00000000  0.76225598  1
  C  C9  1  0.99766103  0.00000000  0.26225599  1
  C  C10  1  0.53338002  0.50000000  0.49977499  1
  C  C11  1  0.46662001  0.50000000  0.99977498  1
