# generated using pymatgen
data_Li3MnC6
_symmetry_space_group_name_H-M   'P 1'
_cell_length_a   4.21146202
_cell_length_b   5.76897478
_cell_length_c   6.65380812
_cell_angle_alpha   90.00000000
_cell_angle_beta   108.44958496
_cell_angle_gamma   90.00000000
_symmetry_Int_Tables_number   1
_chemical_formula_structural   Li3MnC6
_chemical_formula_sum   'Li3 Mn1 C6'
_cell_volume   153.35080513
_cell_formula_units_Z   1
loop_
 _symmetry_equiv_pos_site_id
 _symmetry_equiv_pos_as_xyz
  1  'x, y, z'
loop_
 _atom_site_type_symbol
 _atom_site_label
 _atom_site_symmetry_multiplicity
 _atom_site_fract_x
 _atom_site_fract_y
 _atom_site_fract_z
 _atom_site_occupancy
  Li  Li0  1  0.62922301  0.25000001  0.25844602  1
  Li  Li1  1  0.37077700  0.75000003  0.74155401  1
  Li  Li2  1  0.09511600  0.75000003  0.19023200  1
  Mn  Mn3  1  0.90488401  0.25000001  0.80976802  1
  C  C4  1  0.45400400  0.25000001  0.60632401  1
  C  C5  1  0.15232000  0.25000001  0.60632400  1
  C  C6  1  0.00000000  0.50000002  -0.00000000  1
  C  C7  1  0.54599601  0.75000003  0.39367601  1
  C  C8  1  0.84768001  0.75000003  0.39367602  1
  C  C9  1  0.00000000  0.00000000  0.00000000  1
