# generated using pymatgen
data_CeGePd
_symmetry_space_group_name_H-M   'P 1'
_cell_length_a   4.40107298
_cell_length_b   7.16491079
_cell_length_c   7.84053183
_cell_angle_alpha   90.00000000
_cell_angle_beta   90.00000000
_cell_angle_gamma   90.00000000
_symmetry_Int_Tables_number   1
_chemical_formula_structural   CeGePd
_chemical_formula_sum   'Ce4 Ge4 Pd4'
_cell_volume   247.23780529
_cell_formula_units_Z   4
loop_
 _symmetry_equiv_pos_site_id
 _symmetry_equiv_pos_as_xyz
  1  'x, y, z'
loop_
 _atom_site_type_symbol
 _atom_site_label
 _atom_site_symmetry_multiplicity
 _atom_site_fract_x
 _atom_site_fract_y
 _atom_site_fract_z
 _atom_site_occupancy
  Ce  Ce0  1  0.25000000  0.01172000  0.31033701  1
  Ce  Ce1  1  0.25000000  0.51172001  0.18966300  1
  Ce  Ce2  1  0.75000000  0.98828003  0.68966302  1
  Ce  Ce3  1  0.75000000  0.48828001  0.81033702  1
  Ge  Ge4  1  0.25000000  0.16508500  0.92724802  1
  Ge  Ge5  1  0.25000000  0.66508502  0.57275201  1
  Ge  Ge6  1  0.75000000  0.83491502  0.07275200  1
  Ge  Ge7  1  0.75000000  0.33491501  0.42724801  1
  Pd  Pd8  1  0.25000000  0.28569101  0.60506401  1
  Pd  Pd9  1  0.25000000  0.78569102  0.89493602  1
  Pd  Pd10  1  0.75000000  0.71430902  0.39493601  1
  Pd  Pd11  1  0.75000000  0.21430901  0.10506400  1
