# generated using pymatgen
data_TlS
_symmetry_space_group_name_H-M   'P 1'
_cell_length_a   4.22335386
_cell_length_b   7.47926855
_cell_length_c   9.48287010
_cell_angle_alpha   73.72946167
_cell_angle_beta   77.13331604
_cell_angle_gamma   73.60024261
_symmetry_Int_Tables_number   1
_chemical_formula_structural   TlS
_chemical_formula_sum   'Tl5 S5'
_cell_volume   272.47221958
_cell_formula_units_Z   5
loop_
 _symmetry_equiv_pos_site_id
 _symmetry_equiv_pos_as_xyz
  1  'x, y, z'
loop_
 _atom_site_type_symbol
 _atom_site_label
 _atom_site_symmetry_multiplicity
 _atom_site_fract_x
 _atom_site_fract_y
 _atom_site_fract_z
 _atom_site_occupancy
  Tl  Tl0  1  -0.00000003  0.50000002  0.49999998  1
  Tl  Tl1  1  0.58375896  0.74431103  0.08817098  1
  Tl  Tl2  1  0.18414094  0.90150604  0.73021197  1
  Tl  Tl3  1  0.81585901  0.09849400  0.26978801  1
  Tl  Tl4  1  0.41624099  0.25568901  0.91182900  1
  S  S5  1  0.60946000  0.19192301  0.58915700  1
  S  S6  1  0.19354998  0.42091302  0.19198699  1
  S  S7  1  0.80644998  0.57908703  0.80801299  1
  S  S8  1  0.39053995  0.80807704  0.41084298  1
  S  S9  1  0.00000000  0.00000000  0.00000000  1
