# generated using pymatgen
data_NdSn3
_symmetry_space_group_name_H-M   'P 1'
_cell_length_a   6.41440201
_cell_length_b   8.49305820
_cell_length_c   8.49305820
_cell_angle_alpha   60.00000000
_cell_angle_beta   90.00000000
_cell_angle_gamma   90.00000000
_symmetry_Int_Tables_number   1
_chemical_formula_structural   NdSn3
_chemical_formula_sum   'Nd4 Sn12'
_cell_volume   400.69600029
_cell_formula_units_Z   4
loop_
 _symmetry_equiv_pos_site_id
 _symmetry_equiv_pos_as_xyz
  1  'x, y, z'
loop_
 _atom_site_type_symbol
 _atom_site_label
 _atom_site_symmetry_multiplicity
 _atom_site_fract_x
 _atom_site_fract_y
 _atom_site_fract_z
 _atom_site_occupancy
  Nd  Nd0  1  0.25000000  0.24340299  0.75659698  1
  Nd  Nd1  1  0.75000000  0.75659698  0.24340299  1
  Nd  Nd2  1  0.75000000  0.24340299  -0.00000000  1
  Nd  Nd3  1  0.25000000  0.00000000  0.24340299  1
  Sn  Sn4  1  0.25000000  0.75659698  -0.00000000  1
  Sn  Sn5  1  0.75000000  0.00000000  0.75659698  1
  Sn  Sn6  1  0.50000000  0.33333333  0.33333333  1
  Sn  Sn7  1  -0.00000000  0.66666665  0.66666665  1
  Sn  Sn8  1  0.50000000  0.66666665  0.66666665  1
  Sn  Sn9  1  1.00000000  0.33333333  0.33333333  1
  Sn  Sn10  1  0.25000000  0.00000000  0.60559599  1
  Sn  Sn11  1  0.75000000  0.60559599  -0.00000000  1
  Sn  Sn12  1  0.75000000  0.39440399  0.60559599  1
  Sn  Sn13  1  0.25000000  0.60559599  0.39440399  1
  Sn  Sn14  1  0.25000000  0.39440399  -0.00000000  1
  Sn  Sn15  1  0.75000000  0.00000000  0.39440399  1
