# generated using pymatgen
data_Cs3KGa(BiSb)2
_symmetry_space_group_name_H-M   'P 1'
_cell_length_a   7.18989611
_cell_length_b   8.15115643
_cell_length_c   8.15115547
_cell_angle_alpha   120.00000000
_cell_angle_beta   90.00000000
_cell_angle_gamma   90.00000000
_symmetry_Int_Tables_number   1
_chemical_formula_structural   Cs3KGa(BiSb)2
_chemical_formula_sum   'Cs3 K1 Ga1 Bi2 Sb2'
_cell_volume   413.70583942
_cell_formula_units_Z   1
loop_
 _symmetry_equiv_pos_site_id
 _symmetry_equiv_pos_as_xyz
  1  'x, y, z'
loop_
 _atom_site_type_symbol
 _atom_site_label
 _atom_site_symmetry_multiplicity
 _atom_site_fract_x
 _atom_site_fract_y
 _atom_site_fract_z
 _atom_site_occupancy
  Cs  Cs0  1  0.49999999  0.66666663  0.33333334  1
  Cs  Cs1  1  0.49999999  0.33333331  0.66666669  1
  K  K2  1  0.00000000  0.00000000  0.00000000  1
  Cs  Cs3  1  0.24216400  0.00000000  0.67105103  1
  Bi  Bi4  1  0.75783599  0.00000000  0.32894902  1
  Bi  Bi5  1  0.24216400  0.67105096  -0.00000001  1
  Sb  Sb6  1  0.75783599  0.32894898  1.00000004  1
  Ga  Ga7  1  0.75783599  0.67105096  0.67105102  1
  Sb  Sb8  1  0.24216400  0.32894898  0.32894901  1
