# generated using pymatgen
data_Li6U2Nb3
_symmetry_space_group_name_H-M   'P 1'
_cell_length_a   7.16399002
_cell_length_b   7.16422510
_cell_length_c   7.83172464
_cell_angle_alpha   76.24677277
_cell_angle_beta   62.78247833
_cell_angle_gamma   60.00108719
_symmetry_Int_Tables_number   1
_chemical_formula_structural   Li6U2Nb3
_chemical_formula_sum   'Li6 U2 Nb3'
_cell_volume   309.54497483
_cell_formula_units_Z   1
loop_
 _symmetry_equiv_pos_site_id
 _symmetry_equiv_pos_as_xyz
  1  'x, y, z'
loop_
 _atom_site_type_symbol
 _atom_site_label
 _atom_site_symmetry_multiplicity
 _atom_site_fract_x
 _atom_site_fract_y
 _atom_site_fract_z
 _atom_site_occupancy
  Li  Li0  1  0.64726103  0.72040501  0.38708098  1
  Li  Li1  1  0.24525302  0.72040501  0.38708099  1
  Li  Li2  1  0.64729202  0.31842800  0.38698798  1
  Li  Li3  1  0.63680402  0.58994801  0.13644397  1
  Li  Li4  1  0.22418901  0.41537901  0.63327800  1
  Li  Li5  1  0.72715402  0.41537901  0.63327799  1
  Nb  Nb6  1  0.74807303  0.91734201  0.58651197  1
  U  U7  1  0.11558302  0.58665001  0.18218399  1
  Nb  Nb8  1  0.22405703  0.91828401  0.63360199  1
  U  U9  1  0.11571600  0.09079200  0.18247500  1
  Nb  Nb10  1  0.61101701  0.09079200  0.18247499  1
