# generated using pymatgen
data_Nd9Sn7
_symmetry_space_group_name_H-M   'P 1'
_cell_length_a   6.46138287
_cell_length_b   9.43807030
_cell_length_c   9.43806934
_cell_angle_alpha   120.00000000
_cell_angle_beta   90.00000000
_cell_angle_gamma   90.00000000
_symmetry_Int_Tables_number   1
_chemical_formula_structural   Nd9Sn7
_chemical_formula_sum   'Nd9 Sn7'
_cell_volume   498.45100850
_cell_formula_units_Z   1
loop_
 _symmetry_equiv_pos_site_id
 _symmetry_equiv_pos_as_xyz
  1  'x, y, z'
loop_
 _atom_site_type_symbol
 _atom_site_label
 _atom_site_symmetry_multiplicity
 _atom_site_fract_x
 _atom_site_fract_y
 _atom_site_fract_z
 _atom_site_occupancy
  Nd  Nd0  1  -0.00000000  0.66666664  0.33333333  1
  Nd  Nd1  1  0.50000001  0.33333332  0.66666668  1
  Nd  Nd2  1  1.00000002  0.33333332  0.66666668  1
  Nd  Nd3  1  0.50000001  0.66666664  0.33333333  1
  Nd  Nd4  1  0.75000002  0.74741497  0.74741501  1
  Nd  Nd5  1  0.25000001  0.74741497  1.00000002  1
  Nd  Nd6  1  0.25000001  0.99999996  0.74741500  1
  Nd  Nd7  1  0.75000002  0.99999996  0.25258499  1
  Nd  Nd8  1  0.75000002  0.25258499  -0.00000001  1
  Sn  Sn9  1  0.25000001  0.25258499  0.25258500  1
  Sn  Sn10  1  0.75000002  0.38868498  0.38868500  1
  Sn  Sn11  1  0.25000001  0.38868498  -0.00000001  1
  Sn  Sn12  1  0.25000001  0.99999996  0.38868499  1
  Sn  Sn13  1  0.75000002  0.99999996  0.61131500  1
  Sn  Sn14  1  0.75000002  0.61131497  -0.00000001  1
  Sn  Sn15  1  0.25000001  0.61131497  0.61131501  1
