# generated using pymatgen
data_Ce2EuMgIn2Ag
_symmetry_space_group_name_H-M   'P 1'
_cell_length_a   4.41720819
_cell_length_b   7.04304981
_cell_length_c   9.20612907
_cell_angle_alpha   95.57488251
_cell_angle_beta   103.88098145
_cell_angle_gamma   90.00000000
_symmetry_Int_Tables_number   1
_chemical_formula_structural   Ce2EuMgIn2Ag
_chemical_formula_sum   'Ce2 Eu1 Mg1 In2 Ag1'
_cell_volume   276.64849492
_cell_formula_units_Z   1
loop_
 _symmetry_equiv_pos_site_id
 _symmetry_equiv_pos_as_xyz
  1  'x, y, z'
loop_
 _atom_site_type_symbol
 _atom_site_label
 _atom_site_symmetry_multiplicity
 _atom_site_fract_x
 _atom_site_fract_y
 _atom_site_fract_z
 _atom_site_occupancy
  Ce  Ce0  1  0.99745695  0.99904597  0.99491401  1
  Eu  Eu1  1  0.29408798  0.74949598  0.58817600  1
  Ce  Ce2  1  0.71009597  0.25208699  0.42019200  1
  Mg  Mg3  1  0.91566496  0.50794398  0.83133001  1
  In  In4  1  0.62757397  0.74707798  0.25514800  1
  In  In5  1  0.37444698  0.24819599  0.74889401  1
  Ag  Ag6  1  0.08067399  0.49615298  0.16134800  1
