# generated using pymatgen
data_VCr2AgS14
_symmetry_space_group_name_H-M   'P 1'
_cell_length_a   7.26930952
_cell_length_b   7.26930952
_cell_length_c   7.26930952
_cell_angle_alpha   60.00000000
_cell_angle_beta   60.00000000
_cell_angle_gamma   60.00000000
_symmetry_Int_Tables_number   1
_chemical_formula_structural   VCr2AgS14
_chemical_formula_sum   'V1 Cr2 Ag1 S14'
_cell_volume   271.62171409
_cell_formula_units_Z   1
loop_
 _symmetry_equiv_pos_site_id
 _symmetry_equiv_pos_as_xyz
  1  'x, y, z'
loop_
 _atom_site_type_symbol
 _atom_site_label
 _atom_site_symmetry_multiplicity
 _atom_site_fract_x
 _atom_site_fract_y
 _atom_site_fract_z
 _atom_site_occupancy
  V  V0  1  0.00000000  0.00000000  0.00000000  1
  Ag  Ag1  1  0.74999999  0.74999999  0.74999999  1
  Cr  Cr2  1  0.37500000  0.37500000  0.37500000  1
  Cr  Cr3  1  0.37500000  0.37500000  0.87499999  1
  S  S4  1  0.37500000  0.87499999  0.37500000  1
  S  S5  1  0.87499999  0.37500000  0.37500000  1
  S  S6  1  0.43865700  0.06134300  0.43865700  1
  S  S7  1  0.68865699  0.31134300  0.68865699  1
  S  S8  1  0.43865700  0.06134300  0.06134300  1
  S  S9  1  0.06134300  0.43865700  0.06134300  1
  S  S10  1  0.31134300  0.31134300  0.68865699  1
  S  S11  1  0.31134300  0.68865699  0.68865699  1
  S  S12  1  0.68865699  0.31134300  0.31134300  1
  S  S13  1  0.31134300  0.68865699  0.31134300  1
  S  S14  1  0.43865700  0.43865700  0.06134300  1
  S  S15  1  0.06134300  0.06134300  0.43865700  1
  S  S16  1  0.68865699  0.68865699  0.31134300  1
  S  S17  1  0.06134300  0.43865700  0.43865700  1
