# generated using pymatgen
data_SiTc2Os13
_symmetry_space_group_name_H-M   'P 1'
_cell_length_a   5.74649000
_cell_length_b   5.74649000
_cell_length_c   5.74649000
_cell_angle_alpha   90.00000000
_cell_angle_beta   90.00000000
_cell_angle_gamma   90.00000000
_symmetry_Int_Tables_number   1
_chemical_formula_structural   SiTc2Os13
_chemical_formula_sum   'Tc2 Si1 Os13'
_cell_volume   189.76143952
_cell_formula_units_Z   1
loop_
 _symmetry_equiv_pos_site_id
 _symmetry_equiv_pos_as_xyz
  1  'x, y, z'
loop_
 _atom_site_type_symbol
 _atom_site_label
 _atom_site_symmetry_multiplicity
 _atom_site_fract_x
 _atom_site_fract_y
 _atom_site_fract_z
 _atom_site_occupancy
  Tc  Tc0  1  0.00000000  0.00000000  0.00000000  1
  Tc  Tc1  1  0.50000000  0.50000000  0.50000000  1
  Si  Si2  1  0.25000000  0.25000000  0.25000000  1
  Os  Os3  1  0.75000000  0.75000000  0.25000000  1
  Os  Os4  1  0.25000000  0.75000000  0.75000000  1
  Os  Os5  1  0.75000000  0.25000000  0.75000000  1
  Os  Os6  1  0.75000000  0.75000000  0.75000000  1
  Os  Os7  1  0.25000000  0.25000000  0.75000000  1
  Os  Os8  1  0.25000000  0.75000000  0.25000000  1
  Os  Os9  1  0.75000000  0.25000000  0.25000000  1
  Os  Os10  1  0.50000000  0.50000000  0.00000000  1
  Os  Os11  1  0.50000000  0.00000000  0.50000000  1
  Os  Os12  1  0.00000000  0.50000000  0.50000000  1
  Os  Os13  1  0.50000000  0.00000000  0.00000000  1
  Os  Os14  1  0.00000000  0.50000000  0.00000000  1
  Os  Os15  1  0.00000000  0.00000000  0.50000000  1
