# generated using pymatgen
data_Ni
_symmetry_space_group_name_H-M   'P 1'
_cell_length_a   3.74345112
_cell_length_b   7.09549284
_cell_length_c   7.09549284
_cell_angle_alpha   90.00000000
_cell_angle_beta   90.00000000
_cell_angle_gamma   90.00000000
_symmetry_Int_Tables_number   1
_chemical_formula_structural   Ni
_chemical_formula_sum   Ni14
_cell_volume   188.46785979
_cell_formula_units_Z   14
loop_
 _symmetry_equiv_pos_site_id
 _symmetry_equiv_pos_as_xyz
  1  'x, y, z'
loop_
 _atom_site_type_symbol
 _atom_site_label
 _atom_site_symmetry_multiplicity
 _atom_site_fract_x
 _atom_site_fract_y
 _atom_site_fract_z
 _atom_site_occupancy
  Ni  Ni0  1  0.49999998  0.50000001  0.50000001  1
  Ni  Ni1  1  0.00000000  0.00000000  0.00000000  1
  Ni  Ni2  1  0.49999998  0.64673601  0.91488102  1
  Ni  Ni3  1  0.49999998  0.35326401  0.08511900  1
  Ni  Ni4  1  0.00000000  0.14673600  0.58511901  1
  Ni  Ni5  1  0.99999997  0.85326402  0.41488101  1
  Ni  Ni6  1  0.49999998  0.91488102  0.64673601  1
  Ni  Ni7  1  0.49999998  0.08511900  0.35326401  1
  Ni  Ni8  1  0.00000000  0.58511901  0.14673600  1
  Ni  Ni9  1  0.00000000  0.41488101  0.85326402  1
  Ni  Ni10  1  0.49999998  0.78079702  0.21920300  1
  Ni  Ni11  1  0.49999998  0.21920300  0.78079702  1
  Ni  Ni12  1  0.00000000  0.28079701  0.28079701  1
  Ni  Ni13  1  0.00000000  0.71920302  0.71920302  1
