# generated using pymatgen
data_CeGa2
_symmetry_space_group_name_H-M   'P 1'
_cell_length_a   4.56228924
_cell_length_b   7.18720007
_cell_length_c   7.32130384
_cell_angle_alpha   90.00000000
_cell_angle_beta   90.00000000
_cell_angle_gamma   90.00000000
_symmetry_Int_Tables_number   1
_chemical_formula_structural   CeGa2
_chemical_formula_sum   'Ce4 Ga8'
_cell_volume   240.06617924
_cell_formula_units_Z   4
loop_
 _symmetry_equiv_pos_site_id
 _symmetry_equiv_pos_as_xyz
  1  'x, y, z'
loop_
 _atom_site_type_symbol
 _atom_site_label
 _atom_site_symmetry_multiplicity
 _atom_site_fract_x
 _atom_site_fract_y
 _atom_site_fract_z
 _atom_site_occupancy
  Ce  Ce0  1  0.24999999  0.47835700  0.70215001  1
  Ce  Ce1  1  0.24999999  0.97835699  0.79785002  1
  Ce  Ce2  1  0.74999996  0.02164300  0.20215000  1
  Ce  Ce3  1  0.74999996  0.52164299  0.29785001  1
  Ga  Ga4  1  0.74999996  0.84084499  0.55913601  1
  Ga  Ga5  1  0.24999999  0.15915500  0.44086401  1
  Ga  Ga6  1  0.74999996  0.34084500  0.94086402  1
  Ga  Ga7  1  0.24999999  0.65915499  0.05913600  1
  Ga  Ga8  1  0.74999996  0.70363899  0.89277902  1
  Ga  Ga9  1  0.24999999  0.79636099  0.39277901  1
  Ga  Ga10  1  0.24999999  0.29636100  0.10722100  1
  Ga  Ga11  1  0.74999996  0.20363900  0.60722101  1
