# generated using pymatgen
data_H2
_symmetry_space_group_name_H-M   'P 1'
_cell_length_a   5.26434708
_cell_length_b   5.26434708
_cell_length_c   5.32905531
_cell_angle_alpha   94.21158600
_cell_angle_beta   94.21158600
_cell_angle_gamma   91.75762939
_symmetry_Int_Tables_number   1
_chemical_formula_structural   H2
_chemical_formula_sum   H10
_cell_volume   146.79284498
_cell_formula_units_Z   5
loop_
 _symmetry_equiv_pos_site_id
 _symmetry_equiv_pos_as_xyz
  1  'x, y, z'
loop_
 _atom_site_type_symbol
 _atom_site_label
 _atom_site_symmetry_multiplicity
 _atom_site_fract_x
 _atom_site_fract_y
 _atom_site_fract_z
 _atom_site_occupancy
  H  H0  1  0.00000000  0.00000000  0.00000000  1
  H  H1  1  0.50000000  0.49999998  0.50000001  1
  H  H2  1  0.39512100  0.39512098  0.64309400  1
  H  H3  1  0.60487900  0.60487898  0.35690602  1
  H  H4  1  0.76947900  0.76947897  0.85710902  1
  H  H5  1  0.22057102  0.89309397  0.78580501  1
  H  H6  1  0.89309397  0.22057099  0.78580501  1
  H  H7  1  0.10690603  0.77942897  0.21419502  1
  H  H8  1  0.77942897  0.10690600  0.21419502  1
  H  H9  1  0.23052100  0.23052099  0.14289101  1
