# generated using pymatgen
data_Li9MnO10
_symmetry_space_group_name_H-M   'P 1'
_cell_length_a   5.10963678
_cell_length_b   5.13808393
_cell_length_c   7.73116684
_cell_angle_alpha   71.28725433
_cell_angle_beta   71.20237732
_cell_angle_gamma   80.59403992
_symmetry_Int_Tables_number   1
_chemical_formula_structural   Li9MnO10
_chemical_formula_sum   'Li9 Mn1 O10'
_cell_volume   181.58040065
_cell_formula_units_Z   1
loop_
 _symmetry_equiv_pos_site_id
 _symmetry_equiv_pos_as_xyz
  1  'x, y, z'
loop_
 _atom_site_type_symbol
 _atom_site_label
 _atom_site_symmetry_multiplicity
 _atom_site_fract_x
 _atom_site_fract_y
 _atom_site_fract_z
 _atom_site_occupancy
  Li  Li0  1  0.22291304  0.50270098  0.59497397  1
  Li  Li1  1  0.42802805  0.48876098  0.20055998  1
  Li  Li2  1  0.49776102  0.00003900  0.49824598  1
  Li  Li3  1  0.78418307  0.51217998  0.40263297  1
  Li  Li4  1  0.59008606  0.50434798  0.79423596  1
  Li  Li5  1  0.10384707  0.99294396  0.30369196  1
  Li  Li6  1  0.88556704  0.01654300  0.69603797  1
  Li  Li7  1  0.00716103  0.50252898  0.99540496  1
  Li  Li8  1  0.30194708  0.99741396  0.89404194  1
  Mn  Mn9  1  0.69700703  0.00340000  0.09947599  1
  O  O10  1  0.01976805  0.77666897  0.15384097  1
  O  O11  1  0.13000902  0.22753099  0.45534898  1
  O  O12  1  0.35525003  0.23070199  0.06250299  1
  O  O13  1  0.23056006  0.75765197  0.75190596  1
  O  O14  1  0.44175207  0.77753097  0.32719096  1
  O  O15  1  0.57088004  0.24045199  0.65019397  1
  O  O16  1  0.77282305  0.23124399  0.23412898  1
  O  O17  1  0.66363308  0.77273597  0.94787595  1
  O  O18  1  0.86941609  0.77766597  0.54378395  1
  O  O19  1  0.93561506  0.22813599  0.85904796  1
