# generated using pymatgen
data_Ca2TlSn3
_symmetry_space_group_name_H-M   'P 1'
_cell_length_a   4.28257608
_cell_length_b   4.28257608
_cell_length_c   8.86816692
_cell_angle_alpha   103.97259521
_cell_angle_beta   103.97259521
_cell_angle_gamma   90.00000000
_symmetry_Int_Tables_number   1
_chemical_formula_structural   Ca2TlSn3
_chemical_formula_sum   'Ca2 Tl1 Sn3'
_cell_volume   152.86984284
_cell_formula_units_Z   1
loop_
 _symmetry_equiv_pos_site_id
 _symmetry_equiv_pos_as_xyz
  1  'x, y, z'
loop_
 _atom_site_type_symbol
 _atom_site_label
 _atom_site_symmetry_multiplicity
 _atom_site_fract_x
 _atom_site_fract_y
 _atom_site_fract_z
 _atom_site_occupancy
  Ca  Ca0  1  0.32338099  0.32338099  0.64676201  1
  Ca  Ca1  1  0.67661898  0.67661898  0.35323799  1
  Tl  Tl2  1  -0.00000000  0.49999999  1.00000001  1
  Sn  Sn3  1  0.49999999  0.00000000  -0.00000000  1
  Sn  Sn4  1  0.13310900  0.13310900  0.26621800  1
  Sn  Sn5  1  0.86689097  0.86689098  0.73378200  1
