# generated using pymatgen
data_DyInPd
_symmetry_space_group_name_H-M   'P 1'
_cell_length_a   4.10132790
_cell_length_b   7.66200018
_cell_length_c   7.66200018
_cell_angle_alpha   120.00000000
_cell_angle_beta   90.00000000
_cell_angle_gamma   90.00000000
_symmetry_Int_Tables_number   1
_chemical_formula_structural   DyInPd
_chemical_formula_sum   'Dy3 In3 Pd3'
_cell_volume   208.51602598
_cell_formula_units_Z   3
loop_
 _symmetry_equiv_pos_site_id
 _symmetry_equiv_pos_as_xyz
  1  'x, y, z'
loop_
 _atom_site_type_symbol
 _atom_site_label
 _atom_site_symmetry_multiplicity
 _atom_site_fract_x
 _atom_site_fract_y
 _atom_site_fract_z
 _atom_site_occupancy
  Dy  Dy0  1  0.50000001  0.00000000  0.58875801  1
  Dy  Dy1  1  0.50000001  0.58875799  1.00000003  1
  Dy  Dy2  1  0.50000001  0.41124200  0.41124202  1
  In  In3  1  1.00000003  0.24942900  1.00000002  1
  In  In4  1  -0.00000000  0.00000000  0.24942900  1
  In  In5  1  1.00000003  0.75057099  0.75057103  1
  Pd  Pd6  1  1.00000003  0.66666666  0.33333336  1
  Pd  Pd7  1  0.50000001  0.00000000  -0.00000000  1
  Pd  Pd8  1  1.00000003  0.33333333  0.66666669  1
