# generated using pymatgen
data_MnBeSiH
_symmetry_space_group_name_H-M   'P 1'
_cell_length_a   4.09110022
_cell_length_b   4.09110022
_cell_length_c   4.76280022
_cell_angle_alpha   90.00000000
_cell_angle_beta   90.00000000
_cell_angle_gamma   120.00000000
_symmetry_Int_Tables_number   1
_chemical_formula_structural   MnBeSiH
_chemical_formula_sum   'Mn1 Be1 Si1 H1'
_cell_volume   69.03562050
_cell_formula_units_Z   1
loop_
 _symmetry_equiv_pos_site_id
 _symmetry_equiv_pos_as_xyz
  1  'x, y, z'
loop_
 _atom_site_type_symbol
 _atom_site_label
 _atom_site_symmetry_multiplicity
 _atom_site_fract_x
 _atom_site_fract_y
 _atom_site_fract_z
 _atom_site_occupancy
  Mn  Mn0  1  0.00000000  0.00000000  0.00000000  1
  Be  Be1  1  0.33333336  0.66666672  0.44319998  1
  Si  Si2  1  0.66666665  0.33333336  0.56629997  1
  H  H3  1  0.33333336  0.66666672  0.07500000  1
