# generated using pymatgen
data_CsKBr2
_symmetry_space_group_name_H-M   'P 1'
_cell_length_a   8.03166676
_cell_length_b   9.12818241
_cell_length_c   13.27631187
_cell_angle_alpha   90.00000000
_cell_angle_beta   90.00000000
_cell_angle_gamma   114.25604248
_symmetry_Int_Tables_number   1
_chemical_formula_structural   CsKBr2
_chemical_formula_sum   'Cs4 K4 Br8'
_cell_volume   887.41815748
_cell_formula_units_Z   4
loop_
 _symmetry_equiv_pos_site_id
 _symmetry_equiv_pos_as_xyz
  1  'x, y, z'
loop_
 _atom_site_type_symbol
 _atom_site_label
 _atom_site_symmetry_multiplicity
 _atom_site_fract_x
 _atom_site_fract_y
 _atom_site_fract_z
 _atom_site_occupancy
  K  K0  1  0.58521802  0.02612100  0.66810401  1
  Cs  Cs1  1  0.91478195  0.97387902  0.16810400  1
  K  K2  1  0.41478194  0.97387902  0.33189600  1
  K  K3  1  0.08521800  0.02612100  0.83189601  1
  Cs  Cs4  1  0.71557501  0.21992500  0.47060500  1
  K  K5  1  0.78442496  0.78007502  0.97060501  1
  Cs  Cs6  1  0.28442495  0.78007502  0.52939501  1
  Cs  Cs7  1  0.21557499  0.21992500  0.02939500  1
  Br  Br8  1  0.82623396  0.83222402  0.65457501  1
  Br  Br9  1  0.67376601  0.16777600  0.15457500  1
  Br  Br10  1  0.17376599  0.16777600  0.34542500  1
  Br  Br11  1  0.32623395  0.83222402  0.84542501  1
  Br  Br12  1  0.90845101  0.26716201  0.78963601  1
  Br  Br13  1  0.59154896  0.73283802  0.28963600  1
  Br  Br14  1  0.09154895  0.73283802  0.21036400  1
  Br  Br15  1  0.40845099  0.26716201  0.71036401  1
