# generated using pymatgen
data_CePd
_symmetry_space_group_name_H-M   'P 1'
_cell_length_a   7.35455179
_cell_length_b   7.79135799
_cell_length_c   9.91943359
_cell_angle_alpha   110.34231567
_cell_angle_beta   100.70486450
_cell_angle_gamma   103.47998810
_symmetry_Int_Tables_number   1
_chemical_formula_structural   CePd
_chemical_formula_sum   'Ce9 Pd9'
_cell_volume   495.59026583
_cell_formula_units_Z   9
loop_
 _symmetry_equiv_pos_site_id
 _symmetry_equiv_pos_as_xyz
  1  'x, y, z'
loop_
 _atom_site_type_symbol
 _atom_site_label
 _atom_site_symmetry_multiplicity
 _atom_site_fract_x
 _atom_site_fract_y
 _atom_site_fract_z
 _atom_site_occupancy
  Ce  Ce0  1  0.32614601  0.01388900  0.28876801  1
  Ce  Ce1  1  0.99963106  0.99985000  0.99948300  1
  Ce  Ce2  1  0.50000405  0.99987300  0.99967600  1
  Ce  Ce3  1  0.17403805  0.98634500  0.71208599  1
  Ce  Ce4  1  0.67417106  0.98636000  0.71201199  1
  Ce  Ce5  1  0.82575402  0.01367100  0.28741200  1
  Ce  Ce6  1  0.81603803  0.27894200  0.98811802  1
  Ce  Ce7  1  0.31603902  0.27904000  0.98766202  1
  Pd  Pd8  1  0.18440004  0.72119000  0.01367198  1
  Ce  Ce9  1  0.68391904  0.72067200  0.01160498  1
  Pd  Pd10  1  0.64853202  0.29473100  0.30683400  1
  Pd  Pd11  1  0.15009502  0.29464900  0.30657600  1
  Pd  Pd12  1  0.35057204  0.70493600  0.69391400  1
  Pd  Pd13  1  0.85088405  0.70475100  0.69378000  1
  Pd  Pd14  1  0.45525502  0.20457500  0.61672201  1
  Pd  Pd15  1  0.95525303  0.20407500  0.61685601  1
  Pd  Pd16  1  0.54429005  0.79608300  0.38237999  1
  Pd  Pd17  1  0.04497804  0.79636700  0.38244399  1
