# generated using pymatgen
data_CeGa2
_symmetry_space_group_name_H-M   'P 1'
_cell_length_a   5.68540621
_cell_length_b   5.68540621
_cell_length_c   9.89323330
_cell_angle_alpha   73.30133057
_cell_angle_beta   73.30133057
_cell_angle_gamma   59.99999619
_symmetry_Int_Tables_number   1
_chemical_formula_structural   CeGa2
_chemical_formula_sum   'Ce4 Ga8'
_cell_volume   261.25600419
_cell_formula_units_Z   4
loop_
 _symmetry_equiv_pos_site_id
 _symmetry_equiv_pos_as_xyz
  1  'x, y, z'
loop_
 _atom_site_type_symbol
 _atom_site_label
 _atom_site_symmetry_multiplicity
 _atom_site_fract_x
 _atom_site_fract_y
 _atom_site_fract_z
 _atom_site_occupancy
  Ce  Ce0  1  0.62487802  0.62487802  0.12536596  1
  Ce  Ce1  1  0.00191500  0.00191500  0.99425497  1
  Ce  Ce2  1  0.49841502  0.49841501  0.50475495  1
  Ce  Ce3  1  0.12516200  0.12516200  0.62451397  1
  Ga  Ga4  1  0.56394702  0.56394701  0.80855294  1
  Ga  Ga5  1  0.06305400  0.06305400  0.31613699  1
  Ga  Ga6  1  0.06355301  0.56394701  0.80855295  1
  Ga  Ga7  1  0.55775502  0.06305400  0.31613697  1
  Ga  Ga8  1  0.81212203  0.81212202  0.56363393  1
  Ga  Ga9  1  0.31219701  0.31219701  0.06340898  1
  Ga  Ga10  1  0.56394702  0.06355300  0.80855295  1
  Ga  Ga11  1  0.06305401  0.55775501  0.31613697  1
