# generated using pymatgen
data_Nd7Ni11
_symmetry_space_group_name_H-M   'P 1'
_cell_length_a   7.00749922
_cell_length_b   7.77751017
_cell_length_c   7.77751064
_cell_angle_alpha   60.00000381
_cell_angle_beta   90.00000000
_cell_angle_gamma   90.00000000
_symmetry_Int_Tables_number   1
_chemical_formula_structural   Nd7Ni11
_chemical_formula_sum   'Nd7 Ni11'
_cell_volume   367.09198971
_cell_formula_units_Z   1
loop_
 _symmetry_equiv_pos_site_id
 _symmetry_equiv_pos_as_xyz
  1  'x, y, z'
loop_
 _atom_site_type_symbol
 _atom_site_label
 _atom_site_symmetry_multiplicity
 _atom_site_fract_x
 _atom_site_fract_y
 _atom_site_fract_z
 _atom_site_occupancy
  Nd  Nd0  1  0.00000000  0.00000000  0.72197600  1
  Nd  Nd1  1  0.49999998  0.27802399  0.00000001  1
  Nd  Nd2  1  0.49999998  0.72197598  0.27802402  1
  Nd  Nd3  1  0.00000000  0.72197598  0.27802402  1
  Nd  Nd4  1  0.00000000  0.27802399  0.00000001  1
  Nd  Nd5  1  0.49999998  0.00000000  0.72197600  1
  Nd  Nd6  1  0.74999998  0.97838497  0.39344002  1
  Ni  Ni7  1  0.74999998  0.62817498  0.97838401  1
  Ni  Ni8  1  0.74999998  0.39344099  0.62817401  1
  Ni  Ni9  1  0.24999999  0.02161500  0.37182600  1
  Ni  Ni10  1  0.24999999  0.60655898  0.02161601  1
  Ni  Ni11  1  0.24999999  0.37182499  0.60656001  1
  Ni  Ni12  1  0.74999998  0.00000000  0.00000000  1
  Ni  Ni13  1  0.24999999  0.00000000  0.00000000  1
  Ni  Ni14  1  0.96646397  0.33333332  0.33333334  1
  Ni  Ni15  1  0.53353598  0.33333332  0.33333334  1
  Ni  Ni16  1  0.03353600  0.66666665  0.66666668  1
  Ni  Ni17  1  0.46646399  0.66666665  0.66666668  1
