# generated using pymatgen
data_Li7Be(NiO3)2
_symmetry_space_group_name_H-M   'P 1'
_cell_length_a   3.18878007
_cell_length_b   5.59676123
_cell_length_c   11.00098515
_cell_angle_alpha   90.00000000
_cell_angle_beta   90.00000000
_cell_angle_gamma   90.00000000
_symmetry_Int_Tables_number   1
_chemical_formula_structural   Li7Be(NiO3)2
_chemical_formula_sum   'Li7 Be1 Ni2 O6'
_cell_volume   196.33282891
_cell_formula_units_Z   1
loop_
 _symmetry_equiv_pos_site_id
 _symmetry_equiv_pos_as_xyz
  1  'x, y, z'
loop_
 _atom_site_type_symbol
 _atom_site_label
 _atom_site_symmetry_multiplicity
 _atom_site_fract_x
 _atom_site_fract_y
 _atom_site_fract_z
 _atom_site_occupancy
  Be  Be0  1  0.24999999  0.08288700  0.85777399  1
  Li  Li1  1  0.24999999  0.58288698  0.64222599  1
  Li  Li2  1  0.74999998  0.91711296  0.14222600  1
  Li  Li3  1  0.74999998  0.41711298  0.35777400  1
  Li  Li4  1  0.24999999  0.41776998  0.10211500  1
  Li  Li5  1  0.24999999  0.91776996  0.39788499  1
  Li  Li6  1  0.74999998  0.58222998  0.89788499  1
  Li  Li7  1  0.74999998  0.08223000  0.60211499  1
  Ni  Ni8  1  0.24999999  0.15849599  0.24366000  1
  Ni  Ni9  1  0.24999999  0.65849597  0.25634000  1
  O  O10  1  0.74999998  0.84150397  0.75633999  1
  O  O11  1  0.74999998  0.34150399  0.74365999  1
  O  O12  1  0.24999999  0.74342597  0.99336699  1
  O  O13  1  0.24999999  0.24342599  0.50663299  1
  O  O14  1  0.74999998  0.25657399  0.00663300  1
  O  O15  1  0.74999998  0.75657397  0.49336699  1
