# generated using pymatgen
data_Ce3Pd4
_symmetry_space_group_name_H-M   'P 1'
_cell_length_a   5.60033512
_cell_length_b   7.54534149
_cell_length_c   7.54534149
_cell_angle_alpha   114.09079742
_cell_angle_beta   104.32418823
_cell_angle_gamma   104.32418823
_symmetry_Int_Tables_number   1
_chemical_formula_structural   Ce3Pd4
_chemical_formula_sum   'Ce6 Pd8'
_cell_volume   259.22122665
_cell_formula_units_Z   2
loop_
 _symmetry_equiv_pos_site_id
 _symmetry_equiv_pos_as_xyz
  1  'x, y, z'
loop_
 _atom_site_type_symbol
 _atom_site_label
 _atom_site_symmetry_multiplicity
 _atom_site_fract_x
 _atom_site_fract_y
 _atom_site_fract_z
 _atom_site_occupancy
  Ce  Ce0  1  0.99534306  0.26074500  0.39207703  1
  Ce  Ce1  1  0.73459804  0.13133200  0.73925502  1
  Ce  Ce2  1  0.60326608  0.60792300  0.86866801  1
  Ce  Ce3  1  0.00465708  0.73925501  0.60792299  1
  Ce  Ce4  1  0.26540210  0.86866801  0.26074501  1
  Ce  Ce5  1  0.39673405  0.39207700  0.13133201  1
  Pd  Pd6  1  0.00000000  0.00000000  0.00000000  1
  Pd  Pd7  1  0.50000002  0.00000000  0.00000002  1
  Pd  Pd8  1  0.55944705  0.32139400  0.48215302  1
  Pd  Pd9  1  0.23805302  0.16075900  0.67860600  1
  Pd  Pd10  1  0.07729406  0.51784700  0.83924099  1
  Pd  Pd11  1  0.44055308  0.67860600  0.51784701  1
  Pd  Pd12  1  0.76194711  0.83924101  0.32139403  1
  Pd  Pd13  1  0.92270608  0.48215300  0.16075903  1
