# generated using pymatgen
data_Dy2Lu(InPd)3
_symmetry_space_group_name_H-M   'P 1'
_cell_length_a   3.99498200
_cell_length_b   7.35413408
_cell_length_c   7.35413408
_cell_angle_alpha   120.00000000
_cell_angle_beta   90.00000000
_cell_angle_gamma   90.00000000
_symmetry_Int_Tables_number   1
_chemical_formula_structural   Dy2Lu(InPd)3
_chemical_formula_sum   'Dy2 Lu1 In3 Pd3'
_cell_volume   187.11497530
_cell_formula_units_Z   1
loop_
 _symmetry_equiv_pos_site_id
 _symmetry_equiv_pos_as_xyz
  1  'x, y, z'
loop_
 _atom_site_type_symbol
 _atom_site_label
 _atom_site_symmetry_multiplicity
 _atom_site_fract_x
 _atom_site_fract_y
 _atom_site_fract_z
 _atom_site_occupancy
  Dy  Dy0  1  1.00000000  0.00000000  0.41088900  1
  Dy  Dy1  1  1.00000000  0.41088900  1.00000001  1
  Lu  Lu2  1  1.00000000  0.58911100  0.58911101  1
  In  In3  1  0.50000000  0.99999999  0.75632401  1
  In  In4  1  0.50000000  0.75632400  1.00000001  1
  In  In5  1  0.50000000  0.24367600  0.24367600  1
  Pd  Pd6  1  0.00000000  0.00000000  0.00000000  1
  Pd  Pd7  1  0.50000000  0.33333333  0.66666667  1
  Pd  Pd8  1  0.50000000  0.66666666  0.33333334  1
