# generated using pymatgen
data_Cs2RbNb(TeSe)2
_symmetry_space_group_name_H-M   'P 1'
_cell_length_a   4.12503815
_cell_length_b   11.32680416
_cell_length_c   11.32680511
_cell_angle_alpha   120.00000000
_cell_angle_beta   90.00000000
_cell_angle_gamma   90.00000000
_symmetry_Int_Tables_number   1
_chemical_formula_structural   Cs2RbNb(TeSe)2
_chemical_formula_sum   'Cs2 Rb1 Nb1 Te2 Se2'
_cell_volume   458.32486664
_cell_formula_units_Z   1
loop_
 _symmetry_equiv_pos_site_id
 _symmetry_equiv_pos_as_xyz
  1  'x, y, z'
loop_
 _atom_site_type_symbol
 _atom_site_label
 _atom_site_symmetry_multiplicity
 _atom_site_fract_x
 _atom_site_fract_y
 _atom_site_fract_z
 _atom_site_occupancy
  Cs  Cs0  1  0.74999997  0.33333334  0.66666667  1
  Nb  Nb1  1  0.24999999  0.66666667  0.33333336  1
  Rb  Rb2  1  0.74999997  0.78772201  0.21227804  1
  Cs  Cs3  1  0.24999999  0.21227800  0.42455600  1
  Se  Se4  1  0.24999999  0.57544401  0.78772201  1
  Se  Se5  1  0.24999999  0.21227800  0.78772199  1
  Te  Te6  1  0.74999997  0.78772201  0.57544403  1
  Te  Te7  1  0.74999997  0.42455600  0.21227802  1
