# generated using pymatgen
data_Yb2CeIn3
_symmetry_space_group_name_H-M   'P 1'
_cell_length_a   5.25215387
_cell_length_b   6.00541019
_cell_length_c   7.39643717
_cell_angle_alpha   90.00000000
_cell_angle_beta   90.00000000
_cell_angle_gamma   90.00000000
_symmetry_Int_Tables_number   1
_chemical_formula_structural   Yb2CeIn3
_chemical_formula_sum   'Yb2 Ce1 In3'
_cell_volume   233.29352778
_cell_formula_units_Z   1
loop_
 _symmetry_equiv_pos_site_id
 _symmetry_equiv_pos_as_xyz
  1  'x, y, z'
loop_
 _atom_site_type_symbol
 _atom_site_label
 _atom_site_symmetry_multiplicity
 _atom_site_fract_x
 _atom_site_fract_y
 _atom_site_fract_z
 _atom_site_occupancy
  Ce  Ce0  1  0.50000001  0.74999998  0.71100998  1
  Yb  Yb1  1  0.50000001  0.24999999  0.28898999  1
  In  In2  1  0.00000000  0.74999998  0.29517199  1
  Yb  Yb3  1  -0.00000000  0.24999999  0.70482798  1
  In  In4  1  0.00000000  0.00000000  0.00000000  1
  In  In5  1  -0.00000000  0.49999998  0.00000000  1
