# generated using pymatgen
data_CeGaSiP2
_symmetry_space_group_name_H-M   'P 1'
_cell_length_a   4.21390009
_cell_length_b   5.36571503
_cell_length_c   5.36957455
_cell_angle_alpha   119.97621918
_cell_angle_beta   113.10309601
_cell_angle_gamma   90.00000000
_symmetry_Int_Tables_number   1
_chemical_formula_structural   CeGaSiP2
_chemical_formula_sum   'Ce1 Ga1 Si1 P2'
_cell_volume   93.76000000
_cell_formula_units_Z   1
loop_
 _symmetry_equiv_pos_site_id
 _symmetry_equiv_pos_as_xyz
  1  'x, y, z'
loop_
 _atom_site_type_symbol
 _atom_site_label
 _atom_site_symmetry_multiplicity
 _atom_site_fract_x
 _atom_site_fract_y
 _atom_site_fract_z
 _atom_site_occupancy
  Ce  Ce0  1  0.20162002  0.70161999  0.40323999  1
  Ga  Ga1  1  0.79838001  0.29838000  0.59676002  1
  Si  Si2  1  0.00000000  0.00000000  0.00000000  1
  P  P3  1  0.50000001  0.26702500  0.00000002  1
  P  P4  1  0.50000002  0.73297499  0.00000001  1
