# generated using pymatgen
data_LiFe(SbO2)2
_symmetry_space_group_name_H-M   'P 1'
_cell_length_a   3.13255000
_cell_length_b   5.16150713
_cell_length_c   5.81082201
_cell_angle_alpha   89.99577332
_cell_angle_beta   90.00000000
_cell_angle_gamma   90.00000000
_symmetry_Int_Tables_number   1
_chemical_formula_structural   LiFe(SbO2)2
_chemical_formula_sum   'Li1 Fe1 Sb2 O4'
_cell_volume   93.95331651
_cell_formula_units_Z   1
loop_
 _symmetry_equiv_pos_site_id
 _symmetry_equiv_pos_as_xyz
  1  'x, y, z'
loop_
 _atom_site_type_symbol
 _atom_site_label
 _atom_site_symmetry_multiplicity
 _atom_site_fract_x
 _atom_site_fract_y
 _atom_site_fract_z
 _atom_site_occupancy
  Fe  Fe0  1  0.50000000  0.00631300  0.19331400  1
  Li  Li1  1  0.00000000  0.49685099  0.70157103  1
  Sb  Sb2  1  -0.00000000  0.99640997  0.80042905  1
  Sb  Sb3  1  0.50000000  0.50509999  0.30531503  1
  O  O4  1  0.50000000  0.68685798  0.93448404  1
  O  O5  1  0.50000000  0.18584800  0.56558301  1
  O  O6  1  -0.00000000  0.31200699  0.07381802  1
  O  O7  1  0.00000000  0.81061298  0.42548604  1
