# generated using pymatgen
data_MgAlGa2
_symmetry_space_group_name_H-M   'P 1'
_cell_length_a   3.97452998
_cell_length_b   4.30829191
_cell_length_c   5.87534523
_cell_angle_alpha   90.00000000
_cell_angle_beta   109.76956177
_cell_angle_gamma   90.00000000
_symmetry_Int_Tables_number   1
_chemical_formula_structural   MgAlGa2
_chemical_formula_sum   'Mg1 Al1 Ga2'
_cell_volume   94.67643049
_cell_formula_units_Z   1
loop_
 _symmetry_equiv_pos_site_id
 _symmetry_equiv_pos_as_xyz
  1  'x, y, z'
loop_
 _atom_site_type_symbol
 _atom_site_label
 _atom_site_symmetry_multiplicity
 _atom_site_fract_x
 _atom_site_fract_y
 _atom_site_fract_z
 _atom_site_occupancy
  Al  Al0  1  0.85923102  0.75000002  0.71846203  1
  Mg  Mg1  1  0.14076900  0.25000001  0.28153801  1
  Ga  Ga2  1  0.58488701  0.75000002  0.16977402  1
  Ga  Ga3  1  0.41511301  0.25000001  0.83022602  1
