# generated using pymatgen
data_Cs2VO7
_symmetry_space_group_name_H-M   'P 1'
_cell_length_a   5.99944019
_cell_length_b   6.00502825
_cell_length_c   10.52296066
_cell_angle_alpha   76.09277344
_cell_angle_beta   73.43730927
_cell_angle_gamma   60.03077698
_symmetry_Int_Tables_number   1
_chemical_formula_structural   Cs2VO7
_chemical_formula_sum   'Cs4 V2 O14'
_cell_volume   312.59496760
_cell_formula_units_Z   2
loop_
 _symmetry_equiv_pos_site_id
 _symmetry_equiv_pos_as_xyz
  1  'x, y, z'
loop_
 _atom_site_type_symbol
 _atom_site_label
 _atom_site_symmetry_multiplicity
 _atom_site_fract_x
 _atom_site_fract_y
 _atom_site_fract_z
 _atom_site_occupancy
  Cs  Cs0  1  0.87125996  0.87012098  0.38735901  1
  Cs  Cs1  1  0.12873999  0.12987900  0.61264102  1
  Cs  Cs2  1  0.27639399  0.29896099  0.14825101  1
  Cs  Cs3  1  0.72360596  0.70103898  0.85174903  1
  V  V4  1  0.00000000  0.00000000  0.00000000  1
  V  V5  1  0.57151197  0.61158899  0.24538701  1
  O  O6  1  0.42848798  0.38841099  0.75461302  1
  O  O7  1  0.49999997  0.49999999  0.50000002  1
  O  O8  1  0.84960597  0.40214499  0.36645800  1
  O  O9  1  0.15039398  0.59785499  0.63354203  1
  O  O10  1  0.61820897  0.59785499  0.63354202  1
  O  O11  1  0.38179098  0.40214499  0.36645801  1
  O  O12  1  0.76149397  0.36512999  0.11188200  1
  O  O13  1  0.23850598  0.63486998  0.88811803  1
  O  O14  1  0.37496897  0.85797398  0.39208802  1
  O  O15  1  0.62503098  0.14202600  0.60791201  1
  O  O16  1  0.75426896  0.81616898  0.14662501  1
  O  O17  1  0.24573099  0.18383100  0.85337502  1
  O  O18  1  0.71706298  0.18383100  0.85337502  1
  O  O19  1  0.28293697  0.81616898  0.14662501  1
