# generated using pymatgen
data_Ce2Al3Si4
_symmetry_space_group_name_H-M   'P 1'
_cell_length_a   6.01727581
_cell_length_b   7.88249493
_cell_length_c   8.00445080
_cell_angle_alpha   90.00000000
_cell_angle_beta   112.07813263
_cell_angle_gamma   90.00000000
_symmetry_Int_Tables_number   1
_chemical_formula_structural   Ce2Al3Si4
_chemical_formula_sum   'Ce4 Al6 Si8'
_cell_volume   351.82060398
_cell_formula_units_Z   2
loop_
 _symmetry_equiv_pos_site_id
 _symmetry_equiv_pos_as_xyz
  1  'x, y, z'
loop_
 _atom_site_type_symbol
 _atom_site_label
 _atom_site_symmetry_multiplicity
 _atom_site_fract_x
 _atom_site_fract_y
 _atom_site_fract_z
 _atom_site_occupancy
  Ce  Ce0  1  0.11350800  0.41756800  0.22701601  1
  Ce  Ce1  1  0.88649203  0.58243201  0.77298404  1
  Ce  Ce2  1  0.38649201  0.91756801  0.77298404  1
  Ce  Ce3  1  0.61350802  0.08243200  0.22701601  1
  Al  Al4  1  0.00000000  0.00000000  0.00000000  1
  Al  Al5  1  0.50000002  0.50000000  0.00000000  1
  Al  Al6  1  0.03213400  0.25000000  0.56426803  1
  Al  Al7  1  0.46786602  0.75000001  0.43573202  1
  Al  Al8  1  0.96786603  0.75000001  0.43573202  1
  Al  Al9  1  0.53213402  0.25000000  0.56426803  1
  Si  Si10  1  0.20286401  0.25000000  0.90572804  1
  Si  Si11  1  0.29713601  0.75000001  0.09427200  1
  Si  Si12  1  0.79713603  0.75000001  0.09427201  1
  Si  Si13  1  0.70286402  0.25000000  0.90572804  1
  Si  Si14  1  0.18437501  0.05059600  0.36875002  1
  Si  Si15  1  0.81562503  0.94940401  0.63125003  1
  Si  Si16  1  0.31562501  0.55059601  0.63125003  1
  Si  Si17  1  0.68437502  0.44940400  0.36875002  1
