# generated using pymatgen
data_K3CuAg3
_symmetry_space_group_name_H-M   'P 1'
_cell_length_a   5.40432405
_cell_length_b   5.40432405
_cell_length_c   9.50892544
_cell_angle_alpha   106.50930786
_cell_angle_beta   106.50930786
_cell_angle_gamma   90.00000000
_symmetry_Int_Tables_number   1
_chemical_formula_structural   K3CuAg3
_chemical_formula_sum   'K3 Cu1 Ag3'
_cell_volume   254.31037266
_cell_formula_units_Z   1
loop_
 _symmetry_equiv_pos_site_id
 _symmetry_equiv_pos_as_xyz
  1  'x, y, z'
loop_
 _atom_site_type_symbol
 _atom_site_label
 _atom_site_symmetry_multiplicity
 _atom_site_fract_x
 _atom_site_fract_y
 _atom_site_fract_z
 _atom_site_occupancy
  K  K0  1  0.64409799  0.64409799  0.28819599  1
  K  K1  1  0.35590199  0.35590199  0.71180401  1
  Cu  Cu2  1  0.00000000  0.00000000  0.00000000  1
  K  K3  1  0.84351198  0.84351199  0.68702400  1
  Ag  Ag4  1  0.15648800  0.15648800  0.31297600  1
  Ag  Ag5  1  0.49999999  0.00000000  -0.00000000  1
  Ag  Ag6  1  -0.00000000  0.49999999  -0.00000000  1
