# generated using pymatgen
data_Ce2PrNdMgSn3
_symmetry_space_group_name_H-M   'P 1'
_cell_length_a   6.06685400
_cell_length_b   6.12549400
_cell_length_c   6.12549400
_cell_angle_alpha   102.89994049
_cell_angle_beta   90.00000000
_cell_angle_gamma   90.00000000
_symmetry_Int_Tables_number   1
_chemical_formula_structural   Ce2PrNdMgSn3
_chemical_formula_sum   'Ce2 Pr1 Nd1 Mg1 Sn3'
_cell_volume   221.89326290
_cell_formula_units_Z   1
loop_
 _symmetry_equiv_pos_site_id
 _symmetry_equiv_pos_as_xyz
  1  'x, y, z'
loop_
 _atom_site_type_symbol
 _atom_site_label
 _atom_site_symmetry_multiplicity
 _atom_site_fract_x
 _atom_site_fract_y
 _atom_site_fract_z
 _atom_site_occupancy
  Ce  Ce0  1  0.75000000  0.13810600  0.50104098  1
  Pr  Pr1  1  0.25000000  0.49895898  0.86189397  1
  Ce  Ce2  1  0.25000000  0.86189397  0.49895897  1
  Nd  Nd3  1  0.75000000  0.50104098  0.13810599  1
  Mg  Mg4  1  0.75000000  0.68987698  0.68987697  1
  Sn  Sn5  1  0.25000000  0.31012299  0.31012299  1
  Sn  Sn6  1  0.50000000  0.00000000  -0.00000000  1
  Sn  Sn7  1  0.00000000  0.00000000  0.00000000  1
