# generated using pymatgen
data_Nd2Al2(SiC)3
_symmetry_space_group_name_H-M   'P 1'
_cell_length_a   3.80404210
_cell_length_b   5.83282661
_cell_length_c   7.07858801
_cell_angle_alpha   90.00000000
_cell_angle_beta   90.00000000
_cell_angle_gamma   109.03157043
_symmetry_Int_Tables_number   1
_chemical_formula_structural   Nd2Al2(SiC)3
_chemical_formula_sum   'Nd2 Al2 Si3 C3'
_cell_volume   148.47680440
_cell_formula_units_Z   1
loop_
 _symmetry_equiv_pos_site_id
 _symmetry_equiv_pos_as_xyz
  1  'x, y, z'
loop_
 _atom_site_type_symbol
 _atom_site_label
 _atom_site_symmetry_multiplicity
 _atom_site_fract_x
 _atom_site_fract_y
 _atom_site_fract_z
 _atom_site_occupancy
  Nd  Nd0  1  0.04483100  0.08966200  0.75000000  1
  Nd  Nd1  1  0.95516903  0.91033805  0.25000000  1
  Al  Al2  1  0.76928801  0.53857603  0.75000000  1
  Al  Al3  1  0.23071202  0.46142402  0.25000000  1
  Si  Si4  1  0.66572000  0.33144002  0.05356400  1
  Si  Si5  1  0.33428003  0.66856003  0.94643600  1
  Si  Si6  1  0.66572000  0.33144002  0.44643600  1
  C  C7  1  0.33428003  0.66856003  0.55356400  1
  C  C8  1  0.49999999  0.00000000  0.50000000  1
  C  C9  1  0.49999999  0.00000000  1.00000000  1
