# generated using pymatgen
data_Na
_symmetry_space_group_name_H-M   'P 1'
_cell_length_a   6.33781719
_cell_length_b   7.82700777
_cell_length_c   7.82700825
_cell_angle_alpha   60.00000000
_cell_angle_beta   90.00000000
_cell_angle_gamma   90.00000000
_symmetry_Int_Tables_number   1
_chemical_formula_structural   Na
_chemical_formula_sum   Na8
_cell_volume   336.24969290
_cell_formula_units_Z   8
loop_
 _symmetry_equiv_pos_site_id
 _symmetry_equiv_pos_as_xyz
  1  'x, y, z'
loop_
 _atom_site_type_symbol
 _atom_site_label
 _atom_site_symmetry_multiplicity
 _atom_site_fract_x
 _atom_site_fract_y
 _atom_site_fract_z
 _atom_site_occupancy
  Na  Na0  1  0.74999998  0.66052602  0.16973699  1
  Na  Na1  1  0.74999998  0.16973701  0.16973700  1
  Na  Na2  1  0.74999998  0.16973701  0.66052599  1
  Na  Na3  1  0.24999999  0.33947401  0.83026299  1
  Na  Na4  1  0.24999999  0.83026303  0.83026298  1
  Na  Na5  1  0.24999999  0.83026303  0.33947398  1
  Na  Na6  1  0.24999999  0.33333335  0.33333333  1
  Na  Na7  1  0.74999998  0.66666669  0.66666665  1
