# generated using pymatgen
data_Li5Mn4Ni7
_symmetry_space_group_name_H-M   'P 1'
_cell_length_a   6.55433989
_cell_length_b   6.55433989
_cell_length_c   6.78734589
_cell_angle_alpha   90.00000000
_cell_angle_beta   90.00000000
_cell_angle_gamma   90.00000000
_symmetry_Int_Tables_number   1
_chemical_formula_structural   Li5Mn4Ni7
_chemical_formula_sum   'Li5 Mn4 Ni7'
_cell_volume   291.58011232
_cell_formula_units_Z   1
loop_
 _symmetry_equiv_pos_site_id
 _symmetry_equiv_pos_as_xyz
  1  'x, y, z'
loop_
 _atom_site_type_symbol
 _atom_site_label
 _atom_site_symmetry_multiplicity
 _atom_site_fract_x
 _atom_site_fract_y
 _atom_site_fract_z
 _atom_site_occupancy
  Li  Li0  1  -0.00000000  0.50000001  0.50000001  1
  Li  Li1  1  0.50000001  0.00000000  0.00000000  1
  Li  Li2  1  0.50000001  0.00000000  0.50000001  1
  Li  Li3  1  -0.00000000  0.50000001  0.00000000  1
  Li  Li4  1  0.35142301  0.64857701  0.24026800  1
  Mn  Mn5  1  0.64857701  0.35142301  0.24026800  1
  Mn  Mn6  1  0.14857700  0.14857700  0.74026801  1
  Ni  Ni7  1  0.85142301  0.85142301  0.74026801  1
  Mn  Mn8  1  0.64857701  0.35142301  0.75973201  1
  Mn  Mn9  1  0.35142301  0.64857701  0.75973201  1
  Ni  Ni10  1  0.85142301  0.85142301  0.25973200  1
  Ni  Ni11  1  0.14857700  0.14857700  0.25973200  1
  Ni  Ni12  1  0.16313200  0.83686801  0.50000001  1
  Ni  Ni13  1  0.83686801  0.16313200  0.50000001  1
  Ni  Ni14  1  0.33686801  0.33686801  -0.00000000  1
  Ni  Ni15  1  0.66313201  0.66313201  -0.00000000  1
