# generated using pymatgen
data_Li3Fe4CoO10
_symmetry_space_group_name_H-M   'P 1'
_cell_length_a   5.08321905
_cell_length_b   5.08321905
_cell_length_c   10.50146866
_cell_angle_alpha   90.00000000
_cell_angle_beta   90.00000000
_cell_angle_gamma   90.00000000
_symmetry_Int_Tables_number   1
_chemical_formula_structural   Li3Fe4CoO10
_chemical_formula_sum   'Li3 Fe4 Co1 O10'
_cell_volume   271.34866604
_cell_formula_units_Z   1
loop_
 _symmetry_equiv_pos_site_id
 _symmetry_equiv_pos_as_xyz
  1  'x, y, z'
loop_
 _atom_site_type_symbol
 _atom_site_label
 _atom_site_symmetry_multiplicity
 _atom_site_fract_x
 _atom_site_fract_y
 _atom_site_fract_z
 _atom_site_occupancy
  Li  Li0  1  0.00000000  0.00000000  0.00000000  1
  Li  Li1  1  0.49999999  0.49999999  0.50000002  1
  Li  Li2  1  0.00000000  0.00000000  0.33227101  1
  Fe  Fe3  1  0.00000000  0.00000000  0.66772902  1
  Fe  Fe4  1  0.49999999  0.49999999  0.16772901  1
  Fe  Fe5  1  0.49999999  0.49999999  0.83227103  1
  O  O6  1  0.19923500  0.80076499  0.82436803  1
  Fe  Fe7  1  0.19923500  0.80076499  0.17563201  1
  Co  Co8  1  0.18464600  0.81535399  0.50000002  1
  O  O9  1  0.31535400  0.31535400  0.00000000  1
  O  O10  1  0.30076500  0.30076500  0.32436801  1
  O  O11  1  0.30076500  0.30076500  0.67563202  1
  O  O12  1  0.69923499  0.69923499  0.32436801  1
  O  O13  1  0.69923499  0.69923499  0.67563202  1
  O  O14  1  0.68464599  0.68464599  -0.00000000  1
  O  O15  1  0.81535399  0.18464600  0.50000002  1
  O  O16  1  0.80076499  0.19923500  0.17563201  1
  O  O17  1  0.80076499  0.19923500  0.82436803  1
