# generated using pymatgen
data_Ca4HfNi(RuO6)2
_symmetry_space_group_name_H-M   'P 1'
_cell_length_a   5.62703323
_cell_length_b   5.92318487
_cell_length_c   7.91027212
_cell_angle_alpha   90.00000000
_cell_angle_beta   90.51154327
_cell_angle_gamma   90.00000000
_symmetry_Int_Tables_number   1
_chemical_formula_structural   Ca4HfNi(RuO6)2
_chemical_formula_sum   'Ca4 Hf1 Ni1 Ru2 O12'
_cell_volume   263.63853072
_cell_formula_units_Z   1
loop_
 _symmetry_equiv_pos_site_id
 _symmetry_equiv_pos_as_xyz
  1  'x, y, z'
loop_
 _atom_site_type_symbol
 _atom_site_label
 _atom_site_symmetry_multiplicity
 _atom_site_fract_x
 _atom_site_fract_y
 _atom_site_fract_z
 _atom_site_occupancy
  Ca  Ca0  1  0.98145896  0.93608202  0.25448399  1
  Ca  Ca1  1  0.51854098  0.43608201  0.24551600  1
  Ca  Ca2  1  0.01854100  0.06391800  0.74551601  1
  Ca  Ca3  1  0.48145898  0.56391801  0.75448401  1
  Hf  Hf4  1  0.49999998  0.00000000  -0.00000001  1
  Ni  Ni5  1  0.00000000  0.50000001  0.50000001  1
  Ru  Ru6  1  0.49999998  0.00000000  0.50000000  1
  Ru  Ru7  1  0.00000000  0.50000001  0.00000000  1
  O  O8  1  0.65898697  0.72695602  0.42666900  1
  O  O9  1  0.84101296  0.22695600  0.07333099  1
  O  O10  1  0.34101299  0.27304401  0.57333101  1
  O  O11  1  0.15898699  0.77304402  0.92666902  1
  O  O12  1  0.21527199  0.82836002  0.55348401  1
  O  O13  1  0.28472799  0.32836001  0.94651601  1
  O  O14  1  0.78472797  0.17164000  0.44651600  1
  O  O15  1  0.71527197  0.67164001  0.05348399  1
  O  O16  1  0.12180799  0.55667301  0.23182400  1
  O  O17  1  0.37819198  0.05667300  0.26817600  1
  O  O18  1  0.62180797  0.94332702  0.73182401  1
  O  O19  1  0.87819196  0.44332701  0.76817600  1
