# generated using pymatgen
data_LaPrNiO3
_symmetry_space_group_name_H-M   'P 1'
_cell_length_a   3.45036793
_cell_length_b   3.45036864
_cell_length_c   8.68721962
_cell_angle_alpha   90.00000000
_cell_angle_beta   90.00000000
_cell_angle_gamma   119.99999237
_symmetry_Int_Tables_number   1
_chemical_formula_structural   LaPrNiO3
_chemical_formula_sum   'La1 Pr1 Ni1 O3'
_cell_volume   89.56583365
_cell_formula_units_Z   1
loop_
 _symmetry_equiv_pos_site_id
 _symmetry_equiv_pos_as_xyz
  1  'x, y, z'
loop_
 _atom_site_type_symbol
 _atom_site_label
 _atom_site_symmetry_multiplicity
 _atom_site_fract_x
 _atom_site_fract_y
 _atom_site_fract_z
 _atom_site_occupancy
  Pr  Pr0  1  0.33333331  0.66666664  0.23891401  1
  La  La1  1  0.66666667  0.33333332  0.73891403  1
  Ni  Ni2  1  0.00000000  0.00000000  0.46907602  1
  O  O3  1  0.00000000  0.00000000  0.96907604  1
  O  O4  1  0.66666667  0.33333332  0.44737002  1
  O  O5  1  0.33333331  0.66666664  0.94737004  1
