# generated using pymatgen
data_Ti4NiGe11
_symmetry_space_group_name_H-M   'P 1'
_cell_length_a   4.97234917
_cell_length_b   4.98063183
_cell_length_c   9.97369576
_cell_angle_alpha   89.99489594
_cell_angle_beta   90.00000000
_cell_angle_gamma   90.00000000
_symmetry_Int_Tables_number   1
_chemical_formula_structural   Ti4NiGe11
_chemical_formula_sum   'Ti4 Ni1 Ge11'
_cell_volume   247.00296802
_cell_formula_units_Z   1
loop_
 _symmetry_equiv_pos_site_id
 _symmetry_equiv_pos_as_xyz
  1  'x, y, z'
loop_
 _atom_site_type_symbol
 _atom_site_label
 _atom_site_symmetry_multiplicity
 _atom_site_fract_x
 _atom_site_fract_y
 _atom_site_fract_z
 _atom_site_occupancy
  Ti  Ti0  1  0.49999998  0.50014702  0.24986101  1
  Ti  Ti1  1  0.49999998  0.50015502  0.74979202  1
  Ti  Ti2  1  -0.00000000  0.99967603  0.00017900  1
  Ti  Ti3  1  -0.00000000  0.99997403  0.50014802  1
  Ni  Ni4  1  0.49999998  0.25018801  0.49972601  1
  Ge  Ge5  1  0.75037697  0.00024400  0.25013001  1
  Ge  Ge6  1  0.75015197  0.00024600  0.75037902  1
  Ge  Ge7  1  -0.00000000  0.49951802  0.12504600  1
  Ge  Ge8  1  0.00000000  0.49996902  0.62496902  1
  Ge  Ge9  1  0.49999998  0.74976903  0.99975903  1
  Ge  Ge10  1  0.49999998  0.74974703  0.49973402  1
  Ge  Ge11  1  0.24962299  0.00024400  0.25013001  1
  Ge  Ge12  1  0.24984799  0.00024600  0.75037902  1
  Ge  Ge13  1  0.00000000  0.49999702  0.37504501  1
  Ge  Ge14  1  -0.00000000  0.49946802  0.87497202  1
  Ge  Ge15  1  0.49999998  0.25041001  0.99975003  1
