# generated using pymatgen
data_Mg2Ga9
_symmetry_space_group_name_H-M   'P 1'
_cell_length_a   4.65270901
_cell_length_b   4.65270901
_cell_length_c   12.15787315
_cell_angle_alpha   90.00000000
_cell_angle_beta   90.00000000
_cell_angle_gamma   90.00000000
_symmetry_Int_Tables_number   1
_chemical_formula_structural   Mg2Ga9
_chemical_formula_sum   'Mg2 Ga9'
_cell_volume   263.19000412
_cell_formula_units_Z   1
loop_
 _symmetry_equiv_pos_site_id
 _symmetry_equiv_pos_as_xyz
  1  'x, y, z'
loop_
 _atom_site_type_symbol
 _atom_site_label
 _atom_site_symmetry_multiplicity
 _atom_site_fract_x
 _atom_site_fract_y
 _atom_site_fract_z
 _atom_site_occupancy
  Mg  Mg0  1  0.00000000  0.00000000  0.69409399  1
  Mg  Mg1  1  0.00000000  0.00000000  0.30590600  1
  Ga  Ga2  1  0.50000000  0.00000000  0.88235199  1
  Ga  Ga3  1  0.00000000  0.50000000  0.88235199  1
  Ga  Ga4  1  0.50000000  0.00000000  0.11764800  1
  Ga  Ga5  1  0.00000000  0.50000000  0.11764800  1
  Ga  Ga6  1  0.50000000  0.00000000  0.49999999  1
  Ga  Ga7  1  0.00000000  0.50000000  0.49999999  1
  Ga  Ga8  1  0.50000000  0.50000000  0.69846099  1
  Ga  Ga9  1  0.50000000  0.50000000  0.30153900  1
  Ga  Ga10  1  0.00000000  0.00000000  0.00000000  1
