# generated using pymatgen
data_LuNbFe6
_symmetry_space_group_name_H-M   'P 1'
_cell_length_a   4.31806421
_cell_length_b   5.43872023
_cell_length_c   5.43872023
_cell_angle_alpha   60.00000000
_cell_angle_beta   90.00000000
_cell_angle_gamma   90.00000000
_symmetry_Int_Tables_number   1
_chemical_formula_structural   LuNbFe6
_chemical_formula_sum   'Lu1 Nb1 Fe6'
_cell_volume   110.61478146
_cell_formula_units_Z   1
loop_
 _symmetry_equiv_pos_site_id
 _symmetry_equiv_pos_as_xyz
  1  'x, y, z'
loop_
 _atom_site_type_symbol
 _atom_site_label
 _atom_site_symmetry_multiplicity
 _atom_site_fract_x
 _atom_site_fract_y
 _atom_site_fract_z
 _atom_site_occupancy
  Nb  Nb0  1  0.24999999  0.33333332  0.33333332  1
  Lu  Lu1  1  0.74999996  0.66666665  0.66666665  1
  Fe  Fe2  1  0.74999996  0.66154698  0.16922598  1
  Fe  Fe3  1  0.74999996  0.16922700  0.16922600  1
  Fe  Fe4  1  0.74999996  0.16922700  0.66154600  1
  Fe  Fe5  1  0.24999999  0.33845299  0.83077400  1
  Fe  Fe6  1  0.24999999  0.83077298  0.83077398  1
  Fe  Fe7  1  0.24999999  0.83077298  0.33845397  1
