# generated using pymatgen
data_Cs6K2S(Br2O)3
_symmetry_space_group_name_H-M   'P 1'
_cell_length_a   5.54936123
_cell_length_b   5.54936123
_cell_length_c   16.18872452
_cell_angle_alpha   90.00000000
_cell_angle_beta   90.00000000
_cell_angle_gamma   90.00000000
_symmetry_Int_Tables_number   1
_chemical_formula_structural   Cs6K2S(Br2O)3
_chemical_formula_sum   'Cs6 K2 S1 Br6 O3'
_cell_volume   498.53840970
_cell_formula_units_Z   1
loop_
 _symmetry_equiv_pos_site_id
 _symmetry_equiv_pos_as_xyz
  1  'x, y, z'
loop_
 _atom_site_type_symbol
 _atom_site_label
 _atom_site_symmetry_multiplicity
 _atom_site_fract_x
 _atom_site_fract_y
 _atom_site_fract_z
 _atom_site_occupancy
  K  K0  1  0.00000000  0.00000000  0.13659800  1
  K  K1  1  0.49999998  0.49999998  0.63659802  1
  Cs  Cs2  1  0.49999998  0.49999998  0.36340201  1
  Cs  Cs3  1  0.00000000  0.00000000  0.86340203  1
  Cs  Cs4  1  0.00000000  0.00000000  0.50000001  1
  Cs  Cs5  1  0.49999998  0.49999998  0.00000000  1
  Cs  Cs6  1  0.31150499  0.49999998  0.16752200  1
  Cs  Cs7  1  0.68849497  0.49999998  0.16752200  1
  Br  Br8  1  0.00000000  0.81150497  0.66752202  1
  Br  Br9  1  0.00000000  0.18849499  0.66752202  1
  Br  Br10  1  0.18849499  0.00000000  0.33247801  1
  Br  Br11  1  0.81150497  0.00000000  0.33247801  1
  Br  Br12  1  0.49999998  0.68849497  0.83247802  1
  O  O13  1  0.49999998  0.31150499  0.83247802  1
  Br  Br14  1  0.00000000  0.49999998  0.97367103  1
  O  O15  1  0.00000000  0.49999998  0.47367101  1
  O  O16  1  0.49999998  0.00000000  0.52632902  1
  S  S17  1  0.49999998  0.00000000  0.02632900  1
