# generated using pymatgen
data_Zn3Ni4
_symmetry_space_group_name_H-M   'P 1'
_cell_length_a   4.08469009
_cell_length_b   4.15201616
_cell_length_c   7.30161953
_cell_angle_alpha   73.48169708
_cell_angle_beta   90.00000000
_cell_angle_gamma   90.00000000
_symmetry_Int_Tables_number   1
_chemical_formula_structural   Zn3Ni4
_chemical_formula_sum   'Zn3 Ni4'
_cell_volume   118.72254345
_cell_formula_units_Z   1
loop_
 _symmetry_equiv_pos_site_id
 _symmetry_equiv_pos_as_xyz
  1  'x, y, z'
loop_
 _atom_site_type_symbol
 _atom_site_label
 _atom_site_symmetry_multiplicity
 _atom_site_fract_x
 _atom_site_fract_y
 _atom_site_fract_z
 _atom_site_occupancy
  Ni  Ni0  1  0.00000000  0.00000000  0.00000000  1
  Zn  Zn1  1  0.49999999  0.18604499  0.62790998  1
  Zn  Zn2  1  0.00000000  0.30534899  0.38930198  1
  Ni  Ni3  1  0.49999999  0.81395498  0.37208997  1
  Zn  Zn4  1  0.99999998  0.69465098  0.61069797  1
  Ni  Ni5  1  0.49999999  0.41294199  0.17411599  1
  Ni  Ni6  1  0.49999999  0.58705798  0.82588397  1
