# generated using pymatgen
data_Li2MnGa4
_symmetry_space_group_name_H-M   'P 1'
_cell_length_a   5.42047453
_cell_length_b   5.42047453
_cell_length_c   5.42047453
_cell_angle_alpha   104.64946747
_cell_angle_beta   104.64946747
_cell_angle_gamma   119.61638641
_symmetry_Int_Tables_number   1
_chemical_formula_structural   Li2MnGa4
_chemical_formula_sum   'Li2 Mn1 Ga4'
_cell_volume   119.67305468
_cell_formula_units_Z   1
loop_
 _symmetry_equiv_pos_site_id
 _symmetry_equiv_pos_as_xyz
  1  'x, y, z'
loop_
 _atom_site_type_symbol
 _atom_site_label
 _atom_site_symmetry_multiplicity
 _atom_site_fract_x
 _atom_site_fract_y
 _atom_site_fract_z
 _atom_site_occupancy
  Li  Li0  1  0.00000000  0.00000000  0.00000000  1
  Li  Li1  1  0.75000002  0.25000001  0.50000000  1
  Ga  Ga2  1  0.25000005  0.75000003  0.50000001  1
  Mn  Mn3  1  0.70007202  0.29992701  1.00000000  1
  Ga  Ga4  1  0.29992805  0.70007303  1.00000001  1
  Ga  Ga5  1  0.29992802  0.29992801  0.59985600  1
  Ga  Ga6  1  0.70007205  0.70007203  0.40014400  1
