# generated using pymatgen
data_Hf5Ni14
_symmetry_space_group_name_H-M   'P 1'
_cell_length_a   6.28925896
_cell_length_b   6.28925896
_cell_length_c   6.28925848
_cell_angle_alpha   83.09786224
_cell_angle_beta   83.09786224
_cell_angle_gamma   83.09785461
_symmetry_Int_Tables_number   1
_chemical_formula_structural   Hf5Ni14
_chemical_formula_sum   'Hf5 Ni14'
_cell_volume   243.76254531
_cell_formula_units_Z   1
loop_
 _symmetry_equiv_pos_site_id
 _symmetry_equiv_pos_as_xyz
  1  'x, y, z'
loop_
 _atom_site_type_symbol
 _atom_site_label
 _atom_site_symmetry_multiplicity
 _atom_site_fract_x
 _atom_site_fract_y
 _atom_site_fract_z
 _atom_site_occupancy
  Hf  Hf0  1  0.65567198  0.65567200  0.65567200  1
  Hf  Hf1  1  0.34329399  0.34329400  0.34329400  1
  Hf  Hf2  1  0.65447898  0.65447900  0.15058801  1
  Hf  Hf3  1  0.65447900  0.15058800  0.65447900  1
  Hf  Hf4  1  0.15058798  0.65447900  0.65447900  1
  Ni  Ni5  1  0.34470199  0.34470200  0.84955399  1
  Ni  Ni6  1  0.34470198  0.84955400  0.34470201  1
  Ni  Ni7  1  0.84955399  0.34470200  0.34470201  1
  Ni  Ni8  1  0.71278499  0.28704200  0.00061701  1
  Ni  Ni9  1  0.28704200  0.00061700  0.71278499  1
  Ni  Ni10  1  0.00061698  0.71278500  0.28704200  1
  Ni  Ni11  1  0.71278500  0.00061700  0.28704200  1
  Ni  Ni12  1  0.00061699  0.28704200  0.71278499  1
  Ni  Ni13  1  0.28704198  0.71278500  0.00061701  1
  Ni  Ni14  1  0.00077300  0.00077300  0.49957899  1
  Ni  Ni15  1  0.00077299  0.49957900  0.00077301  1
  Ni  Ni16  1  0.49957900  0.00077300  0.00077301  1
  Ni  Ni17  1  0.09624200  0.09624200  0.09624200  1
  Ni  Ni18  1  0.90427298  0.90427300  0.90427300  1
