# generated using pymatgen
data_Li2Ca3
_symmetry_space_group_name_H-M   'P 1'
_cell_length_a   4.34819746
_cell_length_b   4.34819746
_cell_length_c   10.10580349
_cell_angle_alpha   77.57662964
_cell_angle_beta   77.57662964
_cell_angle_gamma   60.00001144
_symmetry_Int_Tables_number   1
_chemical_formula_structural   Li2Ca3
_chemical_formula_sum   'Li2 Ca3'
_cell_volume   160.28341556
_cell_formula_units_Z   1
loop_
 _symmetry_equiv_pos_site_id
 _symmetry_equiv_pos_as_xyz
  1  'x, y, z'
loop_
 _atom_site_type_symbol
 _atom_site_label
 _atom_site_symmetry_multiplicity
 _atom_site_fract_x
 _atom_site_fract_y
 _atom_site_fract_z
 _atom_site_occupancy
  Li  Li0  1  0.59929196  0.59929197  0.20212401  1
  Ca  Ca1  1  0.40070797  0.40070798  0.79787601  1
  Li  Li2  1  0.21448598  0.21448599  0.35654201  1
  Ca  Ca3  1  0.78551394  0.78551396  0.64345802  1
  Ca  Ca4  1  0.00000000  0.00000000  0.00000000  1
