# generated using pymatgen
data_LiCeFe2Ni7O
_symmetry_space_group_name_H-M   'P 1'
_cell_length_a   6.19313002
_cell_length_b   6.19313002
_cell_length_c   7.25491953
_cell_angle_alpha   115.26609802
_cell_angle_beta   115.26609802
_cell_angle_gamma   90.00000000
_symmetry_Int_Tables_number   1
_chemical_formula_structural   LiCeFe2Ni7O
_chemical_formula_sum   'Li1 Ce1 Fe2 Ni7 O1'
_cell_volume   221.85036593
_cell_formula_units_Z   1
loop_
 _symmetry_equiv_pos_site_id
 _symmetry_equiv_pos_as_xyz
  1  'x, y, z'
loop_
 _atom_site_type_symbol
 _atom_site_label
 _atom_site_symmetry_multiplicity
 _atom_site_fract_x
 _atom_site_fract_y
 _atom_site_fract_z
 _atom_site_occupancy
  Li  Li0  1  0.25000002  0.25000001  0.50000002  1
  Ce  Ce1  1  0.75000006  0.75000002  0.50000008  1
  Fe  Fe2  1  0.50000001  0.00000000  0.00000002  1
  Fe  Fe3  1  0.00000003  0.50000002  0.00000004  1
  Ni  Ni4  1  0.45905403  0.27954201  0.23859604  1
  Ni  Ni5  1  0.22045801  0.04094600  0.76140400  1
  O  O6  1  0.54094605  0.72045802  0.76140406  1
  Ni  Ni7  1  0.04094603  0.54094602  0.76140403  1
  Ni  Ni8  1  0.77954207  0.95905403  0.23859610  1
  Ni  Ni9  1  0.27954205  0.77954203  0.23859606  1
  Ni  Ni10  1  0.95905405  0.45905402  0.23859607  1
  Ni  Ni11  1  0.72045803  0.22045801  0.76140404  1
