# generated using pymatgen
data_Ce10SnBi5
_symmetry_space_group_name_H-M   'P 1'
_cell_length_a   6.28740215
_cell_length_b   9.50677490
_cell_length_c   9.50677490
_cell_angle_alpha   83.72219086
_cell_angle_beta   70.68994141
_cell_angle_gamma   70.68994141
_symmetry_Int_Tables_number   1
_chemical_formula_structural   Ce10SnBi5
_chemical_formula_sum   'Ce10 Sn1 Bi5'
_cell_volume   506.11017483
_cell_formula_units_Z   1
loop_
 _symmetry_equiv_pos_site_id
 _symmetry_equiv_pos_as_xyz
  1  'x, y, z'
loop_
 _atom_site_type_symbol
 _atom_site_label
 _atom_site_symmetry_multiplicity
 _atom_site_fract_x
 _atom_site_fract_y
 _atom_site_fract_z
 _atom_site_occupancy
  Ce  Ce0  1  0.41611298  0.86728304  0.30049098  1
  Ce  Ce1  1  0.58388699  0.13271701  0.69950901  1
  Ce  Ce2  1  0.71660398  0.69950903  0.86728300  1
  Ce  Ce3  1  0.08388699  0.69950903  0.13271698  1
  Ce  Ce4  1  0.21660398  0.86728304  0.69950899  1
  Ce  Ce5  1  0.24999999  0.50000002  0.50000000  1
  Ce  Ce6  1  0.74999998  0.50000002  0.49999999  1
  Ce  Ce7  1  0.91611298  0.30049101  0.86728301  1
  Ce  Ce8  1  0.28339599  0.30049101  0.13271699  1
  Ce  Ce9  1  0.78339598  0.13271701  0.30049100  1
  Bi  Bi10  1  0.66024898  0.50000002  0.17950198  1
  Bi  Bi11  1  0.83975097  0.82049804  0.49999998  1
  Bi  Bi12  1  0.74999999  0.00000000  -0.00000001  1
  Bi  Bi13  1  0.16024899  0.17950201  0.50000001  1
  Sn  Sn14  1  0.33975099  0.50000002  0.82049801  1
  Bi  Bi15  1  0.25000000  0.00000000  -0.00000000  1
