# generated using pymatgen
data_TaNi2
_symmetry_space_group_name_H-M   'P 1'
_cell_length_a   3.49832606
_cell_length_b   6.42392778
_cell_length_c   6.42392731
_cell_angle_alpha   120.00000000
_cell_angle_beta   90.00000000
_cell_angle_gamma   90.00000000
_symmetry_Int_Tables_number   1
_chemical_formula_structural   TaNi2
_chemical_formula_sum   'Ta3 Ni6'
_cell_volume   125.02365332
_cell_formula_units_Z   3
loop_
 _symmetry_equiv_pos_site_id
 _symmetry_equiv_pos_as_xyz
  1  'x, y, z'
loop_
 _atom_site_type_symbol
 _atom_site_label
 _atom_site_symmetry_multiplicity
 _atom_site_fract_x
 _atom_site_fract_y
 _atom_site_fract_z
 _atom_site_occupancy
  Ta  Ta0  1  0.99999998  0.75523900  0.75523894  1
  Ta  Ta1  1  -0.00000000  0.24476100  -0.00000002  1
  Ta  Ta2  1  -0.00000000  1.00000000  0.24476092  1
  Ni  Ni3  1  0.49999999  1.00000000  0.58878092  1
  Ni  Ni4  1  0.49999999  0.58878100  -0.00000004  1
  Ni  Ni5  1  0.49999999  0.41121900  0.41121897  1
  Ni  Ni6  1  0.49999999  0.00000000  -0.00000000  1
  Ni  Ni7  1  0.99999998  0.33333333  0.66666664  1
  Ni  Ni8  1  -0.00000000  0.66666666  0.33333328  1
