# generated using pymatgen
data_Y2TiTl3Sn2(SO5)2
_symmetry_space_group_name_H-M   'P 1'
_cell_length_a   5.82395792
_cell_length_b   5.82395840
_cell_length_c   13.65964699
_cell_angle_alpha   90.00000000
_cell_angle_beta   90.00000000
_cell_angle_gamma   120.00000000
_symmetry_Int_Tables_number   1
_chemical_formula_structural   Y2TiTl3Sn2(SO5)2
_chemical_formula_sum   'Y2 Ti1 Tl3 Sn2 S2 O10'
_cell_volume   401.24219715
_cell_formula_units_Z   1
loop_
 _symmetry_equiv_pos_site_id
 _symmetry_equiv_pos_as_xyz
  1  'x, y, z'
loop_
 _atom_site_type_symbol
 _atom_site_label
 _atom_site_symmetry_multiplicity
 _atom_site_fract_x
 _atom_site_fract_y
 _atom_site_fract_z
 _atom_site_occupancy
  Ti  Ti0  1  0.66666669  0.33333334  0.75000000  1
  Tl  Tl1  1  0.00000000  0.00000000  0.75000000  1
  Y  Y2  1  0.00000000  0.00000000  0.25000000  1
  Y  Y3  1  0.66666669  0.33333334  0.25000000  1
  Tl  Tl4  1  0.33333337  0.66666668  0.25000000  1
  Tl  Tl5  1  0.33333337  0.66666668  0.75000000  1
  Sn  Sn6  1  0.00000000  0.00000000  0.00000000  1
  Sn  Sn7  1  0.00000000  0.00000000  0.50000000  1
  S  S8  1  1.00000004  0.66566601  0.36486500  1
  S  S9  1  1.00000004  0.66566601  0.13513500  1
  O  O10  1  0.00000001  0.33433400  0.86486500  1
  O  O11  1  0.00000001  0.33433400  0.63513500  1
  O  O12  1  0.66566601  0.00000000  0.36486500  1
  O  O13  1  0.66566601  0.00000000  0.13513500  1
  O  O14  1  0.33433400  0.00000000  0.86486500  1
  O  O15  1  0.33433400  0.00000000  0.63513500  1
  O  O16  1  0.66566604  0.66566601  0.86486500  1
  O  O17  1  0.66566604  0.66566601  0.63513500  1
  O  O18  1  0.33433402  0.33433400  0.36486500  1
  O  O19  1  0.33433402  0.33433400  0.13513500  1
