# generated using pymatgen
data_TlSn2
_symmetry_space_group_name_H-M   'P 1'
_cell_length_a   4.43810320
_cell_length_b   4.43810320
_cell_length_c   8.87397003
_cell_angle_alpha   90.00000000
_cell_angle_beta   90.00000000
_cell_angle_gamma   90.00000000
_symmetry_Int_Tables_number   1
_chemical_formula_structural   TlSn2
_chemical_formula_sum   'Tl2 Sn4'
_cell_volume   174.78845801
_cell_formula_units_Z   2
loop_
 _symmetry_equiv_pos_site_id
 _symmetry_equiv_pos_as_xyz
  1  'x, y, z'
loop_
 _atom_site_type_symbol
 _atom_site_label
 _atom_site_symmetry_multiplicity
 _atom_site_fract_x
 _atom_site_fract_y
 _atom_site_fract_z
 _atom_site_occupancy
  Tl  Tl0  1  0.00000000  0.49999998  0.72877800  1
  Tl  Tl1  1  0.49999998  0.00000000  0.27122200  1
  Sn  Sn2  1  0.00000000  0.49999998  0.37228700  1
  Sn  Sn3  1  0.49999998  0.00000000  0.62771300  1
  Sn  Sn4  1  0.00000000  0.00000000  0.00000000  1
  Sn  Sn5  1  0.49999998  0.49999998  0.00000000  1
