# generated using pymatgen
data_DyAlPd
_symmetry_space_group_name_H-M   'P 1'
_cell_length_a   3.72632194
_cell_length_b   7.51543379
_cell_length_c   7.51543427
_cell_angle_alpha   120.00000000
_cell_angle_beta   90.00000000
_cell_angle_gamma   90.00000000
_symmetry_Int_Tables_number   1
_chemical_formula_structural   DyAlPd
_chemical_formula_sum   'Dy3 Al3 Pd3'
_cell_volume   182.27165556
_cell_formula_units_Z   3
loop_
 _symmetry_equiv_pos_site_id
 _symmetry_equiv_pos_as_xyz
  1  'x, y, z'
loop_
 _atom_site_type_symbol
 _atom_site_label
 _atom_site_symmetry_multiplicity
 _atom_site_fract_x
 _atom_site_fract_y
 _atom_site_fract_z
 _atom_site_occupancy
  Dy  Dy0  1  0.50000001  0.59052102  1.00000000  1
  Dy  Dy1  1  0.50000001  0.40947902  0.40947900  1
  Dy  Dy2  1  0.50000001  0.00000000  0.59052099  1
  Al  Al3  1  -0.00000000  0.25567001  1.00000000  1
  Al  Al4  1  -0.00000000  0.00000000  0.25567000  1
  Al  Al5  1  -0.00000000  0.74433003  0.74433001  1
  Pd  Pd6  1  -0.00000000  0.33333335  0.66666667  1
  Pd  Pd7  1  1.00000002  0.66666669  0.33333334  1
  Pd  Pd8  1  0.50000001  0.00000000  -0.00000000  1
