# generated using pymatgen
data_Li4MnO7
_symmetry_space_group_name_H-M   'P 1'
_cell_length_a   2.91633105
_cell_length_b   4.58096600
_cell_length_c   9.43439293
_cell_angle_alpha   90.00363922
_cell_angle_beta   89.99998474
_cell_angle_gamma   89.99998474
_symmetry_Int_Tables_number   1
_chemical_formula_structural   Li4MnO7
_chemical_formula_sum   'Li4 Mn1 O7'
_cell_volume   126.03984180
_cell_formula_units_Z   1
loop_
 _symmetry_equiv_pos_site_id
 _symmetry_equiv_pos_as_xyz
  1  'x, y, z'
loop_
 _atom_site_type_symbol
 _atom_site_label
 _atom_site_symmetry_multiplicity
 _atom_site_fract_x
 _atom_site_fract_y
 _atom_site_fract_z
 _atom_site_occupancy
  Li  Li0  1  0.74999998  0.02126500  0.13498599  1
  Li  Li1  1  0.25000092  0.97874100  0.86500803  1
  Li  Li2  1  0.24999996  0.52131000  0.36503202  1
  Li  Li3  1  0.74999895  0.47868900  0.63497601  1
  Mn  Mn4  1  0.74999993  0.71244700  0.46307001  1
  O  O5  1  0.24999998  0.21232300  0.03694800  1
  O  O6  1  0.74999993  0.78767800  0.96304702  1
  O  O7  1  0.24999997  0.28755100  0.53693401  1
  O  O8  1  0.74999997  0.19132200  0.78369000  1
  O  O9  1  0.74999996  0.30854000  0.28375200  1
  O  O10  1  0.24999994  0.69145800  0.71624802  1
  O  O11  1  0.24999993  0.80867700  0.21630802  1
