# generated using pymatgen
data_CeSi2
_symmetry_space_group_name_H-M   'P 1'
_cell_length_a   5.20185423
_cell_length_b   5.20185328
_cell_length_c   8.68208694
_cell_angle_alpha   90.00000000
_cell_angle_beta   90.00000000
_cell_angle_gamma   120.00000763
_symmetry_Int_Tables_number   1
_chemical_formula_structural   CeSi2
_chemical_formula_sum   'Ce4 Si8'
_cell_volume   203.45623570
_cell_formula_units_Z   4
loop_
 _symmetry_equiv_pos_site_id
 _symmetry_equiv_pos_as_xyz
  1  'x, y, z'
loop_
 _atom_site_type_symbol
 _atom_site_label
 _atom_site_symmetry_multiplicity
 _atom_site_fract_x
 _atom_site_fract_y
 _atom_site_fract_z
 _atom_site_occupancy
  Ce  Ce0  1  0.66666666  0.33333335  0.56435300  1
  Ce  Ce1  1  0.33333337  0.66666671  0.43564700  1
  Ce  Ce2  1  0.33333337  0.66666671  0.06435300  1
  Ce  Ce3  1  0.66666666  0.33333335  0.93564701  1
  Si  Si4  1  0.00000000  0.00000000  0.50000000  1
  Si  Si5  1  0.00000000  0.00000000  0.00000000  1
  Si  Si6  1  0.17243902  0.34487802  0.75000000  1
  Si  Si7  1  0.17243905  0.82756105  0.75000000  1
  Si  Si8  1  0.65512203  0.82756105  0.75000000  1
  Si  Si9  1  0.82756101  0.65512204  0.25000000  1
  Si  Si10  1  0.82756098  0.17243901  0.25000000  1
  Si  Si11  1  0.34487800  0.17243901  0.25000000  1
