# generated using pymatgen
data_Li2VFe3C4
_symmetry_space_group_name_H-M   'P 1'
_cell_length_a   4.00824022
_cell_length_b   5.83294201
_cell_length_c   5.83294201
_cell_angle_alpha   90.00000000
_cell_angle_beta   90.00000000
_cell_angle_gamma   90.00000000
_symmetry_Int_Tables_number   1
_chemical_formula_structural   Li2VFe3C4
_chemical_formula_sum   'Li2 V1 Fe3 C4'
_cell_volume   136.37320878
_cell_formula_units_Z   1
loop_
 _symmetry_equiv_pos_site_id
 _symmetry_equiv_pos_as_xyz
  1  'x, y, z'
loop_
 _atom_site_type_symbol
 _atom_site_label
 _atom_site_symmetry_multiplicity
 _atom_site_fract_x
 _atom_site_fract_y
 _atom_site_fract_z
 _atom_site_occupancy
  Li  Li0  1  0.49999997  0.50000000  0.50000000  1
  Li  Li1  1  0.49999997  0.00000000  0.00000000  1
  V  V2  1  0.00000000  0.50000000  0.00000000  1
  Fe  Fe3  1  0.00000000  0.00000000  0.50000000  1
  Fe  Fe4  1  0.49999997  0.50000000  0.00000000  1
  Fe  Fe5  1  0.49999997  0.00000000  0.50000000  1
  C  C6  1  0.00000000  0.73367100  0.23367100  1
  C  C7  1  0.99999994  0.26632900  0.76632900  1
  C  C8  1  0.00000000  0.23367100  0.26632900  1
  C  C9  1  0.00000000  0.76632900  0.73367100  1
