# generated using pymatgen
data_Cd4InHg3
_symmetry_space_group_name_H-M   'P 1'
_cell_length_a   5.21592999
_cell_length_b   6.53802395
_cell_length_c   6.83650541
_cell_angle_alpha   61.43404770
_cell_angle_beta   90.00000000
_cell_angle_gamma   90.00000000
_symmetry_Int_Tables_number   1
_chemical_formula_structural   Cd4InHg3
_chemical_formula_sum   'Cd4 In1 Hg3'
_cell_volume   204.75717342
_cell_formula_units_Z   1
loop_
 _symmetry_equiv_pos_site_id
 _symmetry_equiv_pos_as_xyz
  1  'x, y, z'
loop_
 _atom_site_type_symbol
 _atom_site_label
 _atom_site_symmetry_multiplicity
 _atom_site_fract_x
 _atom_site_fract_y
 _atom_site_fract_z
 _atom_site_occupancy
  Cd  Cd0  1  0.75000000  0.66691101  0.66617799  1
  In  In1  1  0.25000000  0.33308900  0.33382200  1
  Cd  Cd2  1  0.75000000  0.16465800  0.16297800  1
  Cd  Cd3  1  0.75000000  0.16566800  0.66866400  1
  Hg  Hg4  1  0.75000000  0.67236401  0.16297800  1
  Hg  Hg5  1  0.25000000  0.83534201  0.83702199  1
  Cd  Cd6  1  0.25000000  0.83433201  0.33133599  1
  Hg  Hg7  1  0.25000000  0.32763600  0.83702199  1
