# generated using pymatgen
data_CeAlSi4
_symmetry_space_group_name_H-M   'P 1'
_cell_length_a   5.30341578
_cell_length_b   5.30341578
_cell_length_c   8.23753548
_cell_angle_alpha   90.00000000
_cell_angle_beta   90.00000000
_cell_angle_gamma   120.00000000
_symmetry_Int_Tables_number   1
_chemical_formula_structural   CeAlSi4
_chemical_formula_sum   'Ce2 Al2 Si8'
_cell_volume   200.65005445
_cell_formula_units_Z   2
loop_
 _symmetry_equiv_pos_site_id
 _symmetry_equiv_pos_as_xyz
  1  'x, y, z'
loop_
 _atom_site_type_symbol
 _atom_site_label
 _atom_site_symmetry_multiplicity
 _atom_site_fract_x
 _atom_site_fract_y
 _atom_site_fract_z
 _atom_site_occupancy
  Ce  Ce0  1  0.66666669  0.33333335  0.55957497  1
  Ce  Ce1  1  0.33333335  0.66666670  0.44042497  1
  Al  Al2  1  0.33333335  0.66666670  0.05957500  1
  Al  Al3  1  0.66666669  0.33333335  0.94042495  1
  Si  Si4  1  0.16943601  0.33887202  0.74999996  1
  Si  Si5  1  0.16943601  0.83056504  0.74999996  1
  Si  Si6  1  0.66112903  0.83056504  0.74999996  1
  Si  Si7  1  0.83056404  0.66112803  0.24999999  1
  Si  Si8  1  0.83056403  0.16943501  0.24999999  1
  Si  Si9  1  0.33887101  0.16943501  0.24999999  1
  Si  Si10  1  0.00000000  0.00000000  0.49999997  1
  Si  Si11  1  0.00000000  0.00000000  0.00000000  1
