# generated using pymatgen
data_Li3Ti2Ni6O
_symmetry_space_group_name_H-M   'P 1'
_cell_length_a   4.00818968
_cell_length_b   4.00818968
_cell_length_c   13.23887062
_cell_angle_alpha   81.29312897
_cell_angle_beta   81.29312897
_cell_angle_gamma   60.00000381
_symmetry_Int_Tables_number   1
_chemical_formula_structural   Li3Ti2Ni6O
_chemical_formula_sum   'Li3 Ti2 Ni6 O1'
_cell_volume   181.35931435
_cell_formula_units_Z   1
loop_
 _symmetry_equiv_pos_site_id
 _symmetry_equiv_pos_as_xyz
  1  'x, y, z'
loop_
 _atom_site_type_symbol
 _atom_site_label
 _atom_site_symmetry_multiplicity
 _atom_site_fract_x
 _atom_site_fract_y
 _atom_site_fract_z
 _atom_site_occupancy
  Li  Li0  1  0.00000000  0.00000000  0.00000000  1
  Li  Li1  1  0.25197801  0.25197801  0.24406600  1
  Li  Li2  1  0.50000003  0.50000001  0.50000000  1
  Ti  Ti3  1  0.74802204  0.74802202  0.75593400  1
  Ti  Ti4  1  0.81203905  0.81203902  0.56388300  1
  Ni  Ni5  1  0.05839300  0.05839300  0.82482100  1
  Ni  Ni6  1  0.31580302  0.31580301  0.05259100  1
  Ni  Ni7  1  0.56336603  0.56336602  0.30990200  1
  Ni  Ni8  1  0.43663402  0.43663401  0.69009800  1
  Ni  Ni9  1  0.68419704  0.68419702  0.94740900  1
  O  O10  1  0.94160705  0.94160703  0.17517900  1
  Ni  Ni11  1  0.18796101  0.18796101  0.43611700  1
