# generated using pymatgen
data_DyAlPd
_symmetry_space_group_name_H-M   'P 1'
_cell_length_a   4.07850409
_cell_length_b   7.08008003
_cell_length_c   7.08008003
_cell_angle_alpha   120.00000000
_cell_angle_beta   90.00000000
_cell_angle_gamma   90.00000000
_symmetry_Int_Tables_number   1
_chemical_formula_structural   DyAlPd
_chemical_formula_sum   'Dy3 Al3 Pd3'
_cell_volume   177.05486611
_cell_formula_units_Z   3
loop_
 _symmetry_equiv_pos_site_id
 _symmetry_equiv_pos_as_xyz
  1  'x, y, z'
loop_
 _atom_site_type_symbol
 _atom_site_label
 _atom_site_symmetry_multiplicity
 _atom_site_fract_x
 _atom_site_fract_y
 _atom_site_fract_z
 _atom_site_occupancy
  Dy  Dy0  1  0.49999999  0.00000000  0.41895199  1
  Dy  Dy1  1  0.49999999  0.41895200  -0.00000000  1
  Dy  Dy2  1  0.49999999  0.58104799  0.58104798  1
  Al  Al3  1  0.99999998  0.00000000  0.77348098  1
  Al  Al4  1  0.99999998  0.77348099  -0.00000001  1
  Al  Al5  1  -0.00000000  0.22651900  0.22651899  1
  Pd  Pd6  1  0.99999998  0.66666666  0.33333332  1
  Pd  Pd7  1  -0.00000000  0.33333333  0.66666665  1
  Pd  Pd8  1  0.49999999  0.00000000  -0.00000000  1
