# generated using pymatgen
data_K5LiMnAs2P2I
_symmetry_space_group_name_H-M   'P 1'
_cell_length_a   5.01694202
_cell_length_b   5.01694202
_cell_length_c   13.41598606
_cell_angle_alpha   100.77637482
_cell_angle_beta   100.77637482
_cell_angle_gamma   90.00000000
_symmetry_Int_Tables_number   1
_chemical_formula_structural   K5LiMnAs2P2I
_chemical_formula_sum   'K5 Li1 Mn1 As2 P2 I1'
_cell_volume   325.65733020
_cell_formula_units_Z   1
loop_
 _symmetry_equiv_pos_site_id
 _symmetry_equiv_pos_as_xyz
  1  'x, y, z'
loop_
 _atom_site_type_symbol
 _atom_site_label
 _atom_site_symmetry_multiplicity
 _atom_site_fract_x
 _atom_site_fract_y
 _atom_site_fract_z
 _atom_site_occupancy
  Li  Li0  1  0.31645100  0.31645100  0.63290199  1
  K  K1  1  0.68354899  0.68354900  0.36709799  1
  K  K2  1  0.50000000  0.50000000  -0.00000000  1
  K  K3  1  0.09814200  0.09814200  0.19628400  1
  K  K4  1  0.90185799  0.90185799  0.80371599  1
  K  K5  1  0.59577400  0.09577400  0.19154800  1
  Mn  Mn6  1  0.40422600  0.90422599  0.80845199  1
  As  As7  1  0.09577400  0.59577400  0.19154800  1
  P  P8  1  0.90422599  0.40422600  0.80845199  1
  As  As9  1  0.19420800  0.19420800  0.38841600  1
  P  P10  1  0.80579199  0.80579199  0.61158399  1
  I  I11  1  0.00000000  0.00000000  0.00000000  1
