# generated using pymatgen
data_Ca5MgNiO13
_symmetry_space_group_name_H-M   'P 1'
_cell_length_a   6.01635170
_cell_length_b   7.32036257
_cell_length_c   7.32036257
_cell_angle_alpha   84.00289154
_cell_angle_beta   75.06111145
_cell_angle_gamma   75.06111145
_symmetry_Int_Tables_number   1
_chemical_formula_structural   Ca5MgNiO13
_chemical_formula_sum   'Ca5 Mg1 Ni1 O13'
_cell_volume   300.72749128
_cell_formula_units_Z   1
loop_
 _symmetry_equiv_pos_site_id
 _symmetry_equiv_pos_as_xyz
  1  'x, y, z'
loop_
 _atom_site_type_symbol
 _atom_site_label
 _atom_site_symmetry_multiplicity
 _atom_site_fract_x
 _atom_site_fract_y
 _atom_site_fract_z
 _atom_site_occupancy
  Ca  Ca0  1  0.74999997  0.09107000  0.90893004  1
  Ca  Ca1  1  0.25000005  0.90893000  0.09106999  1
  Ca  Ca2  1  0.75000001  0.72349200  0.27650802  1
  Ca  Ca3  1  0.25000001  0.27650800  0.72349201  1
  Ca  Ca4  1  0.72635698  0.20494700  0.38056603  1
  Mg  Mg5  1  0.22635702  0.38056600  0.20494700  1
  Ni  Ni6  1  0.77364301  0.61943400  0.79505303  1
  O  O7  1  0.27364304  0.79505300  0.61943400  1
  O  O8  1  0.56220702  0.65283000  0.64656302  1
  O  O9  1  0.06220704  0.64656300  0.65283000  1
  O  O10  1  0.82489699  0.39696000  0.88341404  1
  O  O11  1  0.32489704  0.88341400  0.39696000  1
  O  O12  1  0.66850102  0.77334300  0.97107002  1
  O  O13  1  0.16850106  0.97107000  0.77334299  1
  O  O14  1  0.83149896  0.02893000  0.22665704  1
  O  O15  1  0.33149900  0.22665700  0.02893001  1
  O  O16  1  0.67510298  0.11658600  0.60304103  1
  O  O17  1  0.17510303  0.60304000  0.11658599  1
  O  O18  1  0.93779298  0.35343700  0.34717003  1
  O  O19  1  0.43779300  0.34717000  0.35343701  1
