# generated using pymatgen
data_AgS
_symmetry_space_group_name_H-M   'P 1'
_cell_length_a   6.03882599
_cell_length_b   6.03882599
_cell_length_c   7.34403181
_cell_angle_alpha   114.27636719
_cell_angle_beta   114.27636719
_cell_angle_gamma   90.00000000
_symmetry_Int_Tables_number   1
_chemical_formula_structural   AgS
_chemical_formula_sum   'Ag4 S4'
_cell_volume   217.89424307
_cell_formula_units_Z   4
loop_
 _symmetry_equiv_pos_site_id
 _symmetry_equiv_pos_as_xyz
  1  'x, y, z'
loop_
 _atom_site_type_symbol
 _atom_site_label
 _atom_site_symmetry_multiplicity
 _atom_site_fract_x
 _atom_site_fract_y
 _atom_site_fract_z
 _atom_site_occupancy
  Ag  Ag0  1  0.25000006  0.75000003  0.50000006  1
  Ag  Ag1  1  0.50000005  0.50000002  0.00000007  1
  Ag  Ag2  1  0.00000000  0.00000000  0.00000000  1
  Ag  Ag3  1  0.75000004  0.25000001  0.50000005  1
  S  S4  1  0.61770703  0.12500001  0.75000003  1
  S  S5  1  0.37500004  0.38229302  0.25000004  1
  S  S6  1  0.13229305  0.62500003  0.75000004  1
  S  S7  1  0.87500008  0.86770704  0.25000011  1
