# generated using pymatgen
data_Hf2TiAl(GaNi)3
_symmetry_space_group_name_H-M   'P 1'
_cell_length_a   5.68153811
_cell_length_b   6.31768799
_cell_length_c   6.31768751
_cell_angle_alpha   120.00000000
_cell_angle_beta   90.00000000
_cell_angle_gamma   90.00000000
_symmetry_Int_Tables_number   1
_chemical_formula_structural   Hf2TiAl(GaNi)3
_chemical_formula_sum   'Hf2 Ti1 Al1 Ga3 Ni3'
_cell_volume   196.38706057
_cell_formula_units_Z   1
loop_
 _symmetry_equiv_pos_site_id
 _symmetry_equiv_pos_as_xyz
  1  'x, y, z'
loop_
 _atom_site_type_symbol
 _atom_site_label
 _atom_site_symmetry_multiplicity
 _atom_site_fract_x
 _atom_site_fract_y
 _atom_site_fract_z
 _atom_site_occupancy
  Ti  Ti0  1  0.25000000  0.66666666  0.33333333  1
  Hf  Hf1  1  0.74999999  0.33333333  0.66666668  1
  Hf  Hf2  1  0.49999999  0.00000000  -0.00000000  1
  Ga  Ga3  1  0.00000000  0.00000000  0.00000000  1
  Al  Al4  1  0.74999999  0.80634099  0.61268200  1
  Ga  Ga5  1  0.74999999  0.80634099  0.19365898  1
  Ga  Ga6  1  0.74999999  0.38731800  0.19365900  1
  Ni  Ni7  1  0.25000000  0.19365900  0.38731801  1
  Ni  Ni8  1  0.25000000  0.19365900  0.80634102  1
  Ni  Ni9  1  0.25000000  0.61268199  0.80634101  1
