# generated using pymatgen
data_LiBeVN3
_symmetry_space_group_name_H-M   'P 1'
_cell_length_a   2.78641605
_cell_length_b   4.84972620
_cell_length_c   4.84972620
_cell_angle_alpha   90.00000000
_cell_angle_beta   90.00000000
_cell_angle_gamma   90.00000000
_symmetry_Int_Tables_number   1
_chemical_formula_structural   LiBeVN3
_chemical_formula_sum   'Li1 Be1 V1 N3'
_cell_volume   65.53607151
_cell_formula_units_Z   1
loop_
 _symmetry_equiv_pos_site_id
 _symmetry_equiv_pos_as_xyz
  1  'x, y, z'
loop_
 _atom_site_type_symbol
 _atom_site_label
 _atom_site_symmetry_multiplicity
 _atom_site_fract_x
 _atom_site_fract_y
 _atom_site_fract_z
 _atom_site_occupancy
  Li  Li0  1  0.00000000  0.49999998  0.49999998  1
  V  V1  1  0.49999999  0.00000000  0.00000000  1
  Be  Be2  1  0.49999999  0.28496099  0.71503897  1
  N  N3  1  0.00000000  0.78496097  0.78496097  1
  N  N4  1  0.49999999  0.71503897  0.28496099  1
  N  N5  1  0.00000000  0.21503899  0.21503899  1
