# generated using pymatgen
data_CsK(MnBr3)2
_symmetry_space_group_name_H-M   'P 1'
_cell_length_a   7.52618170
_cell_length_b   7.52618170
_cell_length_c   7.52618170
_cell_angle_alpha   60.00000000
_cell_angle_beta   60.00000000
_cell_angle_gamma   60.00000000
_symmetry_Int_Tables_number   1
_chemical_formula_structural   CsK(MnBr3)2
_chemical_formula_sum   'Cs1 K1 Mn2 Br6'
_cell_volume   301.44570391
_cell_formula_units_Z   1
loop_
 _symmetry_equiv_pos_site_id
 _symmetry_equiv_pos_as_xyz
  1  'x, y, z'
loop_
 _atom_site_type_symbol
 _atom_site_label
 _atom_site_symmetry_multiplicity
 _atom_site_fract_x
 _atom_site_fract_y
 _atom_site_fract_z
 _atom_site_occupancy
  Cs  Cs0  1  0.24999999  0.24999999  0.24999999  1
  K  K1  1  0.74999998  0.74999998  0.74999998  1
  Mn  Mn2  1  0.00000000  0.00000000  0.00000000  1
  Mn  Mn3  1  0.49999999  0.49999999  0.49999999  1
  Br  Br4  1  0.26018299  0.73981698  0.26018299  1
  Br  Br5  1  0.26018299  0.26018299  0.73981698  1
  Br  Br6  1  0.73981698  0.26018299  0.73981698  1
  Br  Br7  1  0.26018299  0.73981698  0.73981698  1
  Br  Br8  1  0.73981698  0.26018299  0.26018299  1
  Br  Br9  1  0.73981698  0.73981698  0.26018299  1
