# generated using pymatgen
data_DyYErSnGe
_symmetry_space_group_name_H-M   'P 1'
_cell_length_a   4.33008623
_cell_length_b   5.80493689
_cell_length_c   5.80493689
_cell_angle_alpha   61.46446609
_cell_angle_beta   68.10135651
_cell_angle_gamma   68.10135651
_symmetry_Int_Tables_number   1
_chemical_formula_structural   DyYErSnGe
_chemical_formula_sum   'Dy1 Y1 Er1 Sn1 Ge1'
_cell_volume   115.49137556
_cell_formula_units_Z   1
loop_
 _symmetry_equiv_pos_site_id
 _symmetry_equiv_pos_as_xyz
  1  'x, y, z'
loop_
 _atom_site_type_symbol
 _atom_site_label
 _atom_site_symmetry_multiplicity
 _atom_site_fract_x
 _atom_site_fract_y
 _atom_site_fract_z
 _atom_site_occupancy
  Er  Er0  1  0.19904098  0.30095901  0.30095902  1
  Dy  Dy1  1  0.80095894  0.69904102  0.69904104  1
  Y  Y2  1  0.00000000  0.00000000  0.00000000  1
  Ge  Ge3  1  0.49999996  0.73588002  0.26412003  1
  Sn  Sn4  1  0.49999997  0.26412001  0.73588003  1
