# generated using pymatgen
data_Li2Fe2SiWO
_symmetry_space_group_name_H-M   'P 1'
_cell_length_a   4.74970913
_cell_length_b   5.11325216
_cell_length_c   5.11325169
_cell_angle_alpha   120.00000000
_cell_angle_beta   90.00000000
_cell_angle_gamma   90.00000000
_symmetry_Int_Tables_number   1
_chemical_formula_structural   Li2Fe2SiWO
_chemical_formula_sum   'Li2 Fe2 Si1 W1 O1'
_cell_volume   107.54544652
_cell_formula_units_Z   1
loop_
 _symmetry_equiv_pos_site_id
 _symmetry_equiv_pos_as_xyz
  1  'x, y, z'
loop_
 _atom_site_type_symbol
 _atom_site_label
 _atom_site_symmetry_multiplicity
 _atom_site_fract_x
 _atom_site_fract_y
 _atom_site_fract_z
 _atom_site_occupancy
  Li  Li0  1  0.73915798  0.33159499  -0.00000000  1
  Li  Li1  1  0.26084199  0.00000000  0.66840503  1
  Fe  Fe2  1  0.26084199  0.33159499  0.33159501  1
  Fe  Fe3  1  0.26084199  0.66840497  1.00000003  1
  Si  Si4  1  0.73915798  0.00000000  0.33159501  1
  W  W5  1  0.73915798  0.66840497  0.66840502  1
  O  O6  1  0.00000000  0.00000000  0.00000000  1
