# generated using pymatgen
data_U3AlFe2Ge3
_symmetry_space_group_name_H-M   'P 1'
_cell_length_a   3.66293502
_cell_length_b   7.15677214
_cell_length_c   7.15677261
_cell_angle_alpha   120.00000000
_cell_angle_beta   90.00000000
_cell_angle_gamma   90.00000000
_symmetry_Int_Tables_number   1
_chemical_formula_structural   U3AlFe2Ge3
_chemical_formula_sum   'U3 Al1 Fe2 Ge3'
_cell_volume   162.47788414
_cell_formula_units_Z   1
loop_
 _symmetry_equiv_pos_site_id
 _symmetry_equiv_pos_as_xyz
  1  'x, y, z'
loop_
 _atom_site_type_symbol
 _atom_site_label
 _atom_site_symmetry_multiplicity
 _atom_site_fract_x
 _atom_site_fract_y
 _atom_site_fract_z
 _atom_site_occupancy
  U  U0  1  0.50000000  0.00000000  0.40133100  1
  U  U1  1  0.50000000  0.40133100  1.00000001  1
  U  U2  1  0.50000000  0.59866900  0.59866903  1
  Fe  Fe3  1  0.99999999  0.00000000  0.74300599  1
  Al  Al4  1  -0.00000000  0.74300600  1.00000003  1
  Fe  Fe5  1  -0.00000000  0.25699400  0.25699401  1
  Ge  Ge6  1  -0.00000000  0.66666667  0.33333336  1
  Ge  Ge7  1  -0.00000000  0.33333334  0.66666668  1
  Ge  Ge8  1  0.50000000  0.00000000  -0.00000000  1
