# generated using pymatgen
data_NbFe5
_symmetry_space_group_name_H-M   'P 1'
_cell_length_a   4.72144985
_cell_length_b   4.72239447
_cell_length_c   7.81197405
_cell_angle_alpha   89.99833679
_cell_angle_beta   90.00000000
_cell_angle_gamma   119.99338531
_symmetry_Int_Tables_number   1
_chemical_formula_structural   NbFe5
_chemical_formula_sum   'Nb2 Fe10'
_cell_volume   150.85440961
_cell_formula_units_Z   2
loop_
 _symmetry_equiv_pos_site_id
 _symmetry_equiv_pos_as_xyz
  1  'x, y, z'
loop_
 _atom_site_type_symbol
 _atom_site_label
 _atom_site_symmetry_multiplicity
 _atom_site_fract_x
 _atom_site_fract_y
 _atom_site_fract_z
 _atom_site_occupancy
  Fe  Fe0  1  0.33333334  0.66672431  0.42975300  1
  Nb  Nb1  1  0.66660902  0.33327566  0.57024700  1
  Nb  Nb2  1  0.66671002  0.33337666  0.93770499  1
  Fe  Fe3  1  0.33333334  0.66662331  0.06229500  1
  Fe  Fe4  1  0.00000000  0.00000000  0.50000000  1
  Fe  Fe5  1  0.00000000  0.00000000  0.00000000  1
  Fe  Fe6  1  0.82973303  0.17034799  0.24825500  1
  Fe  Fe7  1  0.82964502  0.65928998  0.24818400  1
  Fe  Fe8  1  0.34061501  0.17034799  0.24825500  1
  Fe  Fe9  1  0.17026700  0.82965197  0.75174499  1
  Fe  Fe10  1  0.17035500  0.34070999  0.75181599  1
  Fe  Fe11  1  0.65938502  0.82965197  0.75174499  1
