# generated using pymatgen
data_Ca3SiP3
_symmetry_space_group_name_H-M   'P 1'
_cell_length_a   7.27585697
_cell_length_b   7.27585697
_cell_length_c   7.27585697
_cell_angle_alpha   109.47122192
_cell_angle_beta   109.47122192
_cell_angle_gamma   109.47122192
_symmetry_Int_Tables_number   1
_chemical_formula_structural   Ca3SiP3
_chemical_formula_sum   'Ca6 Si2 P6'
_cell_volume   296.50399409
_cell_formula_units_Z   2
loop_
 _symmetry_equiv_pos_site_id
 _symmetry_equiv_pos_as_xyz
  1  'x, y, z'
loop_
 _atom_site_type_symbol
 _atom_site_label
 _atom_site_symmetry_multiplicity
 _atom_site_fract_x
 _atom_site_fract_y
 _atom_site_fract_z
 _atom_site_occupancy
  Ca  Ca0  1  0.12500002  0.25000001  0.37500002  1
  Ca  Ca1  1  0.75000005  0.62500003  0.87500006  1
  Ca  Ca2  1  0.37500005  0.75000003  0.12500005  1
  Ca  Ca3  1  0.87500002  0.12500001  0.75000003  1
  Ca  Ca4  1  0.62500003  0.37500002  0.25000004  1
  Ca  Ca5  1  0.25000006  0.87500004  0.62500006  1
  Si  Si6  1  0.34638803  0.34638802  0.84638803  1
  Si  Si7  1  0.50000002  0.15361201  0.50000002  1
  P  P8  1  0.00000003  0.50000002  0.65361203  1
  P  P9  1  0.50000005  0.65361203  0.50000005  1
  P  P10  1  0.15361207  1.00000004  1.00000006  1
  P  P11  1  0.65361207  1.00000004  1.00000008  1
  P  P12  1  0.00000003  0.50000002  0.15361203  1
  P  P13  1  0.84638806  0.84638804  0.34638807  1
