# generated using pymatgen
data_Nd3SnGe8
_symmetry_space_group_name_H-M   'P 1'
_cell_length_a   3.69936609
_cell_length_b   3.69936609
_cell_length_c   14.41409874
_cell_angle_alpha   97.37278748
_cell_angle_beta   97.37278748
_cell_angle_gamma   90.00000000
_symmetry_Int_Tables_number   1
_chemical_formula_structural   Nd3SnGe8
_chemical_formula_sum   'Nd3 Sn1 Ge8'
_cell_volume   193.98586395
_cell_formula_units_Z   1
loop_
 _symmetry_equiv_pos_site_id
 _symmetry_equiv_pos_as_xyz
  1  'x, y, z'
loop_
 _atom_site_type_symbol
 _atom_site_label
 _atom_site_symmetry_multiplicity
 _atom_site_fract_x
 _atom_site_fract_y
 _atom_site_fract_z
 _atom_site_occupancy
  Nd  Nd0  1  0.82526799  0.82526798  0.65053602  1
  Nd  Nd1  1  0.07293000  0.57292999  0.14586001  1
  Nd  Nd2  1  0.42707000  0.92706998  0.85414002  1
  Sn  Sn3  1  0.17473200  0.17473200  0.34946401  1
  Ge  Ge4  1  0.25000000  0.74999998  0.50000001  1
  Ge  Ge5  1  0.65878599  0.65878599  0.31757201  1
  Ge  Ge6  1  0.90636598  0.40636599  0.81273202  1
  Ge  Ge7  1  0.59363399  0.09363400  0.18726801  1
  Ge  Ge8  1  0.34121399  0.34121399  0.68242801  1
  Ge  Ge9  1  0.49999999  0.49999999  0.00000001  1
  Ge  Ge10  1  0.74999998  0.24999999  0.50000001  1
  Ge  Ge11  1  0.00000000  0.00000000  0.00000000  1
