# generated using pymatgen
data_Nb7VS6
_symmetry_space_group_name_H-M   'P 1'
_cell_length_a   4.52641296
_cell_length_b   8.98532200
_cell_length_c   8.98532200
_cell_angle_alpha   120.00000000
_cell_angle_beta   90.00000000
_cell_angle_gamma   90.00000000
_symmetry_Int_Tables_number   1
_chemical_formula_structural   Nb7VS6
_chemical_formula_sum   'Nb7 V1 S6'
_cell_volume   316.48424556
_cell_formula_units_Z   1
loop_
 _symmetry_equiv_pos_site_id
 _symmetry_equiv_pos_as_xyz
  1  'x, y, z'
loop_
 _atom_site_type_symbol
 _atom_site_label
 _atom_site_symmetry_multiplicity
 _atom_site_fract_x
 _atom_site_fract_y
 _atom_site_fract_z
 _atom_site_occupancy
  Nb  Nb0  1  0.25000000  0.66666666  0.33333332  1
  Nb  Nb1  1  0.75000001  0.33333333  0.66666666  1
  Nb  Nb2  1  0.25000000  0.03220200  0.84704099  1
  Nb  Nb3  1  0.25000000  0.15295900  0.18516100  1
  Nb  Nb4  1  0.25000000  0.81483900  0.96779798  1
  Nb  Nb5  1  0.75000001  0.96779800  0.15295899  1
  Nb  Nb6  1  0.75000001  0.84704100  0.81483898  1
  V  V7  1  0.75000001  0.18516100  0.03220200  1
  S  S8  1  0.25000000  0.69686500  0.63412699  1
  S  S9  1  0.25000000  0.36587300  0.06273800  1
  S  S10  1  0.25000000  0.93726200  0.30313499  1
  S  S11  1  0.75000001  0.30313500  0.36587299  1
  S  S12  1  0.75000001  0.63412700  0.93726199  1
  S  S13  1  0.75000001  0.06273800  0.69686499  1
