# generated using pymatgen
data_CaSiP2
_symmetry_space_group_name_H-M   'P 1'
_cell_length_a   5.47073412
_cell_length_b   5.47073364
_cell_length_c   7.55231380
_cell_angle_alpha   90.00000000
_cell_angle_beta   90.00000000
_cell_angle_gamma   120.00000000
_symmetry_Int_Tables_number   1
_chemical_formula_structural   CaSiP2
_chemical_formula_sum   'Ca3 Si3 P6'
_cell_volume   195.75003009
_cell_formula_units_Z   3
loop_
 _symmetry_equiv_pos_site_id
 _symmetry_equiv_pos_as_xyz
  1  'x, y, z'
loop_
 _atom_site_type_symbol
 _atom_site_label
 _atom_site_symmetry_multiplicity
 _atom_site_fract_x
 _atom_site_fract_y
 _atom_site_fract_z
 _atom_site_occupancy
  Ca  Ca0  1  0.49999999  0.00000000  0.16666700  1
  Ca  Ca1  1  0.49999996  0.49999997  0.50000001  1
  Ca  Ca2  1  -0.00000003  0.49999997  0.83333302  1
  Si  Si3  1  0.49999999  0.00000000  0.66666668  1
  Si  Si4  1  0.49999996  0.49999997  -0.00000000  1
  Si  Si5  1  -0.00000003  0.49999997  0.33333334  1
  P  P6  1  0.85234193  0.70468395  0.16666700  1
  P  P7  1  0.85234197  0.14765799  0.50000001  1
  P  P8  1  0.29531598  0.14765799  0.83333302  1
  P  P9  1  0.14765798  0.29531598  0.16666700  1
  P  P10  1  0.14765794  0.85234194  0.50000001  1
  P  P11  1  0.70468393  0.85234194  0.83333302  1
