# generated using pymatgen
data_Pr2Bi
_symmetry_space_group_name_H-M   'P 1'
_cell_length_a   3.79555607
_cell_length_b   6.79505539
_cell_length_c   8.88477802
_cell_angle_alpha   106.76435089
_cell_angle_beta   90.00000000
_cell_angle_gamma   106.21772003
_symmetry_Int_Tables_number   1
_chemical_formula_structural   Pr2Bi
_chemical_formula_sum   'Pr4 Bi2'
_cell_volume   209.86737235
_cell_formula_units_Z   2
loop_
 _symmetry_equiv_pos_site_id
 _symmetry_equiv_pos_as_xyz
  1  'x, y, z'
loop_
 _atom_site_type_symbol
 _atom_site_label
 _atom_site_symmetry_multiplicity
 _atom_site_fract_x
 _atom_site_fract_y
 _atom_site_fract_z
 _atom_site_occupancy
  Pr  Pr0  1  0.99470497  0.98940997  0.03686600  1
  Pr  Pr1  1  0.68560898  0.37121799  0.33267699  1
  Pr  Pr2  1  0.04873700  0.09747400  0.57365098  1
  Pr  Pr3  1  0.33717099  0.67434198  0.68399698  1
  Bi  Bi4  1  0.71472998  0.42945999  0.93429897  1
  Bi  Bi5  1  0.38571499  0.77142998  0.27184399  1
