# generated using pymatgen
data_Ag2Se
_symmetry_space_group_name_H-M   'P 1'
_cell_length_a   6.59824324
_cell_length_b   6.59824324
_cell_length_c   6.59824324
_cell_angle_alpha   90.00000000
_cell_angle_beta   90.00000000
_cell_angle_gamma   90.00000000
_symmetry_Int_Tables_number   1
_chemical_formula_structural   Ag2Se
_chemical_formula_sum   'Ag8 Se4'
_cell_volume   287.26648725
_cell_formula_units_Z   4
loop_
 _symmetry_equiv_pos_site_id
 _symmetry_equiv_pos_as_xyz
  1  'x, y, z'
loop_
 _atom_site_type_symbol
 _atom_site_label
 _atom_site_symmetry_multiplicity
 _atom_site_fract_x
 _atom_site_fract_y
 _atom_site_fract_z
 _atom_site_occupancy
  Ag  Ag0  1  0.87354797  0.12645200  0.62645198  1
  Ag  Ag1  1  0.12645200  0.62645198  0.87354797  1
  Ag  Ag2  1  0.62645198  0.87354797  0.12645200  1
  Ag  Ag3  1  0.37354799  0.37354799  0.37354799  1
  Ag  Ag4  1  0.12632400  0.87367597  0.37367599  1
  Ag  Ag5  1  0.87367597  0.37367599  0.12632400  1
  Ag  Ag6  1  0.37367599  0.12632400  0.87367597  1
  Ag  Ag7  1  0.62632398  0.62632398  0.62632398  1
  Se  Se8  1  0.49814098  0.50185898  0.00185900  1
  Se  Se9  1  0.50185898  0.00185900  0.49814098  1
  Se  Se10  1  0.00185900  0.49814098  0.50185898  1
  Se  Se11  1  0.99814096  0.99814096  0.99814096  1
