# generated using pymatgen
data_LiFeSiP2
_symmetry_space_group_name_H-M   'P 1'
_cell_length_a   4.03560209
_cell_length_b   4.03560209
_cell_length_c   5.65942860
_cell_angle_alpha   110.88773346
_cell_angle_beta   110.88773346
_cell_angle_gamma   90.00000000
_symmetry_Int_Tables_number   1
_chemical_formula_structural   LiFeSiP2
_chemical_formula_sum   'Li1 Fe1 Si1 P2'
_cell_volume   79.59562402
_cell_formula_units_Z   1
loop_
 _symmetry_equiv_pos_site_id
 _symmetry_equiv_pos_as_xyz
  1  'x, y, z'
loop_
 _atom_site_type_symbol
 _atom_site_label
 _atom_site_symmetry_multiplicity
 _atom_site_fract_x
 _atom_site_fract_y
 _atom_site_fract_z
 _atom_site_occupancy
  Li  Li0  1  0.00000000  0.00000000  0.00000000  1
  Fe  Fe1  1  0.75000001  0.25000000  0.50000007  1
  Si  Si2  1  0.25000004  0.75000001  0.50000008  1
  P  P3  1  0.62722304  0.62722301  0.25444608  1
  P  P4  1  0.37277702  0.37277700  0.74555407  1
