# generated using pymatgen
data_Li4Mn(FeO4)3
_symmetry_space_group_name_H-M   'P 1'
_cell_length_a   5.15524387
_cell_length_b   5.37670612
_cell_length_c   7.38990211
_cell_angle_alpha   90.00000000
_cell_angle_beta   90.00000000
_cell_angle_gamma   90.00000000
_symmetry_Int_Tables_number   1
_chemical_formula_structural   Li4Mn(FeO4)3
_chemical_formula_sum   'Li4 Mn1 Fe3 O12'
_cell_volume   204.83501612
_cell_formula_units_Z   1
loop_
 _symmetry_equiv_pos_site_id
 _symmetry_equiv_pos_as_xyz
  1  'x, y, z'
loop_
 _atom_site_type_symbol
 _atom_site_label
 _atom_site_symmetry_multiplicity
 _atom_site_fract_x
 _atom_site_fract_y
 _atom_site_fract_z
 _atom_site_occupancy
  Li  Li0  1  0.01581700  0.93858398  0.74999999  1
  Li  Li1  1  0.48418301  0.43858399  0.74999999  1
  Li  Li2  1  0.51581701  0.56141599  0.25000000  1
  Li  Li3  1  0.98418302  0.06141600  0.25000000  1
  Mn  Mn4  1  0.00000000  0.49999999  0.00000000  1
  Fe  Fe5  1  0.00000000  0.49999999  0.49999999  1
  Fe  Fe6  1  0.50000001  0.00000000  0.00000000  1
  Fe  Fe7  1  0.50000001  0.00000000  0.49999999  1
  O  O8  1  0.09667400  0.47110199  0.25000000  1
  O  O9  1  0.20086200  0.20221400  0.55068599  1
  O  O10  1  0.20086200  0.20221400  0.94931399  1
  O  O11  1  0.29913801  0.70221398  0.94931399  1
  O  O12  1  0.29913801  0.70221398  0.55068599  1
  O  O13  1  0.40332601  0.97110198  0.25000000  1
  O  O14  1  0.59667401  0.02889800  0.74999999  1
  O  O15  1  0.70086202  0.29778599  0.05068600  1
  O  O16  1  0.70086202  0.29778599  0.44931399  1
  O  O17  1  0.79913802  0.79778598  0.05068600  1
  O  O18  1  0.79913802  0.79778598  0.44931399  1
  O  O19  1  0.90332602  0.52889799  0.74999999  1
