# generated using pymatgen
data_AlFe3
_symmetry_space_group_name_H-M   'P 1'
_cell_length_a   4.17433882
_cell_length_b   5.16914606
_cell_length_c   5.16914606
_cell_angle_alpha   60.00000000
_cell_angle_beta   90.00000000
_cell_angle_gamma   90.00000000
_symmetry_Int_Tables_number   1
_chemical_formula_structural   AlFe3
_chemical_formula_sum   'Al2 Fe6'
_cell_volume   96.59528672
_cell_formula_units_Z   2
loop_
 _symmetry_equiv_pos_site_id
 _symmetry_equiv_pos_as_xyz
  1  'x, y, z'
loop_
 _atom_site_type_symbol
 _atom_site_label
 _atom_site_symmetry_multiplicity
 _atom_site_fract_x
 _atom_site_fract_y
 _atom_site_fract_z
 _atom_site_occupancy
  Fe  Fe0  1  -0.00000000  0.16186900  0.16187000  1
  Al  Al1  1  1.00000004  0.16186900  0.67626202  1
  Al  Al2  1  0.00000000  0.67626100  0.16186999  1
  Fe  Fe3  1  0.50000002  0.84072200  0.84072200  1
  Fe  Fe4  1  0.50000002  0.84072200  0.31855599  1
  Fe  Fe5  1  0.50000002  0.31855600  0.84072202  1
  Fe  Fe6  1  0.50000002  0.33333333  0.33333333  1
  Fe  Fe7  1  -0.00000000  0.66666667  0.66666667  1
