# generated using pymatgen
data_Ge
_symmetry_space_group_name_H-M   'P 1'
_cell_length_a   4.10517979
_cell_length_b   4.10919189
_cell_length_c   11.04109478
_cell_angle_alpha   98.01679993
_cell_angle_beta   90.63677216
_cell_angle_gamma   90.00753021
_symmetry_Int_Tables_number   1
_chemical_formula_structural   Ge
_chemical_formula_sum   Ge4
_cell_volume   184.42005812
_cell_formula_units_Z   4
loop_
 _symmetry_equiv_pos_site_id
 _symmetry_equiv_pos_as_xyz
  1  'x, y, z'
loop_
 _atom_site_type_symbol
 _atom_site_label
 _atom_site_symmetry_multiplicity
 _atom_site_fract_x
 _atom_site_fract_y
 _atom_site_fract_z
 _atom_site_occupancy
  Ge  Ge0  1  0.74223305  0.69580503  0.36480101  1
  Ge  Ge1  1  0.25776702  0.30419501  0.63519902  1
  Ge  Ge2  1  0.75300005  0.78755403  0.60042202  1
  Ge  Ge3  1  0.24700002  0.21244601  0.39957801  1
