# generated using pymatgen
data_Dy7LuSn8
_symmetry_space_group_name_H-M   'P 1'
_cell_length_a   6.50258780
_cell_length_b   8.86592102
_cell_length_c   8.86592102
_cell_angle_alpha   119.98131561
_cell_angle_beta   90.00000000
_cell_angle_gamma   90.00000000
_symmetry_Int_Tables_number   1
_chemical_formula_structural   Dy7LuSn8
_chemical_formula_sum   'Dy7 Lu1 Sn8'
_cell_volume   442.73750082
_cell_formula_units_Z   1
loop_
 _symmetry_equiv_pos_site_id
 _symmetry_equiv_pos_as_xyz
  1  'x, y, z'
loop_
 _atom_site_type_symbol
 _atom_site_label
 _atom_site_symmetry_multiplicity
 _atom_site_fract_x
 _atom_site_fract_y
 _atom_site_fract_z
 _atom_site_occupancy
  Dy  Dy0  1  0.24998501  0.76361099  0.76361095  1
  Dy  Dy1  1  0.24999901  0.23635500  0.99995697  1
  Dy  Dy2  1  0.24999901  0.99995599  0.23635396  1
  Lu  Lu3  1  0.74998502  0.23638900  0.23638899  1
  Dy  Dy4  1  0.74999902  0.76364499  0.00004297  1
  Dy  Dy5  1  0.74999902  0.00004400  0.76364598  1
  Dy  Dy6  1  0.50000502  0.66666666  0.33333330  1
  Dy  Dy7  1  0.50000502  0.33333333  0.66666664  1
  Sn  Sn8  1  0.00000500  0.33333333  0.66666664  1
  Sn  Sn9  1  0.00000500  0.66662299  0.33328963  1
  Sn  Sn10  1  0.25001301  0.39495000  0.39494998  1
  Sn  Sn11  1  0.24999701  0.60506099  0.00005498  1
  Sn  Sn12  1  0.24999701  0.00005400  0.60505998  1
  Sn  Sn13  1  0.75001302  0.60504999  0.60504996  1
  Sn  Sn14  1  0.74999702  0.39493900  0.99994496  1
  Sn  Sn15  1  0.74999702  0.99994599  0.39493995  1
