# generated using pymatgen
data_Ce2Ir3Ru
_symmetry_space_group_name_H-M   'P 1'
_cell_length_a   5.25128412
_cell_length_b   5.25128365
_cell_length_c   8.44523239
_cell_angle_alpha   90.00000000
_cell_angle_beta   90.00000000
_cell_angle_gamma   120.00000000
_symmetry_Int_Tables_number   1
_chemical_formula_structural   Ce2Ir3Ru
_chemical_formula_sum   'Ce4 Ir6 Ru2'
_cell_volume   201.68482850
_cell_formula_units_Z   2
loop_
 _symmetry_equiv_pos_site_id
 _symmetry_equiv_pos_as_xyz
  1  'x, y, z'
loop_
 _atom_site_type_symbol
 _atom_site_label
 _atom_site_symmetry_multiplicity
 _atom_site_fract_x
 _atom_site_fract_y
 _atom_site_fract_z
 _atom_site_occupancy
  Ce  Ce0  1  0.66666664  0.33333333  0.93758196  1
  Ce  Ce1  1  0.33333330  0.66666666  0.43758198  1
  Ce  Ce2  1  0.33333330  0.66666666  0.06241800  1
  Ce  Ce3  1  0.66666664  0.33333333  0.56241797  1
  Ir  Ir4  1  0.00000000  0.00000000  0.00000000  1
  Ir  Ir5  1  0.00000000  0.00000000  0.49999998  1
  Ru  Ru6  1  0.82963897  0.17036100  0.24999999  1
  Ir  Ir7  1  0.17036098  0.34072200  0.74999997  1
  Ir  Ir8  1  0.65927795  0.82963899  0.74999997  1
  Ir  Ir9  1  0.34072199  0.17036100  0.24999999  1
  Ru  Ru10  1  0.82963896  0.65927799  0.24999999  1
  Ir  Ir11  1  0.17036096  0.82963899  0.74999997  1
