# generated using pymatgen
data_Nd2SnGe3
_symmetry_space_group_name_H-M   'P 1'
_cell_length_a   4.12757397
_cell_length_b   4.12757397
_cell_length_c   8.90368176
_cell_angle_alpha   90.00000000
_cell_angle_beta   90.00000000
_cell_angle_gamma   90.00000000
_symmetry_Int_Tables_number   1
_chemical_formula_structural   Nd2SnGe3
_chemical_formula_sum   'Nd2 Sn1 Ge3'
_cell_volume   151.69084056
_cell_formula_units_Z   1
loop_
 _symmetry_equiv_pos_site_id
 _symmetry_equiv_pos_as_xyz
  1  'x, y, z'
loop_
 _atom_site_type_symbol
 _atom_site_label
 _atom_site_symmetry_multiplicity
 _atom_site_fract_x
 _atom_site_fract_y
 _atom_site_fract_z
 _atom_site_occupancy
  Nd  Nd0  1  -0.00000000  0.50000000  0.24606101  1
  Nd  Nd1  1  0.50000000  0.00000000  0.75393902  1
  Sn  Sn2  1  -0.00000000  0.50000000  0.62958602  1
  Ge  Ge3  1  0.50000000  0.00000000  0.37041401  1
  Ge  Ge4  1  0.50000000  0.50000000  -0.00000000  1
  Ge  Ge5  1  0.00000000  0.00000000  0.00000000  1
