# generated using pymatgen
data_Hf(TaNi3)2
_symmetry_space_group_name_H-M   'P 1'
_cell_length_a   3.51260495
_cell_length_b   6.61779404
_cell_length_c   6.61779356
_cell_angle_alpha   120.00000000
_cell_angle_beta   90.00000000
_cell_angle_gamma   90.00000000
_symmetry_Int_Tables_number   1
_chemical_formula_structural   Hf(TaNi3)2
_chemical_formula_sum   'Hf1 Ta2 Ni6'
_cell_volume   133.22520676
_cell_formula_units_Z   1
loop_
 _symmetry_equiv_pos_site_id
 _symmetry_equiv_pos_as_xyz
  1  'x, y, z'
loop_
 _atom_site_type_symbol
 _atom_site_label
 _atom_site_symmetry_multiplicity
 _atom_site_fract_x
 _atom_site_fract_y
 _atom_site_fract_z
 _atom_site_occupancy
  Ta  Ta0  1  0.50000001  0.99999996  0.25366793  1
  Ta  Ta1  1  0.50000001  0.74633197  0.74633193  1
  Hf  Hf2  1  0.50000001  0.25366799  -0.00000002  1
  Ni  Ni3  1  1.00000001  0.40926799  0.40926796  1
  Ni  Ni4  1  -0.00000000  0.59073198  -0.00000004  1
  Ni  Ni5  1  -0.00000000  0.99999996  0.59073192  1
  Ni  Ni6  1  0.00000000  0.00000000  0.00000000  1
  Ni  Ni7  1  0.50000001  0.33333332  0.66666663  1
  Ni  Ni8  1  0.50000001  0.66666664  0.33333328  1
