# generated using pymatgen
data_LiGe3C2
_symmetry_space_group_name_H-M   'P 1'
_cell_length_a   3.04049206
_cell_length_b   5.51508808
_cell_length_c   5.51508760
_cell_angle_alpha   120.00000000
_cell_angle_beta   90.00000000
_cell_angle_gamma   90.00000000
_symmetry_Int_Tables_number   1
_chemical_formula_structural   LiGe3C2
_chemical_formula_sum   'Li1 Ge3 C2'
_cell_volume   80.09019911
_cell_formula_units_Z   1
loop_
 _symmetry_equiv_pos_site_id
 _symmetry_equiv_pos_as_xyz
  1  'x, y, z'
loop_
 _atom_site_type_symbol
 _atom_site_label
 _atom_site_symmetry_multiplicity
 _atom_site_fract_x
 _atom_site_fract_y
 _atom_site_fract_z
 _atom_site_occupancy
  Li  Li0  1  0.00000000  0.00000000  0.00000000  1
  Ge  Ge1  1  -0.00000000  0.66666665  0.33333332  1
  C  C2  1  -0.00000000  0.33333332  0.66666667  1
  Ge  Ge3  1  0.49999999  0.49999998  0.50000000  1
  C  C4  1  0.49999999  0.49999998  -0.00000002  1
  Ge  Ge5  1  0.49999999  0.99999997  0.49999998  1
