# generated using pymatgen
data_BaSn2(Bi2Sb)3
_symmetry_space_group_name_H-M   'P 1'
_cell_length_a   3.77533388
_cell_length_b   6.92664909
_cell_length_c   16.32497406
_cell_angle_alpha   95.16104126
_cell_angle_beta   90.00000000
_cell_angle_gamma   90.00000000
_symmetry_Int_Tables_number   1
_chemical_formula_structural   BaSn2(Bi2Sb)3
_chemical_formula_sum   'Ba1 Sn2 Bi6 Sb3'
_cell_volume   425.17405428
_cell_formula_units_Z   1
loop_
 _symmetry_equiv_pos_site_id
 _symmetry_equiv_pos_as_xyz
  1  'x, y, z'
loop_
 _atom_site_type_symbol
 _atom_site_label
 _atom_site_symmetry_multiplicity
 _atom_site_fract_x
 _atom_site_fract_y
 _atom_site_fract_z
 _atom_site_occupancy
  Ba  Ba0  1  0.75000002  0.68655599  0.99682704  1
  Sn  Sn1  1  0.75000002  0.18783100  0.50325302  1
  Bi  Bi2  1  0.25000001  0.31344400  0.00317300  1
  Sn  Sn3  1  0.25000001  0.81216899  0.49674702  1
  Bi  Bi4  1  0.75000002  0.60182899  0.60071402  1
  Sb  Sb5  1  0.25000001  0.39817099  0.39928601  1
  Bi  Bi6  1  0.25000001  0.55245099  0.86439104  1
  Bi  Bi7  1  0.25000001  0.94132199  0.10061400  1
  Bi  Bi8  1  0.75000002  0.44754899  0.13560900  1
  Sb  Sb9  1  0.25000001  0.10964500  0.63567003  1
  Bi  Bi10  1  0.75000002  0.05867800  0.89938604  1
  Sb  Sb11  1  0.75000002  0.89035499  0.36433001  1
