# generated using pymatgen
data_Tl2AgS5
_symmetry_space_group_name_H-M   'P 1'
_cell_length_a   4.08071613
_cell_length_b   4.08071613
_cell_length_c   13.24792576
_cell_angle_alpha   90.00000000
_cell_angle_beta   90.00000000
_cell_angle_gamma   120.00000000
_symmetry_Int_Tables_number   1
_chemical_formula_structural   Tl2AgS5
_chemical_formula_sum   'Tl2 Ag1 S5'
_cell_volume   191.05186756
_cell_formula_units_Z   1
loop_
 _symmetry_equiv_pos_site_id
 _symmetry_equiv_pos_as_xyz
  1  'x, y, z'
loop_
 _atom_site_type_symbol
 _atom_site_label
 _atom_site_symmetry_multiplicity
 _atom_site_fract_x
 _atom_site_fract_y
 _atom_site_fract_z
 _atom_site_occupancy
  Tl  Tl0  1  0.00000000  0.00000000  0.59323701  1
  Tl  Tl1  1  0.00000000  0.00000000  0.40676301  1
  Ag  Ag2  1  0.00000000  0.00000000  0.09323700  1
  S  S3  1  0.00000000  0.00000000  0.90676302  1
  S  S4  1  0.66666666  0.33333335  0.65571001  1
  S  S5  1  0.33333335  0.66666670  0.34429001  1
  S  S6  1  0.33333335  0.66666670  0.15571000  1
  S  S7  1  0.66666666  0.33333335  0.84429002  1
