# generated using pymatgen
data_Li2Mn9V
_symmetry_space_group_name_H-M   'P 1'
_cell_length_a   4.97932911
_cell_length_b   4.97932911
_cell_length_c   8.51512623
_cell_angle_alpha   72.99942017
_cell_angle_beta   72.99942017
_cell_angle_gamma   59.99998474
_symmetry_Int_Tables_number   1
_chemical_formula_structural   Li2Mn9V
_chemical_formula_sum   'Li2 Mn9 V1'
_cell_volume   172.10142809
_cell_formula_units_Z   1
loop_
 _symmetry_equiv_pos_site_id
 _symmetry_equiv_pos_as_xyz
  1  'x, y, z'
loop_
 _atom_site_type_symbol
 _atom_site_label
 _atom_site_symmetry_multiplicity
 _atom_site_fract_x
 _atom_site_fract_y
 _atom_site_fract_z
 _atom_site_occupancy
  Li  Li0  1  0.85844201  0.85844201  0.42467397  1
  Li  Li1  1  0.14155800  0.14155800  0.57532600  1
  V  V2  1  0.00000000  0.00000000  0.00000000  1
  Mn  Mn3  1  0.92029801  0.41728600  0.24512997  1
  Mn  Mn4  1  0.41728600  0.41728600  0.24512998  1
  Mn  Mn5  1  0.41728601  0.92029801  0.24512997  1
  Mn  Mn6  1  0.07970200  0.58271400  0.75486999  1
  Mn  Mn7  1  0.58271401  0.58271400  0.75486998  1
  Mn  Mn8  1  0.58271401  0.07970200  0.75486999  1
  Mn  Mn9  1  0.66581801  0.66581801  0.00254597  1
  Mn  Mn10  1  0.33418200  0.33418200  0.99745400  1
  Mn  Mn11  1  0.50000001  0.50000000  0.49999998  1
