# generated using pymatgen
data_Nd2HfNi2
_symmetry_space_group_name_H-M   'P 1'
_cell_length_a   4.23385906
_cell_length_b   7.20560884
_cell_length_c   7.20560884
_cell_angle_alpha   90.00000000
_cell_angle_beta   90.00000000
_cell_angle_gamma   90.00000000
_symmetry_Int_Tables_number   1
_chemical_formula_structural   Nd2HfNi2
_chemical_formula_sum   'Nd4 Hf2 Ni4'
_cell_volume   219.82534462
_cell_formula_units_Z   2
loop_
 _symmetry_equiv_pos_site_id
 _symmetry_equiv_pos_as_xyz
  1  'x, y, z'
loop_
 _atom_site_type_symbol
 _atom_site_label
 _atom_site_symmetry_multiplicity
 _atom_site_fract_x
 _atom_site_fract_y
 _atom_site_fract_z
 _atom_site_occupancy
  Nd  Nd0  1  0.49999999  0.67929401  0.17929400  1
  Nd  Nd1  1  0.49999999  0.32070601  0.82070602  1
  Nd  Nd2  1  0.49999999  0.17929400  0.32070601  1
  Nd  Nd3  1  0.49999999  0.82070602  0.67929401  1
  Hf  Hf4  1  0.00000000  0.00000000  0.00000000  1
  Hf  Hf5  1  0.00000000  0.50000001  0.50000001  1
  Ni  Ni6  1  0.99999999  0.11709800  0.61709801  1
  Ni  Ni7  1  -0.00000000  0.88290202  0.38290201  1
  Ni  Ni8  1  0.99999999  0.61709801  0.88290202  1
  Ni  Ni9  1  0.99999999  0.38290201  0.11709800  1
