# generated using pymatgen
data_TiGe2
_symmetry_space_group_name_H-M   'P 1'
_cell_length_a   3.50713205
_cell_length_b   6.94837189
_cell_length_c   8.20530987
_cell_angle_alpha   90.00000000
_cell_angle_beta   90.00000000
_cell_angle_gamma   90.00000000
_symmetry_Int_Tables_number   1
_chemical_formula_structural   TiGe2
_chemical_formula_sum   'Ti4 Ge8'
_cell_volume   199.95402908
_cell_formula_units_Z   4
loop_
 _symmetry_equiv_pos_site_id
 _symmetry_equiv_pos_as_xyz
  1  'x, y, z'
loop_
 _atom_site_type_symbol
 _atom_site_label
 _atom_site_symmetry_multiplicity
 _atom_site_fract_x
 _atom_site_fract_y
 _atom_site_fract_z
 _atom_site_occupancy
  Ti  Ti0  1  0.25000000  0.04349100  0.33260301  1
  Ti  Ti1  1  0.74999999  0.95650902  0.66739701  1
  Ti  Ti2  1  0.25000000  0.54349101  0.16739700  1
  Ti  Ti3  1  0.74999999  0.45650901  0.83260301  1
  Ge  Ge4  1  0.25000000  0.25709100  0.63736801  1
  Ge  Ge5  1  0.74999999  0.74290901  0.36263201  1
  Ge  Ge6  1  0.25000000  0.75709101  0.86263201  1
  Ge  Ge7  1  0.74999999  0.24290900  0.13736800  1
  Ge  Ge8  1  0.74999999  0.36536201  0.43739601  1
  Ge  Ge9  1  0.25000000  0.63463801  0.56260401  1
  Ge  Ge10  1  0.74999999  0.86536201  0.06260400  1
  Ge  Ge11  1  0.25000000  0.13463800  0.93739602  1
