# generated using pymatgen
data_LiMgAl3Co
_symmetry_space_group_name_H-M   'P 1'
_cell_length_a   5.44203377
_cell_length_b   5.44203377
_cell_length_c   5.44203377
_cell_angle_alpha   60.00000000
_cell_angle_beta   60.00000000
_cell_angle_gamma   60.00000000
_symmetry_Int_Tables_number   1
_chemical_formula_structural   LiMgAl3Co
_chemical_formula_sum   'Li1 Mg1 Al3 Co1'
_cell_volume   113.96426631
_cell_formula_units_Z   1
loop_
 _symmetry_equiv_pos_site_id
 _symmetry_equiv_pos_as_xyz
  1  'x, y, z'
loop_
 _atom_site_type_symbol
 _atom_site_label
 _atom_site_symmetry_multiplicity
 _atom_site_fract_x
 _atom_site_fract_y
 _atom_site_fract_z
 _atom_site_occupancy
  Li  Li0  1  0.00000000  0.00000000  0.00000000  1
  Mg  Mg1  1  0.75000000  0.75000000  0.75000000  1
  Al  Al2  1  0.37537100  0.87388701  0.37537100  1
  Al  Al3  1  0.37537100  0.37537100  0.37537100  1
  Al  Al4  1  0.37537100  0.37537100  0.87388701  1
  Co  Co5  1  0.87388701  0.37537100  0.37537100  1
