# generated using pymatgen
data_CaNd5(NiSn6)2
_symmetry_space_group_name_H-M   'P 1'
_cell_length_a   6.18422508
_cell_length_b   9.75158215
_cell_length_c   9.75158119
_cell_angle_alpha   120.00000000
_cell_angle_beta   90.00000000
_cell_angle_gamma   90.00000000
_symmetry_Int_Tables_number   1
_chemical_formula_structural   CaNd5(NiSn6)2
_chemical_formula_sum   'Ca1 Nd5 Ni2 Sn12'
_cell_volume   509.29104997
_cell_formula_units_Z   1
loop_
 _symmetry_equiv_pos_site_id
 _symmetry_equiv_pos_as_xyz
  1  'x, y, z'
loop_
 _atom_site_type_symbol
 _atom_site_label
 _atom_site_symmetry_multiplicity
 _atom_site_fract_x
 _atom_site_fract_y
 _atom_site_fract_z
 _atom_site_occupancy
  Ca  Ca0  1  0.95096799  0.66666664  0.33333331  1
  Nd  Nd1  1  0.45096799  0.33333332  0.66666666  1
  Nd  Nd2  1  0.75549299  0.87380397  0.74760797  1
  Nd  Nd3  1  0.25549300  0.74760697  0.87380298  1
  Nd  Nd4  1  0.25549300  0.12619600  0.87380301  1
  Nd  Nd5  1  0.75549299  0.87380397  0.12619696  1
  Sn  Sn6  1  0.75549299  0.25239299  0.12619699  1
  Sn  Sn7  1  0.25549300  0.12619600  0.25239200  1
  Sn  Sn8  1  0.95037299  0.45585498  0.91171000  1
  Sn  Sn9  1  0.45037299  0.91171097  0.45585597  1
  Sn  Sn10  1  0.45037299  0.54414498  0.45585598  1
  Sn  Sn11  1  0.95037299  0.45585498  0.54414399  1
  Sn  Sn12  1  0.95037299  0.08828900  0.54414401  1
  Sn  Sn13  1  0.45037299  0.54414498  0.08828998  1
  Sn  Sn14  1  0.70047799  0.18525399  0.37050800  1
  Sn  Sn15  1  0.20047800  0.37050699  0.18525299  1
  Ni  Ni16  1  0.20047800  0.81474597  0.18525297  1
  Sn  Sn17  1  0.70047799  0.18525399  0.81474701  1
  Sn  Sn18  1  0.70047799  0.62949298  0.81474699  1
  Ni  Ni19  1  0.20047800  0.81474597  0.62949198  1
