# generated using pymatgen
data_CeTeO
_symmetry_space_group_name_H-M   'P 1'
_cell_length_a   3.99075103
_cell_length_b   3.99075103
_cell_length_c   7.02024317
_cell_angle_alpha   90.00000000
_cell_angle_beta   90.00000000
_cell_angle_gamma   90.00000000
_symmetry_Int_Tables_number   1
_chemical_formula_structural   CeTeO
_chemical_formula_sum   'Ce2 Te2 O2'
_cell_volume   111.80505097
_cell_formula_units_Z   2
loop_
 _symmetry_equiv_pos_site_id
 _symmetry_equiv_pos_as_xyz
  1  'x, y, z'
loop_
 _atom_site_type_symbol
 _atom_site_label
 _atom_site_symmetry_multiplicity
 _atom_site_fract_x
 _atom_site_fract_y
 _atom_site_fract_z
 _atom_site_occupancy
  Ce  Ce0  1  0.00000000  0.50000000  0.76969798  1
  Ce  Ce1  1  0.50000000  0.00000000  0.23030199  1
  Te  Te2  1  0.50000000  0.00000000  0.64745898  1
  Te  Te3  1  0.00000000  0.50000000  0.35254099  1
  O  O4  1  0.50000000  0.50000000  0.00000000  1
  O  O5  1  0.00000000  0.00000000  0.00000000  1
