# generated using pymatgen
data_Li4Ga(NiO3)3
_symmetry_space_group_name_H-M   'P 1'
_cell_length_a   2.86837292
_cell_length_b   8.51881599
_cell_length_c   9.57790089
_cell_angle_alpha   116.40491486
_cell_angle_beta   90.00000000
_cell_angle_gamma   90.00000000
_symmetry_Int_Tables_number   1
_chemical_formula_structural   Li4Ga(NiO3)3
_chemical_formula_sum   'Li4 Ga1 Ni3 O9'
_cell_volume   209.62108801
_cell_formula_units_Z   1
loop_
 _symmetry_equiv_pos_site_id
 _symmetry_equiv_pos_as_xyz
  1  'x, y, z'
loop_
 _atom_site_type_symbol
 _atom_site_label
 _atom_site_symmetry_multiplicity
 _atom_site_fract_x
 _atom_site_fract_y
 _atom_site_fract_z
 _atom_site_occupancy
  Li  Li0  1  0.50000001  0.80156898  0.60313797  1
  Li  Li1  1  0.50000001  0.19843100  0.39686199  1
  Li  Li2  1  0.50000001  0.64641499  -0.00000003  1
  Li  Li3  1  0.50000001  0.00000000  -0.00000000  1
  Ga  Ga4  1  0.50000001  0.35358499  -0.00000002  1
  Ni  Ni5  1  0.50000001  0.53365499  0.68973798  1
  Ni  Ni6  1  0.50000001  0.84391698  0.31026196  1
  Ni  Ni7  1  0.50000001  0.46634499  0.31026198  1
  O  O8  1  0.50000001  0.15608300  0.68973800  1
  O  O9  1  -0.00000000  0.37638999  0.75277999  1
  O  O10  1  -0.00000000  0.62360999  0.24721997  1
  O  O11  1  1.00000003  0.08067400  0.81349000  1
  O  O12  1  -0.00000000  0.91932598  0.18650996  1
  O  O13  1  -0.00000000  0.49999999  0.49999998  1
  O  O14  1  -0.00000000  0.73281598  0.81348997  1
  O  O15  1  -0.00000000  0.26718399  0.18650999  1
  O  O16  1  0.00000000  0.00000000  0.50000000  1
