# generated using pymatgen
data_Li4CuO8
_symmetry_space_group_name_H-M   'P 1'
_cell_length_a   5.15778208
_cell_length_b   5.41754246
_cell_length_c   6.85696125
_cell_angle_alpha   69.89341736
_cell_angle_beta   87.29605865
_cell_angle_gamma   67.69375610
_symmetry_Int_Tables_number   1
_chemical_formula_structural   Li4CuO8
_chemical_formula_sum   'Li4 Cu1 O8'
_cell_volume   165.69255131
_cell_formula_units_Z   1
loop_
 _symmetry_equiv_pos_site_id
 _symmetry_equiv_pos_as_xyz
  1  'x, y, z'
loop_
 _atom_site_type_symbol
 _atom_site_label
 _atom_site_symmetry_multiplicity
 _atom_site_fract_x
 _atom_site_fract_y
 _atom_site_fract_z
 _atom_site_occupancy
  Li  Li0  1  0.22708599  0.25596601  0.18896998  1
  Li  Li1  1  0.77291398  0.74403403  0.81102992  1
  Li  Li2  1  0.49999999  0.50000002  0.49999995  1
  Li  Li3  1  0.86374298  0.85196904  0.27635493  1
  Cu  Cu4  1  0.13625700  0.14803101  0.72364497  1
  O  O5  1  0.26692399  0.29710401  0.49248597  1
  O  O6  1  0.73307598  0.70289603  0.50751393  1
  O  O7  1  0.37204898  0.81107404  0.84862893  1
  O  O8  1  0.62795099  0.18892601  0.15137097  1
  O  O9  1  0.08761399  0.35345902  0.87748096  1
  O  O10  1  0.18197398  0.86982204  0.33449794  1
  O  O11  1  0.81802599  0.13017801  0.66550196  1
  O  O12  1  0.91238598  0.64654103  0.12251894  1
