# generated using pymatgen
data_CaGe
_symmetry_space_group_name_H-M   'P 1'
_cell_length_a   4.07224417
_cell_length_b   7.54767704
_cell_length_c   9.95086479
_cell_angle_alpha   90.00000000
_cell_angle_beta   90.00000000
_cell_angle_gamma   90.00000000
_symmetry_Int_Tables_number   1
_chemical_formula_structural   CaGe
_chemical_formula_sum   'Ca6 Ge6'
_cell_volume   305.84961907
_cell_formula_units_Z   6
loop_
 _symmetry_equiv_pos_site_id
 _symmetry_equiv_pos_as_xyz
  1  'x, y, z'
loop_
 _atom_site_type_symbol
 _atom_site_label
 _atom_site_symmetry_multiplicity
 _atom_site_fract_x
 _atom_site_fract_y
 _atom_site_fract_z
 _atom_site_occupancy
  Ca  Ca0  1  0.24999999  0.73077100  0.84124002  1
  Ca  Ca1  1  0.74999997  0.26922900  0.15876000  1
  Ca  Ca2  1  0.74999997  0.76922900  0.34124001  1
  Ca  Ca3  1  0.24999999  0.23077100  0.65876001  1
  Ca  Ca4  1  0.24999999  0.58579700  0.14807200  1
  Ge  Ge5  1  0.74999997  0.41420300  0.85192802  1
  Ge  Ge6  1  0.74999997  0.91420300  0.64807201  1
  Ca  Ca7  1  0.24999999  0.08579700  0.35192801  1
  Ge  Ge8  1  0.24999999  0.59747500  0.53967601  1
  Ge  Ge9  1  0.74999997  0.40252500  0.46032401  1
  Ge  Ge10  1  0.74999997  0.90252500  0.03967600  1
  Ge  Ge11  1  0.24999999  0.09747500  0.96032402  1
