# generated using pymatgen
data_Ce9Bi4Pd3Pb4
_symmetry_space_group_name_H-M   'P 1'
_cell_length_a   8.16703224
_cell_length_b   9.21632767
_cell_length_c   9.75105953
_cell_angle_alpha   64.73293304
_cell_angle_beta   65.24262238
_cell_angle_gamma   63.69981384
_symmetry_Int_Tables_number   1
_chemical_formula_structural   Ce9Bi4Pd3Pb4
_chemical_formula_sum   'Ce9 Bi4 Pd3 Pb4'
_cell_volume   570.66225038
_cell_formula_units_Z   1
loop_
 _symmetry_equiv_pos_site_id
 _symmetry_equiv_pos_as_xyz
  1  'x, y, z'
loop_
 _atom_site_type_symbol
 _atom_site_label
 _atom_site_symmetry_multiplicity
 _atom_site_fract_x
 _atom_site_fract_y
 _atom_site_fract_z
 _atom_site_occupancy
  Ce  Ce0  1  0.31384902  0.59242597  0.78646301  1
  Ce  Ce1  1  0.69273802  0.90757395  0.71353699  1
  Ce  Ce2  1  0.30726200  0.09242599  0.28646300  1
  Ce  Ce3  1  0.68615101  0.40757398  0.21353697  1
  Ce  Ce4  1  0.01154701  0.24999999  0.75000002  1
  Ce  Ce5  1  0.98845301  0.74999996  0.24999996  1
  Ce  Ce6  1  0.92295401  0.53198397  0.85869199  1
  Ce  Ce7  1  0.38090502  0.70546296  0.03053198  1
  Bi  Bi8  1  0.11690002  0.79453696  0.46946800  1
  Ce  Ce9  1  0.68636999  0.03198400  0.35869198  1
  Bi  Bi10  1  0.75771101  0.59325597  0.58108698  1
  Bi  Bi11  1  0.62367102  0.74999996  0.24999997  1
  Pb  Pb12  1  0.06794600  0.09325599  0.08108700  1
  Pb  Pb13  1  0.93205402  0.90674395  0.91891298  1
  Bi  Bi14  1  0.37632900  0.24999999  0.75000001  1
  Pb  Pb15  1  0.24228901  0.40674398  0.41891300  1
  Pd  Pd16  1  0.31363003  0.96801595  0.64130800  1
  Pb  Pb17  1  0.88310000  0.20546299  0.53053198  1
  Pd  Pd18  1  0.61909500  0.29453698  0.96946801  1
  Pd  Pd19  1  0.07704601  0.46801597  0.14130800  1
