# generated using pymatgen
data_LaCeSi3P2
_symmetry_space_group_name_H-M   'P 1'
_cell_length_a   4.32211781
_cell_length_b   4.32211781
_cell_length_c   9.31678391
_cell_angle_alpha   90.00000000
_cell_angle_beta   90.00000000
_cell_angle_gamma   90.00000000
_symmetry_Int_Tables_number   1
_chemical_formula_structural   LaCeSi3P2
_chemical_formula_sum   'La1 Ce1 Si3 P2'
_cell_volume   174.04406675
_cell_formula_units_Z   1
loop_
 _symmetry_equiv_pos_site_id
 _symmetry_equiv_pos_as_xyz
  1  'x, y, z'
loop_
 _atom_site_type_symbol
 _atom_site_label
 _atom_site_symmetry_multiplicity
 _atom_site_fract_x
 _atom_site_fract_y
 _atom_site_fract_z
 _atom_site_occupancy
  Ce  Ce0  1  0.50000002  0.00000000  0.23688000  1
  La  La1  1  -0.00000000  0.50000002  0.76312001  1
  Si  Si2  1  0.50000002  0.50000002  0.00000000  1
  Si  Si3  1  0.50000002  0.50000002  0.50000001  1
  P  P4  1  0.00000000  0.00000000  0.50000001  1
  Si  Si5  1  0.50000002  0.00000000  0.86936301  1
  P  P6  1  -0.00000000  0.50000002  0.13063700  1
