# generated using pymatgen
data_Ca3Mg(MnH7)2
_symmetry_space_group_name_H-M   'P 1'
_cell_length_a   5.27533102
_cell_length_b   6.94820738
_cell_length_c   6.94820738
_cell_angle_alpha   102.89412689
_cell_angle_beta   90.00000000
_cell_angle_gamma   90.00000000
_symmetry_Int_Tables_number   1
_chemical_formula_structural   Ca3Mg(MnH7)2
_chemical_formula_sum   'Ca3 Mg1 Mn2 H14'
_cell_volume   248.25824742
_cell_formula_units_Z   1
loop_
 _symmetry_equiv_pos_site_id
 _symmetry_equiv_pos_as_xyz
  1  'x, y, z'
loop_
 _atom_site_type_symbol
 _atom_site_label
 _atom_site_symmetry_multiplicity
 _atom_site_fract_x
 _atom_site_fract_y
 _atom_site_fract_z
 _atom_site_occupancy
  Mg  Mg0  1  0.52418200  0.29886300  0.08730101  1
  Ca  Ca1  1  0.02418200  0.08730100  0.29886300  1
  Ca  Ca2  1  0.57236700  0.39851500  0.60148501  1
  Ca  Ca3  1  0.07236700  0.60148500  0.39851502  1
  H  H4  1  0.02418200  0.70113700  0.91269902  1
  Mn  Mn5  1  0.52418200  0.91269899  0.70113703  1
  Mn  Mn6  1  0.98762900  0.19489600  0.80510400  1
  H  H7  1  0.48762900  0.80510400  0.19489603  1
  H  H8  1  0.79825300  0.35652600  0.32170901  1
  H  H9  1  0.29825300  0.32170900  0.35652601  1
  H  H10  1  0.81787100  0.10855800  0.57979200  1
  H  H11  1  0.31787100  0.57979200  0.10855802  1
  H  H12  1  0.85185300  0.04375800  0.95624199  1
  H  H13  1  0.32218000  0.21352400  0.78647600  1
  H  H14  1  0.82218000  0.78647600  0.21352403  1
  H  H15  1  0.35185300  0.95624199  0.04375804  1
  H  H16  1  0.81787100  0.42020800  0.89144200  1
  H  H17  1  0.31787100  0.89144199  0.42020803  1
  H  H18  1  0.79825300  0.67829100  0.64347402  1
  H  H19  1  0.29825300  0.64347400  0.67829102  1
