# generated using pymatgen
data_Ba4Bi4Pb
_symmetry_space_group_name_H-M   'P 1'
_cell_length_a   5.78554392
_cell_length_b   7.16049671
_cell_length_c   11.40396595
_cell_angle_alpha   74.65181732
_cell_angle_beta   75.30558014
_cell_angle_gamma   66.17212677
_symmetry_Int_Tables_number   1
_chemical_formula_structural   Ba4Bi4Pb
_chemical_formula_sum   'Ba4 Bi4 Pb1'
_cell_volume   410.94823495
_cell_formula_units_Z   1
loop_
 _symmetry_equiv_pos_site_id
 _symmetry_equiv_pos_as_xyz
  1  'x, y, z'
loop_
 _atom_site_type_symbol
 _atom_site_label
 _atom_site_symmetry_multiplicity
 _atom_site_fract_x
 _atom_site_fract_y
 _atom_site_fract_z
 _atom_site_occupancy
  Ba  Ba0  1  0.75022809  0.83360197  0.66594199  1
  Ba  Ba1  1  0.26005602  0.14777499  0.33211299  1
  Ba  Ba2  1  0.39515904  0.31414899  0.89553299  1
  Ba  Ba3  1  0.60472008  0.69016997  0.10038999  1
  Bi  Bi4  1  0.52807906  0.46029598  0.48354599  1
  Bi  Bi5  1  0.04206202  0.23296599  0.68291000  1
  Bi  Bi6  1  0.95590109  0.76948497  0.31871298  1
  Bi  Bi7  1  0.10031408  0.90894796  0.89042401  1
  Pb  Pb8  1  0.89878003  0.09311100  0.10932897  1
