# generated using pymatgen
data_MgPO3
_symmetry_space_group_name_H-M   'P 1'
_cell_length_a   5.45186758
_cell_length_b   6.78873634
_cell_length_c   6.78873634
_cell_angle_alpha   85.53187561
_cell_angle_beta   74.84488678
_cell_angle_gamma   74.84488678
_symmetry_Int_Tables_number   1
_chemical_formula_structural   MgPO3
_chemical_formula_sum   'Mg4 P4 O12'
_cell_volume   234.07465811
_cell_formula_units_Z   4
loop_
 _symmetry_equiv_pos_site_id
 _symmetry_equiv_pos_as_xyz
  1  'x, y, z'
loop_
 _atom_site_type_symbol
 _atom_site_label
 _atom_site_symmetry_multiplicity
 _atom_site_fract_x
 _atom_site_fract_y
 _atom_site_fract_z
 _atom_site_occupancy
  Mg  Mg0  1  0.24999999  0.75741403  0.24258600  1
  Mg  Mg1  1  0.74999999  0.24258601  0.75741402  1
  Mg  Mg2  1  0.25000000  0.10979600  0.89020403  1
  Mg  Mg3  1  0.74999998  0.89020403  0.10979599  1
  P  P4  1  0.21925499  0.21651201  0.38555501  1
  P  P5  1  0.78074498  0.78348803  0.61444500  1
  P  P6  1  0.71925399  0.38555501  0.21651200  1
  P  P7  1  0.28074499  0.61444502  0.78348802  1
  O  O8  1  0.04701399  0.63113002  0.66554901  1
  O  O9  1  0.54701399  0.66554902  0.63113001  1
  O  O10  1  0.95298598  0.36887001  0.33445100  1
  O  O11  1  0.45298599  0.33445101  0.36887000  1
  O  O12  1  0.83600699  0.20565001  0.03888299  1
  O  O13  1  0.86879298  0.86799403  0.38474299  1
  O  O14  1  0.16399299  0.79434903  0.96111702  1
  O  O15  1  0.33600699  0.03888300  0.20565000  1
  O  O16  1  0.66399298  0.96111703  0.79435001  1
  O  O17  1  0.13120700  0.13200600  0.61525702  1
  O  O18  1  0.36879299  0.38474301  0.86799402  1
  O  O19  1  0.63120698  0.61525702  0.13200599  1
