# generated using pymatgen
data_KBaMgBi4Sb2Pb4O3
_symmetry_space_group_name_H-M   'P 1'
_cell_length_a   3.85497379
_cell_length_b   3.85497379
_cell_length_c   25.25338364
_cell_angle_alpha   85.62259674
_cell_angle_beta   85.62259674
_cell_angle_gamma   60.00000381
_symmetry_Int_Tables_number   1
_chemical_formula_structural   KBaMgBi4Sb2Pb4O3
_chemical_formula_sum   'K1 Ba1 Mg1 Bi4 Sb2 Pb4 O3'
_cell_volume   323.74256847
_cell_formula_units_Z   1
loop_
 _symmetry_equiv_pos_site_id
 _symmetry_equiv_pos_as_xyz
  1  'x, y, z'
loop_
 _atom_site_type_symbol
 _atom_site_label
 _atom_site_symmetry_multiplicity
 _atom_site_fract_x
 _atom_site_fract_y
 _atom_site_fract_z
 _atom_site_occupancy
  Mg  Mg0  1  0.70832398  0.70832399  0.87502799  1
  Ba  Ba1  1  0.41664199  0.41664200  0.75007399  1
  Bi  Bi2  1  0.99998997  0.99998999  0.00002999  1
  K  K3  1  0.12499200  0.12499200  0.62502400  1
  Bi  Bi4  1  0.24998799  0.24998800  0.25003600  1
  Sb  Sb5  1  0.49998898  0.49998900  0.50003299  1
  Sb  Sb6  1  0.87498697  0.87498699  0.37503899  1
  Bi  Bi7  1  0.62497398  0.62497400  0.12507799  1
  Pb  Pb8  1  0.84376297  0.84376299  0.46871099  1
  O  O9  1  0.38543099  0.38543100  0.84370699  1
  Bi  Bi10  1  0.09374400  0.09374400  0.71876800  1
  Pb  Pb11  1  0.21876499  0.21876500  0.34370500  1
  Pb  Pb12  1  0.46878399  0.46878400  0.59364799  1
  O  O13  1  0.67711698  0.67711699  0.96864899  1
  Pb  Pb14  1  0.59376298  0.59376300  0.21871099  1
  O  O15  1  0.96874097  0.96874099  0.09377699  1
