# generated using pymatgen
data_Fe2Ni3
_symmetry_space_group_name_H-M   'P 1'
_cell_length_a   3.17834711
_cell_length_b   5.94909477
_cell_length_c   5.94909477
_cell_angle_alpha   90.00000000
_cell_angle_beta   90.00000000
_cell_angle_gamma   90.00000000
_symmetry_Int_Tables_number   1
_chemical_formula_structural   Fe2Ni3
_chemical_formula_sum   'Fe4 Ni6'
_cell_volume   112.48719837
_cell_formula_units_Z   2
loop_
 _symmetry_equiv_pos_site_id
 _symmetry_equiv_pos_as_xyz
  1  'x, y, z'
loop_
 _atom_site_type_symbol
 _atom_site_label
 _atom_site_symmetry_multiplicity
 _atom_site_fract_x
 _atom_site_fract_y
 _atom_site_fract_z
 _atom_site_occupancy
  Fe  Fe0  1  0.49999998  0.81991903  0.68008103  1
  Fe  Fe1  1  0.49999998  0.31991901  0.81991903  1
  Fe  Fe2  1  0.49999998  0.18008101  0.31991901  1
  Fe  Fe3  1  0.49999998  0.68008103  0.18008101  1
  Ni  Ni4  1  -0.00000000  0.50000002  0.50000002  1
  Ni  Ni5  1  0.00000000  0.00000000  0.00000000  1
  Ni  Ni6  1  -0.00000000  0.10822200  0.60822202  1
  Ni  Ni7  1  -0.00000000  0.60822202  0.89177803  1
  Ni  Ni8  1  -0.00000000  0.39177801  0.10822200  1
  Ni  Ni9  1  -0.00000000  0.89177803  0.39177801  1
