# generated using pymatgen
data_Nb3V(FeNi2)4
_symmetry_space_group_name_H-M   'P 1'
_cell_length_a   5.27655792
_cell_length_b   5.27655792
_cell_length_c   10.32738495
_cell_angle_alpha   104.80110168
_cell_angle_beta   104.80110168
_cell_angle_gamma   90.00000000
_symmetry_Int_Tables_number   1
_chemical_formula_structural   Nb3V(FeNi2)4
_chemical_formula_sum   'Nb3 V1 Fe4 Ni8'
_cell_volume   268.11466435
_cell_formula_units_Z   1
loop_
 _symmetry_equiv_pos_site_id
 _symmetry_equiv_pos_as_xyz
  1  'x, y, z'
loop_
 _atom_site_type_symbol
 _atom_site_label
 _atom_site_symmetry_multiplicity
 _atom_site_fract_x
 _atom_site_fract_y
 _atom_site_fract_z
 _atom_site_occupancy
  V  V0  1  0.62464700  0.62464701  0.76849902  1
  Nb  Nb1  1  0.14385200  0.14385200  0.76849903  1
  Nb  Nb2  1  0.37535299  0.85614801  0.23150099  1
  Nb  Nb3  1  0.85614800  0.37535300  0.23150099  1
  Fe  Fe4  1  0.74936100  0.74936101  0.49872200  1
  Fe  Fe5  1  0.25063900  0.25063900  0.50127802  1
  Fe  Fe6  1  0.24999999  0.75000001  0.50000001  1
  Fe  Fe7  1  0.75000000  0.25000000  0.50000001  1
  Ni  Ni8  1  0.00000000  0.00000000  0.00000000  1
  Ni  Ni9  1  0.41718500  0.41718500  0.34326700  1
  Ni  Ni10  1  0.92608200  0.92608201  0.34326699  1
  Ni  Ni11  1  0.58281500  0.07391800  0.65673302  1
  Ni  Ni12  1  0.07391799  0.58281500  0.65673302  1
  Ni  Ni13  1  0.50000000  0.50000000  -0.00000001  1
  Ni  Ni14  1  0.50000000  0.00000000  -0.00000001  1
  Ni  Ni15  1  -0.00000001  0.50000000  -0.00000001  1
