# generated using pymatgen
data_CeGa3Pd2
_symmetry_space_group_name_H-M   'P 1'
_cell_length_a   5.27792883
_cell_length_b   5.27792883
_cell_length_c   5.27792883
_cell_angle_alpha   105.95942688
_cell_angle_beta   105.95942688
_cell_angle_gamma   116.74925232
_symmetry_Int_Tables_number   1
_chemical_formula_structural   CeGa3Pd2
_chemical_formula_sum   'Ce1 Ga3 Pd2'
_cell_volume   111.79353182
_cell_formula_units_Z   1
loop_
 _symmetry_equiv_pos_site_id
 _symmetry_equiv_pos_as_xyz
  1  'x, y, z'
loop_
 _atom_site_type_symbol
 _atom_site_label
 _atom_site_symmetry_multiplicity
 _atom_site_fract_x
 _atom_site_fract_y
 _atom_site_fract_z
 _atom_site_occupancy
  Ce  Ce0  1  0.32757600  0.17242400  0.49999998  1
  Ga  Ga1  1  0.67242401  0.82757600  0.49999993  1
  Ga  Ga2  1  0.17242401  0.67242400  0.84484796  1
  Ga  Ga3  1  0.82757600  0.32757600  0.15515194  1
  Pd  Pd4  1  0.25000000  0.25000000  -0.00000003  1
  Pd  Pd5  1  0.75000001  0.75000000  -0.00000008  1
