# generated using pymatgen
data_Ce2Ge5
_symmetry_space_group_name_H-M   'P 1'
_cell_length_a   4.05683422
_cell_length_b   4.08102512
_cell_length_c   8.69375420
_cell_angle_alpha   103.57453156
_cell_angle_beta   90.00000000
_cell_angle_gamma   90.00000000
_symmetry_Int_Tables_number   1
_chemical_formula_structural   Ce2Ge5
_chemical_formula_sum   'Ce2 Ge5'
_cell_volume   139.91342353
_cell_formula_units_Z   1
loop_
 _symmetry_equiv_pos_site_id
 _symmetry_equiv_pos_as_xyz
  1  'x, y, z'
loop_
 _atom_site_type_symbol
 _atom_site_label
 _atom_site_symmetry_multiplicity
 _atom_site_fract_x
 _atom_site_fract_y
 _atom_site_fract_z
 _atom_site_occupancy
  Ce  Ce0  1  0.24999999  0.10642300  0.21284500  1
  Ce  Ce1  1  0.74999996  0.89542396  0.79084800  1
  Ge  Ge2  1  0.24999999  0.32231999  0.64464101  1
  Ge  Ge3  1  0.24999999  0.46107298  0.92214501  1
  Ge  Ge4  1  0.74999996  0.55060998  0.10121899  1
  Ge  Ge5  1  0.24999999  0.74035897  0.48071899  1
  Ge  Ge6  1  0.74999996  0.24179199  0.48358401  1
