# generated using pymatgen
data_CaSiPO7
_symmetry_space_group_name_H-M   'P 1'
_cell_length_a   5.20353317
_cell_length_b   7.35514688
_cell_length_c   8.81903553
_cell_angle_alpha   90.00000000
_cell_angle_beta   90.00000000
_cell_angle_gamma   109.60215759
_symmetry_Int_Tables_number   1
_chemical_formula_structural   CaSiPO7
_chemical_formula_sum   'Ca2 Si2 P2 O14'
_cell_volume   317.96720977
_cell_formula_units_Z   2
loop_
 _symmetry_equiv_pos_site_id
 _symmetry_equiv_pos_as_xyz
  1  'x, y, z'
loop_
 _atom_site_type_symbol
 _atom_site_label
 _atom_site_symmetry_multiplicity
 _atom_site_fract_x
 _atom_site_fract_y
 _atom_site_fract_z
 _atom_site_occupancy
  Ca  Ca0  1  0.79882095  0.28639900  0.94907005  1
  Ca  Ca1  1  0.20117892  0.71360100  0.44907002  1
  Si  Si2  1  0.21645098  0.08064100  0.73200504  1
  Si  Si3  1  0.78354888  0.91935900  0.23200501  1
  P  P4  1  0.59240693  0.45938400  0.62248003  1
  P  P5  1  0.40759293  0.54061600  0.12248001  1
  O  O6  1  0.39763493  0.57684600  0.62516303  1
  O  O7  1  0.62222689  0.91552100  0.37874802  1
  O  O8  1  0.37777298  0.08447900  0.87874805  1
  O  O9  1  0.75520693  0.49516700  0.77152204  1
  O  O10  1  0.86807596  0.11280800  0.14910401  1
  O  O11  1  0.95801695  0.13311700  0.76201104  1
  O  O12  1  0.13192391  0.88719200  0.64910403  1
  O  O13  1  0.22599194  0.50526300  0.98075105  1
  O  O14  1  0.41245196  0.23322100  0.61328503  1
  O  O15  1  0.60236494  0.42315400  0.12516301  1
  O  O16  1  0.77400793  0.49473700  0.48075103  1
  O  O17  1  0.04198291  0.86688300  0.26201101  1
  O  O18  1  0.24479294  0.50483300  0.27152201  1
  O  O19  1  0.58754790  0.76677900  0.11328501  1
