# generated using pymatgen
data_Nd6Sn3PtO4
_symmetry_space_group_name_H-M   'P 1'
_cell_length_a   4.40362978
_cell_length_b   6.73918009
_cell_length_c   9.42614937
_cell_angle_alpha   90.00000000
_cell_angle_beta   103.50827789
_cell_angle_gamma   90.00000000
_symmetry_Int_Tables_number   1
_chemical_formula_structural   Nd6Sn3PtO4
_chemical_formula_sum   'Nd6 Sn3 Pt1 O4'
_cell_volume   271.99982619
_cell_formula_units_Z   1
loop_
 _symmetry_equiv_pos_site_id
 _symmetry_equiv_pos_as_xyz
  1  'x, y, z'
loop_
 _atom_site_type_symbol
 _atom_site_label
 _atom_site_symmetry_multiplicity
 _atom_site_fract_x
 _atom_site_fract_y
 _atom_site_fract_z
 _atom_site_occupancy
  Nd  Nd0  1  0.81067504  0.56039299  0.62134999  1
  Nd  Nd1  1  0.18932501  0.43960699  0.37865000  1
  Nd  Nd2  1  0.18932501  0.06039300  0.37865000  1
  Nd  Nd3  1  0.81067504  0.93960699  0.62134999  1
  Nd  Nd4  1  0.55059003  0.25000000  0.10118000  1
  Nd  Nd5  1  0.44941002  0.74999999  0.89881999  1
  Sn  Sn6  1  0.34401202  0.25000000  0.68802399  1
  Sn  Sn7  1  0.65598803  0.74999999  0.31197600  1
  Sn  Sn8  1  0.94105705  0.07347200  0.88211399  1
  O  O9  1  0.05894300  0.92652799  0.11788600  1
  Pt  Pt10  1  0.05894300  0.57347199  0.11788600  1
  O  O11  1  0.94105705  0.42652799  0.88211399  1
  O  O12  1  0.71993104  0.25000000  0.43986200  1
  O  O13  1  0.28006901  0.74999999  0.56013799  1
