# generated using pymatgen
data_LiYBC4
_symmetry_space_group_name_H-M   'P 1'
_cell_length_a   4.11891890
_cell_length_b   5.82479811
_cell_length_c   5.82479811
_cell_angle_alpha   90.00000000
_cell_angle_beta   90.00000000
_cell_angle_gamma   90.00000000
_symmetry_Int_Tables_number   1
_chemical_formula_structural   LiYBC4
_chemical_formula_sum   'Li2 Y2 B2 C8'
_cell_volume   139.74780471
_cell_formula_units_Z   2
loop_
 _symmetry_equiv_pos_site_id
 _symmetry_equiv_pos_as_xyz
  1  'x, y, z'
loop_
 _atom_site_type_symbol
 _atom_site_label
 _atom_site_symmetry_multiplicity
 _atom_site_fract_x
 _atom_site_fract_y
 _atom_site_fract_z
 _atom_site_occupancy
  Li  Li0  1  0.00000000  0.49999999  0.49999999  1
  Li  Li1  1  0.00000000  0.00000000  0.00000000  1
  Y  Y2  1  0.19933301  0.00000000  0.49999999  1
  Y  Y3  1  0.19933301  0.49999999  0.00000000  1
  B  B4  1  0.50000001  0.15033300  0.65044499  1
  B  B5  1  0.50000001  0.65044499  0.15033300  1
  C  C6  1  0.50000001  0.15033300  0.34955499  1
  C  C7  1  0.50000001  0.65044499  0.84966698  1
  C  C8  1  0.50000001  0.84966698  0.34955499  1
  C  C9  1  0.50000001  0.34955499  0.84966698  1
  C  C10  1  0.50000001  0.84966698  0.65044499  1
  C  C11  1  0.50000001  0.34955499  0.15033300  1
  C  C12  1  0.80066702  0.00000000  0.49999999  1
  C  C13  1  0.80066702  0.49999999  0.00000000  1
