# generated using pymatgen
data_Tl5GeS6
_symmetry_space_group_name_H-M   'P 1'
_cell_length_a   4.25832176
_cell_length_b   4.25832176
_cell_length_c   24.15937805
_cell_angle_alpha   90.00000000
_cell_angle_beta   90.00000000
_cell_angle_gamma   120.00000000
_symmetry_Int_Tables_number   1
_chemical_formula_structural   Tl5GeS6
_chemical_formula_sum   'Tl5 Ge1 S6'
_cell_volume   379.39650814
_cell_formula_units_Z   1
loop_
 _symmetry_equiv_pos_site_id
 _symmetry_equiv_pos_as_xyz
  1  'x, y, z'
loop_
 _atom_site_type_symbol
 _atom_site_label
 _atom_site_symmetry_multiplicity
 _atom_site_fract_x
 _atom_site_fract_y
 _atom_site_fract_z
 _atom_site_occupancy
  Tl  Tl0  1  0.33333335  0.66666670  0.53708300  1
  Ge  Ge1  1  0.66666670  0.33333335  0.46291700  1
  Tl  Tl2  1  0.33333335  0.66666670  0.28600800  1
  Tl  Tl3  1  0.66666670  0.33333335  0.71399200  1
  Tl  Tl4  1  0.00000000  0.00000000  0.12850800  1
  Tl  Tl5  1  0.00000000  0.00000000  0.87149200  1
  S  S6  1  0.00000000  0.00000000  0.35071300  1
  S  S7  1  0.00000000  0.00000000  0.64928700  1
  S  S8  1  0.33333335  0.66666670  0.79169600  1
  S  S9  1  0.66666670  0.33333335  0.20830400  1
  S  S10  1  0.33333335  0.66666670  0.06567300  1
  S  S11  1  0.66666670  0.33333335  0.93432700  1
