# generated using pymatgen
data_TlPtAu
_symmetry_space_group_name_H-M   'P 1'
_cell_length_a   3.00410891
_cell_length_b   4.73152781
_cell_length_c   4.73152781
_cell_angle_alpha   120.00000000
_cell_angle_beta   90.00000000
_cell_angle_gamma   90.00000000
_symmetry_Int_Tables_number   1
_chemical_formula_structural   TlPtAu
_chemical_formula_sum   'Tl1 Pt1 Au1'
_cell_volume   58.24371897
_cell_formula_units_Z   1
loop_
 _symmetry_equiv_pos_site_id
 _symmetry_equiv_pos_as_xyz
  1  'x, y, z'
loop_
 _atom_site_type_symbol
 _atom_site_label
 _atom_site_symmetry_multiplicity
 _atom_site_fract_x
 _atom_site_fract_y
 _atom_site_fract_z
 _atom_site_occupancy
  Tl  Tl0  1  0.00000000  0.00000000  0.00000000  1
  Au  Au1  1  0.50000002  0.33333334  0.66666662  1
  Pt  Pt2  1  0.50000002  0.66666668  0.33333328  1
