# generated using pymatgen
data_Tl6HgS11
_symmetry_space_group_name_H-M   'P 1'
_cell_length_a   6.68523979
_cell_length_b   10.09803581
_cell_length_c   10.09803581
_cell_angle_alpha   72.90889740
_cell_angle_beta   70.66949463
_cell_angle_gamma   70.66949463
_symmetry_Int_Tables_number   1
_chemical_formula_structural   Tl6HgS11
_chemical_formula_sum   'Tl6 Hg1 S11'
_cell_volume   593.85393883
_cell_formula_units_Z   1
loop_
 _symmetry_equiv_pos_site_id
 _symmetry_equiv_pos_as_xyz
  1  'x, y, z'
loop_
 _atom_site_type_symbol
 _atom_site_label
 _atom_site_symmetry_multiplicity
 _atom_site_fract_x
 _atom_site_fract_y
 _atom_site_fract_z
 _atom_site_occupancy
  Tl  Tl0  1  0.22915001  0.12031299  0.87968697  1
  Tl  Tl1  1  0.77085003  0.87968695  0.12031304  1
  Tl  Tl2  1  0.27085002  0.62031296  0.37968701  1
  Tl  Tl3  1  0.72915002  0.37968698  0.62031300  1
  Tl  Tl4  1  0.75000003  0.74999995  0.75000000  1
  Tl  Tl5  1  0.25000001  0.24999998  0.25000000  1
  S  S6  1  0.75000002  0.41427098  0.08572902  1
  Hg  Hg7  1  0.75000002  0.08572899  0.41427100  1
  S  S8  1  0.25000001  0.58572896  0.91427098  1
  S  S9  1  0.25000002  0.91427094  0.58572901  1
  S  S10  1  0.08726701  0.50515997  0.76742498  1
  S  S11  1  0.64014803  0.76742495  0.50516001  1
  S  S12  1  0.41273302  0.73257496  0.99483999  1
  S  S13  1  0.85985204  0.99483994  0.73257501  1
  S  S14  1  0.91273303  0.49483997  0.23257502  1
  S  S15  1  0.35985201  0.23257499  0.49483999  1
  S  S16  1  0.58726702  0.26742498  0.00516002  1
  S  S17  1  0.14014800  0.00516000  0.26742499  1
