# generated using pymatgen
data_Li3VCuO7
_symmetry_space_group_name_H-M   'P 1'
_cell_length_a   2.98386407
_cell_length_b   7.44756079
_cell_length_c   7.44756079
_cell_angle_alpha   87.70009613
_cell_angle_beta   78.44403839
_cell_angle_gamma   78.44403839
_symmetry_Int_Tables_number   1
_chemical_formula_structural   Li3VCuO7
_chemical_formula_sum   'Li3 V1 Cu1 O7'
_cell_volume   158.86181807
_cell_formula_units_Z   1
loop_
 _symmetry_equiv_pos_site_id
 _symmetry_equiv_pos_as_xyz
  1  'x, y, z'
loop_
 _atom_site_type_symbol
 _atom_site_label
 _atom_site_symmetry_multiplicity
 _atom_site_fract_x
 _atom_site_fract_y
 _atom_site_fract_z
 _atom_site_occupancy
  Li  Li0  1  0.35608694  0.81647502  0.47135197  1
  Li  Li1  1  0.82743795  0.52864801  0.81647598  1
  Li  Li2  1  0.17256197  0.47135201  0.18352398  1
  V  V3  1  0.64391298  0.18352500  0.52864799  1
  Cu  Cu4  1  0.16425898  0.29606601  0.37541599  1
  O  O5  1  0.53967495  0.62458402  0.29606597  1
  O  O6  1  0.46032497  0.37541601  0.70393399  1
  O  O7  1  0.83574094  0.70393402  0.62458397  1
  O  O8  1  0.84357693  0.94525402  0.36759196  1
  O  O9  1  0.21116896  0.63240802  0.94525399  1
  O  O10  1  0.15642299  0.05474600  0.63240801  1
  O  O11  1  0.78883096  0.36759201  0.05474598  1
