# generated using pymatgen
data_BaSr3Pb8
_symmetry_space_group_name_H-M   'P 1'
_cell_length_a   5.05139399
_cell_length_b   8.35496902
_cell_length_c   9.55670738
_cell_angle_alpha   90.00000000
_cell_angle_beta   90.00000000
_cell_angle_gamma   90.00000000
_symmetry_Int_Tables_number   1
_chemical_formula_structural   BaSr3Pb8
_chemical_formula_sum   'Ba1 Sr3 Pb8'
_cell_volume   403.33357467
_cell_formula_units_Z   1
loop_
 _symmetry_equiv_pos_site_id
 _symmetry_equiv_pos_as_xyz
  1  'x, y, z'
loop_
 _atom_site_type_symbol
 _atom_site_label
 _atom_site_symmetry_multiplicity
 _atom_site_fract_x
 _atom_site_fract_y
 _atom_site_fract_z
 _atom_site_occupancy
  Ba  Ba0  1  0.75000000  0.64691300  0.42462098  1
  Sr  Sr1  1  0.25000000  0.35308700  0.57537898  1
  Sr  Sr2  1  0.75000000  0.14691300  0.07537900  1
  Sr  Sr3  1  0.25000000  0.85308700  0.92462096  1
  Pb  Pb4  1  0.25000000  0.97837400  0.32376099  1
  Pb  Pb5  1  0.75000000  0.02162600  0.67623897  1
  Pb  Pb6  1  0.25000000  0.47837400  0.17623899  1
  Pb  Pb7  1  0.75000000  0.52162600  0.82376097  1
  Pb  Pb8  1  0.25000000  0.73657800  0.60833098  1
  Pb  Pb9  1  0.75000000  0.26342200  0.39166898  1
  Pb  Pb10  1  0.25000000  0.23657800  0.89166896  1
  Pb  Pb11  1  0.75000000  0.76342200  0.10833100  1
