# generated using pymatgen
data_Tb2Dy2Al(CoO4)3
_symmetry_space_group_name_H-M   'P 1'
_cell_length_a   5.28969288
_cell_length_b   5.59749603
_cell_length_c   7.64300203
_cell_angle_alpha   90.00000000
_cell_angle_beta   90.00000000
_cell_angle_gamma   90.00000000
_symmetry_Int_Tables_number   1
_chemical_formula_structural   Tb2Dy2Al(CoO4)3
_chemical_formula_sum   'Tb2 Dy2 Al1 Co3 O12'
_cell_volume   226.30191397
_cell_formula_units_Z   1
loop_
 _symmetry_equiv_pos_site_id
 _symmetry_equiv_pos_as_xyz
  1  'x, y, z'
loop_
 _atom_site_type_symbol
 _atom_site_label
 _atom_site_symmetry_multiplicity
 _atom_site_fract_x
 _atom_site_fract_y
 _atom_site_fract_z
 _atom_site_occupancy
  Dy  Dy0  1  0.51938801  0.56846100  0.25000000  1
  Dy  Dy1  1  0.98061202  0.06846100  0.25000000  1
  Tb  Tb2  1  0.48061201  0.43153900  0.75000000  1
  Tb  Tb3  1  0.01938800  0.93153899  0.75000000  1
  Al  Al4  1  0.00000000  0.50000000  0.00000000  1
  Co  Co5  1  0.50000001  0.00000000  0.50000000  1
  Co  Co6  1  0.00000000  0.50000000  0.50000000  1
  Co  Co7  1  0.50000001  0.00000000  -0.00000000  1
  O  O8  1  0.38483001  0.95756399  0.25000000  1
  O  O9  1  0.11517000  0.45756400  0.25000000  1
  O  O10  1  0.61517001  0.04243600  0.75000000  1
  O  O11  1  0.88483002  0.54243600  0.75000000  1
  O  O12  1  0.80923602  0.80456600  0.05894100  1
  O  O13  1  0.69076402  0.30456600  0.44105900  1
  O  O14  1  0.19076400  0.19543400  0.55894100  1
  O  O15  1  0.30923601  0.69543400  0.94105900  1
  O  O16  1  0.19076400  0.19543400  0.94105900  1
  O  O17  1  0.30923601  0.69543400  0.55894100  1
  O  O18  1  0.80923602  0.80456600  0.44105900  1
  O  O19  1  0.69076402  0.30456600  0.05894100  1
