# generated using pymatgen
data_H2
_symmetry_space_group_name_H-M   'P 1'
_cell_length_a   3.17023396
_cell_length_b   3.18078971
_cell_length_c   4.89032125
_cell_angle_alpha   94.29011536
_cell_angle_beta   90.00000000
_cell_angle_gamma   119.89028168
_symmetry_Int_Tables_number   1
_chemical_formula_structural   H2
_chemical_formula_sum   H5
_cell_volume   42.59422191
_cell_formula_units_Z   2
loop_
 _symmetry_equiv_pos_site_id
 _symmetry_equiv_pos_as_xyz
  1  'x, y, z'
loop_
 _atom_site_type_symbol
 _atom_site_label
 _atom_site_symmetry_multiplicity
 _atom_site_fract_x
 _atom_site_fract_y
 _atom_site_fract_z
 _atom_site_occupancy
  H  H0  1  0.96952501  0.00000000  0.99999997  1
  H  H1  1  0.19299197  0.60541596  0.59247097  1
  H  H2  1  0.58757599  0.39458398  0.40752898  1
  H  H3  1  0.28386197  0.62520196  0.78464197  1
  H  H4  1  0.65865999  0.37479798  0.21535799  1
