# generated using pymatgen
data_CsNp9
_symmetry_space_group_name_H-M   'P 1'
_cell_length_a   7.77594566
_cell_length_b   7.77594566
_cell_length_c   7.77594566
_cell_angle_alpha   60.00000000
_cell_angle_beta   60.00000000
_cell_angle_gamma   60.00000000
_symmetry_Int_Tables_number   1
_chemical_formula_structural   CsNp9
_chemical_formula_sum   'Cs1 Np9'
_cell_volume   332.46402141
_cell_formula_units_Z   1
loop_
 _symmetry_equiv_pos_site_id
 _symmetry_equiv_pos_as_xyz
  1  'x, y, z'
loop_
 _atom_site_type_symbol
 _atom_site_label
 _atom_site_symmetry_multiplicity
 _atom_site_fract_x
 _atom_site_fract_y
 _atom_site_fract_z
 _atom_site_occupancy
  Np  Np0  1  0.25000000  0.25000000  0.25000000  1
  Np  Np1  1  0.75000001  0.75000001  0.75000001  1
  Np  Np2  1  0.50000001  0.50000001  0.50000001  1
  Np  Np3  1  0.00000000  0.00000000  0.00000000  1
  Np  Np4  1  0.21390100  0.78609901  0.21390100  1
  Np  Np5  1  0.21390100  0.21390100  0.78609901  1
  Np  Np6  1  0.78609901  0.21390100  0.78609901  1
  Np  Np7  1  0.21390100  0.78609901  0.78609901  1
  Np  Np8  1  0.78609901  0.21390100  0.21390100  1
  Cs  Cs9  1  0.78609901  0.78609901  0.21390100  1
