# generated using pymatgen
data_LiCoO4
_symmetry_space_group_name_H-M   'P 1'
_cell_length_a   3.81166792
_cell_length_b   6.44028473
_cell_length_c   6.56928825
_cell_angle_alpha   106.99192810
_cell_angle_beta   90.00000000
_cell_angle_gamma   107.21294403
_symmetry_Int_Tables_number   1
_chemical_formula_structural   LiCoO4
_chemical_formula_sum   'Li2 Co2 O8'
_cell_volume   146.65544384
_cell_formula_units_Z   2
loop_
 _symmetry_equiv_pos_site_id
 _symmetry_equiv_pos_as_xyz
  1  'x, y, z'
loop_
 _atom_site_type_symbol
 _atom_site_label
 _atom_site_symmetry_multiplicity
 _atom_site_fract_x
 _atom_site_fract_y
 _atom_site_fract_z
 _atom_site_occupancy
  Li  Li0  1  0.89536298  0.79072597  0.76224599  1
  Li  Li1  1  0.10463699  0.20927399  0.23775400  1
  Co  Co2  1  0.20218198  0.40436398  0.82442699  1
  Co  Co3  1  0.79781799  0.59563598  0.17557300  1
  O  O4  1  0.64371200  0.28742399  0.20411800  1
  O  O5  1  0.35628797  0.71257597  0.79588199  1
  O  O6  1  0.26298698  0.52597398  0.14081500  1
  O  O7  1  0.73701299  0.47402598  0.85918499  1
  O  O8  1  0.14072599  0.28145199  0.52789999  1
  O  O9  1  0.85927398  0.71854797  0.47209999  1
  O  O10  1  0.05724100  0.11448200  0.86097899  1
  O  O11  1  0.94275898  0.88551796  0.13902100  1
