# generated using pymatgen
data_Br
_symmetry_space_group_name_H-M   'P 1'
_cell_length_a   8.20352459
_cell_length_b   11.76580906
_cell_length_c   11.76580906
_cell_angle_alpha   90.00000000
_cell_angle_beta   90.00000000
_cell_angle_gamma   90.00000000
_symmetry_Int_Tables_number   1
_chemical_formula_structural   Br
_chemical_formula_sum   Br16
_cell_volume   1135.64887905
_cell_formula_units_Z   16
loop_
 _symmetry_equiv_pos_site_id
 _symmetry_equiv_pos_as_xyz
  1  'x, y, z'
loop_
 _atom_site_type_symbol
 _atom_site_label
 _atom_site_symmetry_multiplicity
 _atom_site_fract_x
 _atom_site_fract_y
 _atom_site_fract_z
 _atom_site_occupancy
  Br  Br0  1  0.63923203  0.34448300  0.60609800  1
  Br  Br1  1  0.36076802  0.84448300  0.89390200  1
  Br  Br2  1  0.63923203  0.10609800  0.84448300  1
  Br  Br3  1  0.63923203  0.89390200  0.15551700  1
  Br  Br4  1  0.86076804  0.84448300  0.10609800  1
  Br  Br5  1  0.13923201  0.34448300  0.39390200  1
  Br  Br6  1  0.86076804  0.15551700  0.89390200  1
  Br  Br7  1  0.13923201  0.65551700  0.60609800  1
  Br  Br8  1  0.13923201  0.89390200  0.84448300  1
  Br  Br9  1  0.63923203  0.65551700  0.39390200  1
  Br  Br10  1  0.86076804  0.39390200  0.65551700  1
  Br  Br11  1  0.36076802  0.39390200  0.34448300  1
  Br  Br12  1  0.36076802  0.60609800  0.65551700  1
  Br  Br13  1  0.86076804  0.60609800  0.34448300  1
  Br  Br14  1  0.36076802  0.15551700  0.10609800  1
  Br  Br15  1  0.13923201  0.10609800  0.15551700  1
