# generated using pymatgen
data_Li2FeO4
_symmetry_space_group_name_H-M   'P 1'
_cell_length_a   5.88736248
_cell_length_b   5.93085384
_cell_length_c   6.16004419
_cell_angle_alpha   89.99650574
_cell_angle_beta   61.91287994
_cell_angle_gamma   89.99919891
_symmetry_Int_Tables_number   1
_chemical_formula_structural   Li2FeO4
_chemical_formula_sum   'Li4 Fe2 O8'
_cell_volume   189.76013829
_cell_formula_units_Z   2
loop_
 _symmetry_equiv_pos_site_id
 _symmetry_equiv_pos_as_xyz
  1  'x, y, z'
loop_
 _atom_site_type_symbol
 _atom_site_label
 _atom_site_symmetry_multiplicity
 _atom_site_fract_x
 _atom_site_fract_y
 _atom_site_fract_z
 _atom_site_occupancy
  Li  Li0  1  0.99999609  0.99999903  0.00000286  1
  Li  Li1  1  0.77633105  0.56519501  0.34260092  1
  Li  Li2  1  0.22366904  0.43480201  0.65739496  1
  Li  Li3  1  0.49999805  0.49999901  0.00000193  1
  Fe  Fe4  1  0.72363299  0.06516100  0.65739998  1
  Fe  Fe5  1  0.27637510  0.93485102  0.34259589  1
  O  O6  1  0.57781303  0.37903901  0.66217195  1
  O  O7  1  0.92218808  0.87905402  0.33782688  1
  O  O8  1  0.07781301  0.12094800  0.66217399  1
  O  O9  1  0.42218606  0.62095502  0.33782992  1
  O  O10  1  0.90397705  0.65202102  0.88718791  1
  O  O11  1  0.40398309  0.84797802  0.88719091  1
  O  O12  1  0.59601800  0.15202000  0.11280697  1
  O  O13  1  0.09601904  0.34797801  0.11281196  1
