# generated using pymatgen
data_LiVCuO5
_symmetry_space_group_name_H-M   'P 1'
_cell_length_a   5.03442478
_cell_length_b   5.03442478
_cell_length_c   5.11222601
_cell_angle_alpha   60.50215912
_cell_angle_beta   60.50215912
_cell_angle_gamma   59.99998856
_symmetry_Int_Tables_number   1
_chemical_formula_structural   LiVCuO5
_chemical_formula_sum   'Li1 V1 Cu1 O5'
_cell_volume   92.31020363
_cell_formula_units_Z   1
loop_
 _symmetry_equiv_pos_site_id
 _symmetry_equiv_pos_as_xyz
  1  'x, y, z'
loop_
 _atom_site_type_symbol
 _atom_site_label
 _atom_site_symmetry_multiplicity
 _atom_site_fract_x
 _atom_site_fract_y
 _atom_site_fract_z
 _atom_site_occupancy
  Li  Li0  1  0.00000000  0.00000000  0.00000000  1
  V  V1  1  0.50000004  0.50000001  0.49999997  1
  Cu  Cu2  1  0.18577803  0.75000002  0.74999997  1
  O  O3  1  0.75000004  0.31422201  0.74999997  1
  O  O4  1  0.68577805  0.81422202  0.24999996  1
  O  O5  1  0.25000003  0.68577802  0.24999997  1
  O  O6  1  0.81422204  0.25000001  0.24999997  1
  O  O7  1  0.31422202  0.18577801  0.74999998  1
