# generated using pymatgen
data_Nb2CuClO4
_symmetry_space_group_name_H-M   'P 1'
_cell_length_a   5.79233360
_cell_length_b   5.79809618
_cell_length_c   10.22250748
_cell_angle_alpha   106.47486115
_cell_angle_beta   106.05872345
_cell_angle_gamma   90.00000000
_symmetry_Int_Tables_number   1
_chemical_formula_structural   Nb2CuClO4
_chemical_formula_sum   'Nb4 Cu2 Cl2 O8'
_cell_volume   315.22753528
_cell_formula_units_Z   2
loop_
 _symmetry_equiv_pos_site_id
 _symmetry_equiv_pos_as_xyz
  1  'x, y, z'
loop_
 _atom_site_type_symbol
 _atom_site_label
 _atom_site_symmetry_multiplicity
 _atom_site_fract_x
 _atom_site_fract_y
 _atom_site_fract_z
 _atom_site_occupancy
  Nb  Nb0  1  0.43864200  0.34801799  0.28945901  1
  Nb  Nb1  1  0.93864200  0.94144098  0.28945901  1
  Nb  Nb2  1  0.56135800  0.65198198  0.71054101  1
  Nb  Nb3  1  0.06135800  0.05855900  0.71054101  1
  Cu  Cu4  1  0.75000000  0.29522499  0.00000000  1
  Cu  Cu5  1  0.25000000  0.70477498  0.00000001  1
  Cl  Cl6  1  0.50000000  0.00000000  0.50000000  1
  Cl  Cl7  1  0.00000000  0.49999999  0.50000001  1
  O  O8  1  0.00706700  0.36741399  0.86742001  1
  O  O9  1  0.49293300  0.49999399  0.13258001  1
  O  O10  1  0.99293300  0.63258599  0.13258001  1
  O  O11  1  0.50706700  0.50000599  0.86742001  1
  O  O12  1  0.39754100  0.95130198  0.82017702  1
  O  O13  1  0.60245900  0.04869800  0.17982300  1
  O  O14  1  0.10245900  0.13112500  0.17982300  1
  O  O15  1  0.89754100  0.86887498  0.82017702  1
