# generated using pymatgen
data_RbI
_symmetry_space_group_name_H-M   'P 1'
_cell_length_a   4.95169401
_cell_length_b   4.95169401
_cell_length_c   12.24767399
_cell_angle_alpha   90.00000000
_cell_angle_beta   90.00000000
_cell_angle_gamma   120.00000000
_symmetry_Int_Tables_number   1
_chemical_formula_structural   RbI
_chemical_formula_sum   'Rb3 I3'
_cell_volume   260.07095288
_cell_formula_units_Z   3
loop_
 _symmetry_equiv_pos_site_id
 _symmetry_equiv_pos_as_xyz
  1  'x, y, z'
loop_
 _atom_site_type_symbol
 _atom_site_label
 _atom_site_symmetry_multiplicity
 _atom_site_fract_x
 _atom_site_fract_y
 _atom_site_fract_z
 _atom_site_occupancy
  Rb  Rb0  1  0.00000000  0.00000000  0.50000000  1
  Rb  Rb1  1  0.66666667  0.33333335  0.84891900  1
  Rb  Rb2  1  0.33333335  0.66666670  0.15108100  1
  I  I3  1  0.66666667  0.33333335  0.32647200  1
  I  I4  1  0.33333335  0.66666670  0.67352800  1
  I  I5  1  0.00000000  0.00000000  0.00000000  1
