# generated using pymatgen
data_Mo2Se3S
_symmetry_space_group_name_H-M   'P 1'
_cell_length_a   3.29129410
_cell_length_b   3.29129386
_cell_length_c   37.07434464
_cell_angle_alpha   90.00000000
_cell_angle_beta   90.00000000
_cell_angle_gamma   120.00000000
_symmetry_Int_Tables_number   1
_chemical_formula_structural   Mo2Se3S
_chemical_formula_sum   'Mo4 Se6 S2'
_cell_volume   347.80631648
_cell_formula_units_Z   2
loop_
 _symmetry_equiv_pos_site_id
 _symmetry_equiv_pos_as_xyz
  1  'x, y, z'
loop_
 _atom_site_type_symbol
 _atom_site_label
 _atom_site_symmetry_multiplicity
 _atom_site_fract_x
 _atom_site_fract_y
 _atom_site_fract_z
 _atom_site_occupancy
  Mo  Mo0  1  0.00000000  0.00000000  0.90608803  1
  Mo  Mo1  1  0.66666663  0.33333332  0.71822103  1
  Mo  Mo2  1  0.66666663  0.33333332  0.34245201  1
  Mo  Mo3  1  0.00000000  0.00000000  0.53033702  1
  Se  Se4  1  0.00000000  0.00000000  0.67274602  1
  Se  Se5  1  0.00000000  0.00000000  0.29699101  1
  Se  Se6  1  0.66666663  0.33333332  0.57603202  1
  Se  Se7  1  0.66666663  0.33333332  0.48463802  1
  Se  Se8  1  0.00000000  0.00000000  0.76365803  1
  Se  Se9  1  0.00000000  0.00000000  0.38792401  1
  S  S10  1  0.66666663  0.33333332  0.94747803  1
  S  S11  1  0.66666663  0.33333332  0.86468703  1
