# generated using pymatgen
data_Na2CoS2
_symmetry_space_group_name_H-M   'P 1'
_cell_length_a   6.62751532
_cell_length_b   6.62751532
_cell_length_c   8.08480740
_cell_angle_alpha   65.80304718
_cell_angle_beta   65.80304718
_cell_angle_gamma   60.00000763
_symmetry_Int_Tables_number   1
_chemical_formula_structural   Na2CoS2
_chemical_formula_sum   'Na4 Co2 S4'
_cell_volume   270.91543673
_cell_formula_units_Z   2
loop_
 _symmetry_equiv_pos_site_id
 _symmetry_equiv_pos_as_xyz
  1  'x, y, z'
loop_
 _atom_site_type_symbol
 _atom_site_label
 _atom_site_symmetry_multiplicity
 _atom_site_fract_x
 _atom_site_fract_y
 _atom_site_fract_z
 _atom_site_occupancy
  Na  Na0  1  0.16859100  0.16859100  0.49422698  1
  Na  Na1  1  0.83140898  0.83140899  0.50577294  1
  Na  Na2  1  0.44647699  0.44647699  0.66056896  1
  Na  Na3  1  0.55352299  0.55352299  0.33943096  1
  Co  Co4  1  0.73839698  0.41072799  0.75229295  1
  Co  Co5  1  0.09858199  0.73839699  0.75229296  1
  S  S6  1  0.41072799  0.09858200  0.75229297  1
  S  S7  1  0.26160299  0.58927199  0.24770697  1
  S  S8  1  0.90141798  0.26160300  0.24770696  1
  S  S9  1  0.58927198  0.90141799  0.24770695  1
