# generated using pymatgen
data_LiV(BiO3)4
_symmetry_space_group_name_H-M   'P 1'
_cell_length_a   5.47610617
_cell_length_b   5.51454258
_cell_length_c   8.97803688
_cell_angle_alpha   107.85749054
_cell_angle_beta   89.88989258
_cell_angle_gamma   89.79173279
_symmetry_Int_Tables_number   1
_chemical_formula_structural   LiV(BiO3)4
_chemical_formula_sum   'Li1 V1 Bi4 O12'
_cell_volume   258.05571419
_cell_formula_units_Z   1
loop_
 _symmetry_equiv_pos_site_id
 _symmetry_equiv_pos_as_xyz
  1  'x, y, z'
loop_
 _atom_site_type_symbol
 _atom_site_label
 _atom_site_symmetry_multiplicity
 _atom_site_fract_x
 _atom_site_fract_y
 _atom_site_fract_z
 _atom_site_occupancy
  V  V0  1  0.03105299  0.35453300  0.65323599  1
  Li  Li1  1  0.97083696  0.71093899  0.34384999  1
  Bi  Bi2  1  0.46964897  0.85795199  0.65454699  1
  Bi  Bi3  1  0.53560998  0.21832500  0.36155598  1
  Bi  Bi4  1  0.50054298  0.47236300  0.00122500  1
  Bi  Bi5  1  0.99992995  0.97275699  0.00047201  1
  O  O6  1  0.42086598  0.31734900  0.78274597  1
  O  O7  1  0.57857897  0.53231899  0.21579799  1
  O  O8  1  0.08066298  0.81719399  0.78193500  1
  O  O9  1  0.92080897  0.03369100  0.21581497  1
  O  O10  1  0.24870298  0.71577999  0.03776702  1
  O  O11  1  0.74695796  0.67833999  0.96015497  1
  O  O12  1  0.24420799  0.21850600  0.03626100  1
  O  O13  1  0.74992397  0.17725100  0.95939195  1
  O  O14  1  0.22999497  0.99541299  0.50250501  1
  O  O15  1  0.76637597  0.49507000  0.49486598  1
  O  O16  1  0.27739598  0.48901300  0.50024299  1
  O  O17  1  0.72790198  0.00760400  0.49763096  1
