# generated using pymatgen
data_CsTaWO6
_symmetry_space_group_name_H-M   'P 1'
_cell_length_a   7.29050207
_cell_length_b   7.34753180
_cell_length_c   7.34753180
_cell_angle_alpha   60.44811249
_cell_angle_beta   60.25642776
_cell_angle_gamma   60.25642776
_symmetry_Int_Tables_number   1
_chemical_formula_structural   CsTaWO6
_chemical_formula_sum   'Cs2 Ta2 W2 O12'
_cell_volume   280.32282450
_cell_formula_units_Z   2
loop_
 _symmetry_equiv_pos_site_id
 _symmetry_equiv_pos_as_xyz
  1  'x, y, z'
loop_
 _atom_site_type_symbol
 _atom_site_label
 _atom_site_symmetry_multiplicity
 _atom_site_fract_x
 _atom_site_fract_y
 _atom_site_fract_z
 _atom_site_occupancy
  Cs  Cs0  1  0.62177499  0.12822500  0.62822501  1
  Cs  Cs1  1  0.37822502  0.87177499  0.37177497  1
  Ta  Ta2  1  0.50000001  0.49999999  0.99999998  1
  Ta  Ta3  1  0.00000002  0.49999999  -0.00000002  1
  W  W4  1  0.00000000  0.00000000  0.00000000  1
  W  W5  1  0.00000002  0.49999999  0.49999997  1
  O  O6  1  0.06802100  0.18197900  0.68197898  1
  O  O7  1  0.68079300  0.56920699  0.06920700  1
  O  O8  1  0.06424602  0.56905899  0.67406197  1
  O  O9  1  0.69263199  0.17406300  0.06906001  1
  O  O10  1  0.69263300  0.56905999  0.67406199  1
  O  O11  1  0.06424500  0.17406200  0.06905999  1
  O  O12  1  0.93197901  0.81802099  0.31802099  1
  O  O13  1  0.31920701  0.43079300  0.93079298  1
  O  O14  1  0.93575399  0.43094100  0.32593801  1
  O  O15  1  0.30736802  0.82593699  0.93093996  1
  O  O16  1  0.30736701  0.43094000  0.32593799  1
  O  O17  1  0.93575501  0.82593799  0.93093998  1
