# generated using pymatgen
data_Bi2O3
_symmetry_space_group_name_H-M   'P 1'
_cell_length_a   4.05580997
_cell_length_b   5.70378876
_cell_length_c   6.83063555
_cell_angle_alpha   83.94097137
_cell_angle_beta   72.72946930
_cell_angle_gamma   69.17367554
_symmetry_Int_Tables_number   1
_chemical_formula_structural   Bi2O3
_chemical_formula_sum   'Bi4 O6'
_cell_volume   141.03308913
_cell_formula_units_Z   2
loop_
 _symmetry_equiv_pos_site_id
 _symmetry_equiv_pos_as_xyz
  1  'x, y, z'
loop_
 _atom_site_type_symbol
 _atom_site_label
 _atom_site_symmetry_multiplicity
 _atom_site_fract_x
 _atom_site_fract_y
 _atom_site_fract_z
 _atom_site_occupancy
  Bi  Bi0  1  0.93376706  0.73211400  0.90842902  1
  Bi  Bi1  1  0.57431002  0.26788600  0.09157101  1
  Bi  Bi2  1  0.41588106  0.76788600  0.40842901  1
  Bi  Bi3  1  0.59219602  0.23211400  0.59157102  1
  O  O4  1  0.44544600  0.00000000  0.00000001  1
  O  O5  1  0.19544604  0.50000000  0.50000001  1
  O  O6  1  0.77021304  0.53466500  0.16428601  1
  O  O7  1  0.46916404  0.46533500  0.83571402  1
  O  O8  1  0.68449900  0.03466500  0.33571401  1
  O  O9  1  0.05487808  0.96533499  0.66428601  1
