# generated using pymatgen
data_CsLiS2
_symmetry_space_group_name_H-M   'P 1'
_cell_length_a   5.77970600
_cell_length_b   7.56275034
_cell_length_c   12.95499325
_cell_angle_alpha   85.11027527
_cell_angle_beta   77.11066437
_cell_angle_gamma   67.53514099
_symmetry_Int_Tables_number   1
_chemical_formula_structural   CsLiS2
_chemical_formula_sum   'Cs4 Li4 S8'
_cell_volume   510.11139043
_cell_formula_units_Z   4
loop_
 _symmetry_equiv_pos_site_id
 _symmetry_equiv_pos_as_xyz
  1  'x, y, z'
loop_
 _atom_site_type_symbol
 _atom_site_label
 _atom_site_symmetry_multiplicity
 _atom_site_fract_x
 _atom_site_fract_y
 _atom_site_fract_z
 _atom_site_occupancy
  Cs  Cs0  1  0.67677400  0.00000000  0.64645200  1
  Cs  Cs1  1  0.32322600  0.00000000  0.35354800  1
  Cs  Cs2  1  0.07322596  0.50000000  0.85354802  1
  Cs  Cs3  1  0.42677397  0.50000000  0.14645200  1
  Li  Li4  1  0.50000000  0.00000000  1.00000001  1
  Li  Li5  1  0.24999997  0.50000000  0.50000001  1
  Li  Li6  1  0.00000000  0.00000000  0.00000000  1
  Li  Li7  1  0.74999997  0.50000000  0.50000001  1
  S  S8  1  0.35046295  0.69284600  0.60511101  1
  S  S9  1  0.64841898  0.30715500  0.39489000  1
  S  S10  1  0.95668996  0.69284600  0.39489000  1
  S  S11  1  0.04442498  0.30715500  0.60511101  1
  S  S12  1  0.39953694  0.80715400  0.89488902  1
  S  S13  1  0.10158099  0.19284500  0.10511000  1
  S  S14  1  0.79330995  0.80715400  0.10511001  1
  S  S15  1  0.70557499  0.19284500  0.89488901  1
