# generated using pymatgen
data_CsNa2LiCo2OF7
_symmetry_space_group_name_H-M   'P 1'
_cell_length_a   5.57824993
_cell_length_b   5.63176584
_cell_length_c   7.01279879
_cell_angle_alpha   66.32583618
_cell_angle_beta   90.00000000
_cell_angle_gamma   90.00000000
_symmetry_Int_Tables_number   1
_chemical_formula_structural   CsNa2LiCo2OF7
_chemical_formula_sum   'Cs1 Na2 Li1 Co2 O1 F7'
_cell_volume   201.76940899
_cell_formula_units_Z   1
loop_
 _symmetry_equiv_pos_site_id
 _symmetry_equiv_pos_as_xyz
  1  'x, y, z'
loop_
 _atom_site_type_symbol
 _atom_site_label
 _atom_site_symmetry_multiplicity
 _atom_site_fract_x
 _atom_site_fract_y
 _atom_site_fract_z
 _atom_site_occupancy
  Cs  Cs0  1  -0.00000000  0.64890302  0.70219400  1
  Li  Li1  1  0.50000001  0.14496600  0.71006800  1
  Na  Na2  1  0.50000001  0.85503403  0.28993200  1
  Na  Na3  1  1.00000001  0.35109701  0.29780600  1
  Co  Co4  1  0.50000001  0.50000002  -0.00000000  1
  Co  Co5  1  0.00000000  0.00000000  0.00000000  1
  F  F6  1  -0.00000000  0.83714103  0.32571800  1
  O  O7  1  0.50000001  0.33991201  0.32017600  1
  F  F8  1  0.50000001  0.66008802  0.67982400  1
  F  F9  1  -0.00000000  0.16285901  0.67428200  1
  F  F10  1  0.24924200  0.25013301  -0.00000000  1
  F  F11  1  0.75075801  0.74986702  -0.00000001  1
  F  F12  1  0.24924200  0.74986702  -0.00000001  1
  F  F13  1  0.75075801  0.25013301  -0.00000000  1
