# generated using pymatgen
data_NaLa3Ti2O8
_symmetry_space_group_name_H-M   'P 1'
_cell_length_a   5.43632412
_cell_length_b   5.46850920
_cell_length_c   6.86815357
_cell_angle_alpha   90.00000000
_cell_angle_beta   113.31357574
_cell_angle_gamma   90.00000000
_symmetry_Int_Tables_number   1
_chemical_formula_structural   NaLa3Ti2O8
_chemical_formula_sum   'Na1 La3 Ti2 O8'
_cell_volume   187.50971012
_cell_formula_units_Z   1
loop_
 _symmetry_equiv_pos_site_id
 _symmetry_equiv_pos_as_xyz
  1  'x, y, z'
loop_
 _atom_site_type_symbol
 _atom_site_label
 _atom_site_symmetry_multiplicity
 _atom_site_fract_x
 _atom_site_fract_y
 _atom_site_fract_z
 _atom_site_occupancy
  La  La0  1  0.85432897  0.49999998  0.70865800  1
  Na  Na1  1  0.64526298  0.00000000  0.29052599  1
  La  La2  1  0.36135899  0.99999996  0.72271801  1
  La  La3  1  0.13790700  0.49999998  0.27581400  1
  Ti  Ti4  1  0.50171598  0.49999998  0.00343199  1
  Ti  Ti5  1  0.99797597  0.99999996  0.99595200  1
  O  O6  1  0.74472398  0.74143997  0.00099599  1
  O  O7  1  0.25627199  0.25855999  0.00099600  1
  O  O8  1  0.25627199  0.74143997  0.00099600  1
  O  O9  1  0.74472398  0.25855999  0.00099599  1
  O  O10  1  0.17803099  0.99999996  0.35606200  1
  O  O11  1  0.65959698  0.49999998  0.31919399  1
  O  O12  1  0.32776399  0.49999998  0.65552801  1
  O  O13  1  0.83406497  0.99999996  0.66813000  1
