# generated using pymatgen
data_Li4Cu2PN5
_symmetry_space_group_name_H-M   'P 1'
_cell_length_a   5.30461693
_cell_length_b   5.91785240
_cell_length_c   5.91785240
_cell_angle_alpha   119.00586700
_cell_angle_beta   90.00000000
_cell_angle_gamma   90.00000000
_symmetry_Int_Tables_number   1
_chemical_formula_structural   Li4Cu2PN5
_chemical_formula_sum   'Li4 Cu2 P1 N5'
_cell_volume   162.47138781
_cell_formula_units_Z   1
loop_
 _symmetry_equiv_pos_site_id
 _symmetry_equiv_pos_as_xyz
  1  'x, y, z'
loop_
 _atom_site_type_symbol
 _atom_site_label
 _atom_site_symmetry_multiplicity
 _atom_site_fract_x
 _atom_site_fract_y
 _atom_site_fract_z
 _atom_site_occupancy
  Li  Li0  1  0.01742400  0.33066000  0.99253799  1
  Li  Li1  1  0.01742400  0.99253799  0.33065998  1
  Li  Li2  1  0.51742401  0.66933999  0.00746198  1
  Li  Li3  1  0.51742401  0.00746200  0.66934000  1
  Cu  Cu4  1  0.01847800  0.66797699  0.66797698  1
  Cu  Cu5  1  0.51847801  0.33202300  0.33202299  1
  N  N6  1  0.61782701  0.33143000  0.01887899  1
  P  P7  1  0.61782701  0.01887900  0.33143000  1
  N  N8  1  0.11782700  0.66856999  0.98112098  1
  N  N9  1  0.11782700  0.98112099  0.66856998  1
  N  N10  1  0.63902001  0.65316499  0.65316498  1
  N  N11  1  0.13902000  0.34683500  0.34683499  1
