# generated using pymatgen
data_NaClO
_symmetry_space_group_name_H-M   'P 1'
_cell_length_a   4.23634529
_cell_length_b   4.23634529
_cell_length_c   7.57733679
_cell_angle_alpha   90.00000000
_cell_angle_beta   90.00000000
_cell_angle_gamma   110.67334747
_symmetry_Int_Tables_number   1
_chemical_formula_structural   NaClO
_chemical_formula_sum   'Na2 Cl2 O2'
_cell_volume   127.23113011
_cell_formula_units_Z   2
loop_
 _symmetry_equiv_pos_site_id
 _symmetry_equiv_pos_as_xyz
  1  'x, y, z'
loop_
 _atom_site_type_symbol
 _atom_site_label
 _atom_site_symmetry_multiplicity
 _atom_site_fract_x
 _atom_site_fract_y
 _atom_site_fract_z
 _atom_site_occupancy
  Na  Na0  1  0.50000005  0.50000003  -0.00000000  1
  Na  Na1  1  0.50000005  0.50000003  0.50000001  1
  Cl  Cl2  1  0.12010806  0.87989205  0.75000002  1
  Cl  Cl3  1  0.87989203  0.12010801  0.25000001  1
  O  O4  1  0.72029004  0.27971002  0.75000002  1
  O  O5  1  0.27971006  0.72029004  0.25000001  1
