# generated using pymatgen
data_LiCoO3
_symmetry_space_group_name_H-M   'P 1'
_cell_length_a   2.88362265
_cell_length_b   6.49465227
_cell_length_c   11.77937031
_cell_angle_alpha   74.15565491
_cell_angle_beta   87.58599091
_cell_angle_gamma   77.76731873
_symmetry_Int_Tables_number   1
_chemical_formula_structural   LiCoO3
_chemical_formula_sum   'Li4 Co4 O12'
_cell_volume   207.37652855
_cell_formula_units_Z   4
loop_
 _symmetry_equiv_pos_site_id
 _symmetry_equiv_pos_as_xyz
  1  'x, y, z'
loop_
 _atom_site_type_symbol
 _atom_site_label
 _atom_site_symmetry_multiplicity
 _atom_site_fract_x
 _atom_site_fract_y
 _atom_site_fract_z
 _atom_site_occupancy
  Li  Li0  1  0.32832498  0.33196700  0.58475399  1
  Li  Li1  1  0.34158498  0.33194200  0.08246399  1
  Li  Li2  1  0.64762496  0.67353200  0.66910598  1
  Li  Li3  1  0.67013096  0.67198500  0.17216898  1
  Co  Co4  1  0.00194894  0.99110801  0.99311698  1
  Co  Co5  1  0.01616394  0.99527601  0.49731897  1
  Co  Co6  1  0.34022998  0.33309200  0.33421499  1
  Co  Co7  1  0.31566998  0.33481300  0.83177599  1
  O  O8  1  0.77224698  0.36929300  0.70957199  1
  O  O9  1  0.80224198  0.36729800  0.21363199  1
  O  O10  1  0.86907398  0.30105400  0.95514699  1
  O  O11  1  0.87725498  0.29951200  0.45516099  1
  O  O12  1  0.15949496  0.68719800  0.56001598  1
  O  O13  1  0.17874996  0.68132300  0.06391698  1
  O  O14  1  0.50720794  0.98288501  0.60586097  1
  O  O15  1  0.55941094  0.97745801  0.11311097  1
  O  O16  1  0.14633296  0.64769800  0.77550199  1
  O  O17  1  0.17170696  0.64616800  0.27835498  1
  O  O18  1  0.44862800  0.02340900  0.88010100  1
  O  O19  1  0.51263400  0.01965300  0.39137300  1
