# generated using pymatgen
data_CsCaI3
_symmetry_space_group_name_H-M   'P 1'
_cell_length_a   4.67126894
_cell_length_b   10.63430023
_cell_length_c   17.50834084
_cell_angle_alpha   90.00000000
_cell_angle_beta   90.00000000
_cell_angle_gamma   90.00000000
_symmetry_Int_Tables_number   1
_chemical_formula_structural   CsCaI3
_chemical_formula_sum   'Cs4 Ca4 I12'
_cell_volume   869.73867315
_cell_formula_units_Z   4
loop_
 _symmetry_equiv_pos_site_id
 _symmetry_equiv_pos_as_xyz
  1  'x, y, z'
loop_
 _atom_site_type_symbol
 _atom_site_label
 _atom_site_symmetry_multiplicity
 _atom_site_fract_x
 _atom_site_fract_y
 _atom_site_fract_z
 _atom_site_occupancy
  Cs  Cs0  1  0.75000001  0.57315999  0.17893999  1
  Cs  Cs1  1  0.25000000  0.42683999  0.82105996  1
  Cs  Cs2  1  0.25000000  0.92683998  0.67893997  1
  Cs  Cs3  1  0.75000001  0.07316000  0.32105998  1
  Ca  Ca4  1  0.75000001  0.33182999  0.55445597  1
  Ca  Ca5  1  0.75000001  0.83182998  0.94554395  1
  Ca  Ca6  1  0.25000000  0.16817000  0.05445600  1
  Ca  Ca7  1  0.25000000  0.66816999  0.44554398  1
  I  I8  1  0.25000000  0.01827500  0.89667996  1
  I  I9  1  0.75000001  0.20488800  0.71159497  1
  I  I10  1  0.75000001  0.70488798  0.78840496  1
  I  I11  1  0.25000000  0.66625499  0.01103300  1
  I  I12  1  0.25000000  0.29511199  0.21159499  1
  I  I13  1  0.75000001  0.33374499  0.98896695  1
  I  I14  1  0.25000000  0.51827499  0.60331997  1
  I  I15  1  0.75000001  0.83374498  0.51103298  1
  I  I16  1  0.75000001  0.98172498  0.10332000  1
  I  I17  1  0.75000001  0.48172499  0.39667998  1
  I  I18  1  0.25000000  0.16625500  0.48896698  1
  I  I19  1  0.25000000  0.79511198  0.28840499  1
