# generated using pymatgen
data_K6PtS7
_symmetry_space_group_name_H-M   'P 1'
_cell_length_a   6.04277611
_cell_length_b   8.09023094
_cell_length_c   9.52536678
_cell_angle_alpha   83.19679260
_cell_angle_beta   71.50669098
_cell_angle_gamma   68.07076263
_symmetry_Int_Tables_number   1
_chemical_formula_structural   K6PtS7
_chemical_formula_sum   'K6 Pt1 S7'
_cell_volume   409.67066197
_cell_formula_units_Z   1
loop_
 _symmetry_equiv_pos_site_id
 _symmetry_equiv_pos_as_xyz
  1  'x, y, z'
loop_
 _atom_site_type_symbol
 _atom_site_label
 _atom_site_symmetry_multiplicity
 _atom_site_fract_x
 _atom_site_fract_y
 _atom_site_fract_z
 _atom_site_occupancy
  K  K0  1  0.44133900  0.00557500  0.66602001  1
  K  K1  1  0.11293407  0.99442503  0.33398005  1
  K  K2  1  0.19691404  0.49442502  0.16602002  1
  K  K3  1  0.85735903  0.50557502  0.83398002  1
  K  K4  1  0.49616104  0.50000002  0.50000002  1
  K  K5  1  0.74616100  0.00000000  -0.00000002  1
  S  S6  1  0.91345705  0.67229702  0.49488702  1
  Pt  Pt7  1  0.08064102  0.32770301  0.50511303  1
  S  S8  1  0.33575406  0.82770303  0.99488706  1
  S  S9  1  0.15834401  0.17229701  0.00511300  1
  S  S10  1  0.51261701  0.17041601  0.34061800  1
  S  S11  1  0.02365106  0.82958403  0.65938206  1
  S  S12  1  0.60323505  0.67041602  0.15938202  1
  S  S13  1  0.43303302  0.32958401  0.84061803  1
