# generated using pymatgen
data_AlO2
_symmetry_space_group_name_H-M   'P 1'
_cell_length_a   5.09350586
_cell_length_b   5.09350538
_cell_length_c   8.91443539
_cell_angle_alpha   90.00000000
_cell_angle_beta   90.00000000
_cell_angle_gamma   120.00000000
_symmetry_Int_Tables_number   1
_chemical_formula_structural   AlO2
_chemical_formula_sum   'Al4 O8'
_cell_volume   200.28944019
_cell_formula_units_Z   4
loop_
 _symmetry_equiv_pos_site_id
 _symmetry_equiv_pos_as_xyz
  1  'x, y, z'
loop_
 _atom_site_type_symbol
 _atom_site_label
 _atom_site_symmetry_multiplicity
 _atom_site_fract_x
 _atom_site_fract_y
 _atom_site_fract_z
 _atom_site_occupancy
  Al  Al0  1  0.00000000  0.00000000  0.49999998  1
  Al  Al1  1  0.00000000  0.00000000  0.00000000  1
  Al  Al2  1  0.33333330  0.66666666  0.19789499  1
  Al  Al3  1  0.66666666  0.33333333  0.80210497  1
  O  O4  1  0.07494998  0.31955000  0.13917499  1
  O  O5  1  0.68045097  0.75540099  0.13917499  1
  O  O6  1  0.31954900  0.07494900  0.86082496  1
  O  O7  1  0.24459994  0.92505099  0.13917499  1
  O  O8  1  0.75539998  0.68044999  0.86082496  1
  O  O9  1  0.92505001  0.24459900  0.86082496  1
  O  O10  1  0.33333330  0.66666666  0.38252298  1
  O  O11  1  0.66666666  0.33333333  0.61747697  1
