# generated using pymatgen
data_LiCoO2
_symmetry_space_group_name_H-M   'P 1'
_cell_length_a   2.96647239
_cell_length_b   5.13147211
_cell_length_c   9.91704082
_cell_angle_alpha   80.80957031
_cell_angle_beta   89.96367645
_cell_angle_gamma   89.99108124
_symmetry_Int_Tables_number   1
_chemical_formula_structural   LiCoO2
_chemical_formula_sum   'Li4 Co4 O8'
_cell_volume   149.02294659
_cell_formula_units_Z   4
loop_
 _symmetry_equiv_pos_site_id
 _symmetry_equiv_pos_as_xyz
  1  'x, y, z'
loop_
 _atom_site_type_symbol
 _atom_site_label
 _atom_site_symmetry_multiplicity
 _atom_site_fract_x
 _atom_site_fract_y
 _atom_site_fract_z
 _atom_site_occupancy
  Li  Li0  1  0.49999705  0.49999300  0.99997195  1
  Li  Li1  1  0.50000001  0.00000700  0.50002899  1
  Li  Li2  1  0.99999801  0.00003300  0.99998397  1
  Li  Li3  1  0.99999905  0.49996600  0.50001598  1
  Co  Co4  1  1.00000003  0.25000100  0.25000000  1
  Co  Co5  1  1.00000007  0.75000000  0.74999996  1
  Co  Co6  1  0.50000903  0.25000100  0.75000097  1
  Co  Co7  1  0.50000007  0.75000100  0.24999798  1
  O  O8  1  0.00044401  0.12610700  0.63536997  1
  O  O9  1  0.00044205  0.62589700  0.13547898  1
  O  O10  1  0.99955504  0.37389300  0.86462997  1
  O  O11  1  0.99955508  0.87410300  0.36452098  1
  O  O12  1  0.49968908  0.88104300  0.86398495  1
  O  O13  1  0.49962904  0.38113800  0.36402798  1
  O  O14  1  0.50031206  0.61895700  0.63601496  1
  O  O15  1  0.50036902  0.11886200  0.13597200  1
