# generated using pymatgen
data_Li2O
_symmetry_space_group_name_H-M   'P 1'
_cell_length_a   5.57938910
_cell_length_b   5.58590317
_cell_length_c   5.59044218
_cell_angle_alpha   90.00000000
_cell_angle_beta   90.00000000
_cell_angle_gamma   90.00000000
_symmetry_Int_Tables_number   1
_chemical_formula_structural   Li2O
_chemical_formula_sum   'Li8 O4'
_cell_volume   174.23131414
_cell_formula_units_Z   4
loop_
 _symmetry_equiv_pos_site_id
 _symmetry_equiv_pos_as_xyz
  1  'x, y, z'
loop_
 _atom_site_type_symbol
 _atom_site_label
 _atom_site_symmetry_multiplicity
 _atom_site_fract_x
 _atom_site_fract_y
 _atom_site_fract_z
 _atom_site_occupancy
  Li  Li0  1  0.50138799  0.49337099  0.23908499  1
  Li  Li1  1  0.50138799  0.99337097  0.76091498  1
  Li  Li2  1  0.00138800  0.00662900  0.23908499  1
  Li  Li3  1  0.00138800  0.50662898  0.76091498  1
  Li  Li4  1  0.38308899  0.87889797  0.37057999  1
  Li  Li5  1  0.88308898  0.62110198  0.37057999  1
  Li  Li6  1  0.38308899  0.37889799  0.62941998  1
  Li  Li7  1  0.88308898  0.12110200  0.62941998  1
  O  O8  1  0.62252299  0.11871100  0.12932000  1
  O  O9  1  0.12252300  0.38128899  0.12932000  1
  O  O10  1  0.12252300  0.88128897  0.87067997  1
  O  O11  1  0.62252299  0.61871098  0.87067997  1
