# generated using pymatgen
data_Li2CrO5
_symmetry_space_group_name_H-M   'P 1'
_cell_length_a   4.95354509
_cell_length_b   5.09157848
_cell_length_c   5.83664608
_cell_angle_alpha   90.00000000
_cell_angle_beta   90.00000000
_cell_angle_gamma   109.94992065
_symmetry_Int_Tables_number   1
_chemical_formula_structural   Li2CrO5
_chemical_formula_sum   'Li4 Cr2 O10'
_cell_volume   138.37438790
_cell_formula_units_Z   2
loop_
 _symmetry_equiv_pos_site_id
 _symmetry_equiv_pos_as_xyz
  1  'x, y, z'
loop_
 _atom_site_type_symbol
 _atom_site_label
 _atom_site_symmetry_multiplicity
 _atom_site_fract_x
 _atom_site_fract_y
 _atom_site_fract_z
 _atom_site_occupancy
  Li  Li0  1  0.74999999  0.00000000  0.36809499  1
  Li  Li1  1  0.25000000  0.00000000  0.63190499  1
  Li  Li2  1  0.74999997  0.50000000  0.61384999  1
  Li  Li3  1  0.74999997  0.50000000  0.12045800  1
  Cr  Cr4  1  0.24999998  0.50000000  0.38614999  1
  Cr  Cr5  1  0.24999998  0.50000000  0.87954199  1
  O  O6  1  0.74999999  0.00000000  0.84514199  1
  O  O7  1  0.24999996  1.00000000  0.15485800  1
  O  O8  1  0.97475097  0.23720900  0.64381199  1
  O  O9  1  0.51035598  0.21620600  0.89446799  1
  O  O10  1  0.47475098  0.23720900  0.35618800  1
  O  O11  1  0.01035599  0.21620600  0.10553200  1
  O  O12  1  0.98964396  0.78379400  0.89446799  1
  O  O13  1  0.52524896  0.76279100  0.64381199  1
  O  O14  1  0.48964396  0.78379400  0.10553200  1
  O  O15  1  0.02524897  0.76279100  0.35618800  1
