# generated using pymatgen
data_Li3VO4
_symmetry_space_group_name_H-M   'P 1'
_cell_length_a   5.33837509
_cell_length_b   5.54705906
_cell_length_c   7.04411983
_cell_angle_alpha   90.00000000
_cell_angle_beta   89.73931885
_cell_angle_gamma   90.00000000
_symmetry_Int_Tables_number   1
_chemical_formula_structural   Li3VO4
_chemical_formula_sum   'Li6 V2 O8'
_cell_volume   208.59030343
_cell_formula_units_Z   2
loop_
 _symmetry_equiv_pos_site_id
 _symmetry_equiv_pos_as_xyz
  1  'x, y, z'
loop_
 _atom_site_type_symbol
 _atom_site_label
 _atom_site_symmetry_multiplicity
 _atom_site_fract_x
 _atom_site_fract_y
 _atom_site_fract_z
 _atom_site_occupancy
  Li  Li0  1  0.98878898  0.67251799  0.74719803  1
  Li  Li1  1  0.49279999  0.81795099  0.99197902  1
  Li  Li2  1  0.48878899  0.32748200  0.24719801  1
  Li  Li3  1  0.99279998  0.18204900  0.49197902  1
  Li  Li4  1  0.50087899  0.81168699  0.49786101  1
  Li  Li5  1  0.00087900  0.18831300  0.99786101  1
  V  V6  1  0.00407500  0.68832499  0.24522800  1
  V  V7  1  0.50407499  0.31167500  0.74522802  1
  O  O8  1  0.36604599  0.20835300  0.93938802  1
  O  O9  1  0.86604599  0.79164699  0.43938802  1
  O  O10  1  0.42302399  0.15747200  0.55293701  1
  O  O11  1  0.92302398  0.84252799  0.05293702  1
  O  O12  1  0.81090099  0.28983100  0.77208502  1
  O  O13  1  0.92488598  0.40110600  0.21782302  1
  O  O14  1  0.42488599  0.59889399  0.71782301  1
  O  O15  1  0.31090099  0.71016899  0.27208501  1
