# generated using pymatgen
data_Na4Co2O7
_symmetry_space_group_name_H-M   'P 1'
_cell_length_a   5.40742922
_cell_length_b   6.42234421
_cell_length_c   6.58456802
_cell_angle_alpha   60.81169128
_cell_angle_beta   71.97223663
_cell_angle_gamma   90.00000000
_symmetry_Int_Tables_number   1
_chemical_formula_structural   Na4Co2O7
_chemical_formula_sum   'Na4 Co2 O7'
_cell_volume   186.67063983
_cell_formula_units_Z   1
loop_
 _symmetry_equiv_pos_site_id
 _symmetry_equiv_pos_as_xyz
  1  'x, y, z'
loop_
 _atom_site_type_symbol
 _atom_site_label
 _atom_site_symmetry_multiplicity
 _atom_site_fract_x
 _atom_site_fract_y
 _atom_site_fract_z
 _atom_site_occupancy
  Na  Na0  1  0.34242601  0.27997999  0.44003998  1
  Na  Na1  1  0.65757402  0.72001998  0.55995997  1
  Na  Na2  1  0.50000002  0.00000000  0.00000000  1
  Na  Na3  1  1.00000003  0.73742798  -0.00000001  1
  Co  Co4  1  0.00000000  0.26257199  -0.00000000  1
  Co  Co5  1  0.94752203  0.61088499  0.77822997  1
  O  O6  1  0.05247800  0.38911499  0.22176999  1
  O  O7  1  0.91510603  0.10203400  0.79593198  1
  O  O8  1  0.08489400  0.89796598  0.20406798  1
  O  O9  1  0.60101502  0.11252800  0.21883499  1
  O  O10  1  0.60101502  0.66863698  0.21883499  1
  O  O11  1  0.39898501  0.33136299  0.78116497  1
  O  O12  1  0.39898501  0.88747198  0.78116496  1
