# generated using pymatgen
data_AlC
_symmetry_space_group_name_H-M   'P 1'
_cell_length_a   3.29199195
_cell_length_b   3.29199219
_cell_length_c   21.83655357
_cell_angle_alpha   90.00000000
_cell_angle_beta   90.00000000
_cell_angle_gamma   120.00000000
_symmetry_Int_Tables_number   1
_chemical_formula_structural   AlC
_chemical_formula_sum   'Al9 C9'
_cell_volume   204.94262166
_cell_formula_units_Z   9
loop_
 _symmetry_equiv_pos_site_id
 _symmetry_equiv_pos_as_xyz
  1  'x, y, z'
loop_
 _atom_site_type_symbol
 _atom_site_label
 _atom_site_symmetry_multiplicity
 _atom_site_fract_x
 _atom_site_fract_y
 _atom_site_fract_z
 _atom_site_occupancy
  Al  Al0  1  0.00000000  0.00000000  0.15211800  1
  Al  Al1  1  0.00000000  0.00000000  0.65211801  1
  Al  Al2  1  0.33333337  0.66666670  0.23743300  1
  Al  Al3  1  0.66666669  0.33333335  0.73743301  1
  Al  Al4  1  0.33333337  0.66666670  0.04793600  1
  Al  Al5  1  0.66666669  0.33333335  0.54793601  1
  Al  Al6  1  0.33333337  0.66666670  0.45583801  1
  Al  Al7  1  0.66666669  0.33333335  0.95583802  1
  Al  Al8  1  0.00000000  0.00000000  0.33835401  1
  C  C9  1  0.00000000  0.00000000  0.83835402  1
  C  C10  1  0.00000000  0.00000000  0.25247900  1
  C  C11  1  0.00000000  0.00000000  0.75247901  1
  C  C12  1  0.33333337  0.66666670  0.13600300  1
  C  C13  1  0.66666669  0.33333335  0.63600301  1
  C  C14  1  0.33333337  0.66666670  0.36553901  1
  C  C15  1  0.66666669  0.33333335  0.86553902  1
  C  C16  1  0.00000000  0.00000000  0.00130000  1
  C  C17  1  0.00000000  0.00000000  0.50130001  1
