# generated using pymatgen
data_La3YSnSe5
_symmetry_space_group_name_H-M   'P 1'
_cell_length_a   4.31299782
_cell_length_b   7.47001553
_cell_length_c   10.64968586
_cell_angle_alpha   96.60768127
_cell_angle_beta   101.68284607
_cell_angle_gamma   90.00000000
_symmetry_Int_Tables_number   1
_chemical_formula_structural   La3YSnSe5
_chemical_formula_sum   'La3 Y1 Sn1 Se5'
_cell_volume   333.67744596
_cell_formula_units_Z   1
loop_
 _symmetry_equiv_pos_site_id
 _symmetry_equiv_pos_as_xyz
  1  'x, y, z'
loop_
 _atom_site_type_symbol
 _atom_site_label
 _atom_site_symmetry_multiplicity
 _atom_site_fract_x
 _atom_site_fract_y
 _atom_site_fract_z
 _atom_site_occupancy
  Y  Y0  1  0.90757803  0.29826001  0.81515597  1
  La  La1  1  0.40726902  0.80772002  0.81453799  1
  La  La2  1  0.58906102  0.19712101  0.17812199  1
  La  La3  1  0.09082101  0.69585802  0.18164201  1
  Se  Se4  1  0.82146203  0.60901702  0.64292398  1
  Sn  Sn5  1  0.17665801  0.38909101  0.35331600  1
  Se  Se6  1  0.67626103  0.89368403  0.35252200  1
  Se  Se7  1  0.99957204  0.99908603  0.99914398  1
  Se  Se8  1  0.49738502  0.49911902  0.99476997  1
  Se  Se9  1  0.33393201  0.11104500  0.66786398  1
