# generated using pymatgen
data_K3Na3Cu
_symmetry_space_group_name_H-M   'P 1'
_cell_length_a   5.74481583
_cell_length_b   5.74481583
_cell_length_c   9.97037125
_cell_angle_alpha   106.74390411
_cell_angle_beta   106.74390411
_cell_angle_gamma   90.00000000
_symmetry_Int_Tables_number   1
_chemical_formula_structural   K3Na3Cu
_chemical_formula_sum   'K3 Na3 Cu1'
_cell_volume   300.50203740
_cell_formula_units_Z   1
loop_
 _symmetry_equiv_pos_site_id
 _symmetry_equiv_pos_as_xyz
  1  'x, y, z'
loop_
 _atom_site_type_symbol
 _atom_site_label
 _atom_site_symmetry_multiplicity
 _atom_site_fract_x
 _atom_site_fract_y
 _atom_site_fract_z
 _atom_site_occupancy
  K  K0  1  0.35721401  0.35721401  0.71442802  1
  K  K1  1  0.64278602  0.64278602  0.28557201  1
  Na  Na2  1  0.00000000  0.00000000  0.00000000  1
  K  K3  1  0.15950001  0.15950001  0.31900001  1
  Na  Na4  1  0.84050003  0.84050003  0.68100002  1
  Na  Na5  1  0.50000002  0.00000000  0.00000000  1
  Cu  Cu6  1  1.00000003  0.50000002  0.00000001  1
