# generated using pymatgen
data_KNbO3
_symmetry_space_group_name_H-M   'P 1'
_cell_length_a   5.46713018
_cell_length_b   5.83564186
_cell_length_c   5.46713018
_cell_angle_alpha   117.93215942
_cell_angle_beta   90.00000000
_cell_angle_gamma   117.93215942
_symmetry_Int_Tables_number   1
_chemical_formula_structural   KNbO3
_chemical_formula_sum   'K2 Nb2 O6'
_cell_volume   130.66182248
_cell_formula_units_Z   2
loop_
 _symmetry_equiv_pos_site_id
 _symmetry_equiv_pos_as_xyz
  1  'x, y, z'
loop_
 _atom_site_type_symbol
 _atom_site_label
 _atom_site_symmetry_multiplicity
 _atom_site_fract_x
 _atom_site_fract_y
 _atom_site_fract_z
 _atom_site_occupancy
  K  K0  1  0.25000001  0.50000001  0.74999999  1
  K  K1  1  0.74999999  0.50000001  0.25000001  1
  Nb  Nb2  1  0.00000000  0.00000000  0.00000000  1
  Nb  Nb3  1  0.49999998  0.00000000  0.49999998  1
  O  O4  1  0.69084198  0.00000000  0.19433299  1
  O  O5  1  0.19433299  0.00000000  0.30915799  1
  O  O6  1  0.80566697  0.00000000  0.69084198  1
  O  O7  1  0.30915799  0.00000000  0.80566697  1
  O  O8  1  0.27719101  0.55438201  0.27719101  1
  O  O9  1  0.72280899  0.44561801  0.72280899  1
