# generated using pymatgen
data_NaLi(FeO4)2
_symmetry_space_group_name_H-M   'P 1'
_cell_length_a   5.02557802
_cell_length_b   5.02557802
_cell_length_c   6.65094995
_cell_angle_alpha   112.19803619
_cell_angle_beta   112.19803619
_cell_angle_gamma   90.00000000
_symmetry_Int_Tables_number   1
_chemical_formula_structural   NaLi(FeO4)2
_chemical_formula_sum   'Na1 Li1 Fe2 O8'
_cell_volume   141.99174903
_cell_formula_units_Z   1
loop_
 _symmetry_equiv_pos_site_id
 _symmetry_equiv_pos_as_xyz
  1  'x, y, z'
loop_
 _atom_site_type_symbol
 _atom_site_label
 _atom_site_symmetry_multiplicity
 _atom_site_fract_x
 _atom_site_fract_y
 _atom_site_fract_z
 _atom_site_occupancy
  Na  Na0  1  0.37500001  0.62500000  0.25000001  1
  Li  Li1  1  0.62500001  0.37500000  0.75000001  1
  Fe  Fe2  1  0.87500000  0.12500000  0.25000001  1
  Fe  Fe3  1  0.12500001  0.87500000  0.75000001  1
  O  O4  1  0.21227401  0.34923000  0.40616101  1
  O  O5  1  0.69388700  0.05693100  0.40616101  1
  O  O6  1  0.34923001  0.69388700  0.90616101  1
  O  O7  1  0.05693100  0.21227400  0.90616100  1
  O  O8  1  0.78772601  0.65077000  0.59383902  1
  O  O9  1  0.30611301  0.94306900  0.59383902  1
  O  O10  1  0.65077001  0.30611300  0.09383901  1
  O  O11  1  0.94306901  0.78772600  0.09383902  1
