# generated using pymatgen
data_Li8TiO11
_symmetry_space_group_name_H-M   'P 1'
_cell_length_a   3.27909589
_cell_length_b   7.51412487
_cell_length_c   9.81221962
_cell_angle_alpha   90.00000000
_cell_angle_beta   90.00000000
_cell_angle_gamma   98.46096039
_symmetry_Int_Tables_number   1
_chemical_formula_structural   Li8TiO11
_chemical_formula_sum   'Li8 Ti1 O11'
_cell_volume   239.13721325
_cell_formula_units_Z   1
loop_
 _symmetry_equiv_pos_site_id
 _symmetry_equiv_pos_as_xyz
  1  'x, y, z'
loop_
 _atom_site_type_symbol
 _atom_site_label
 _atom_site_symmetry_multiplicity
 _atom_site_fract_x
 _atom_site_fract_y
 _atom_site_fract_z
 _atom_site_occupancy
  Li  Li0  1  0.47676109  0.51847102  0.81650503  1
  Li  Li1  1  0.02323915  0.98152903  0.31650501  1
  Li  Li2  1  0.97676104  0.01847100  0.68349503  1
  Li  Li3  1  0.52323909  0.48152902  0.18349501  1
  Li  Li4  1  0.39169512  0.68780802  0.48825802  1
  Li  Li5  1  0.10830513  0.81219203  0.98825804  1
  Li  Li6  1  0.89169506  0.18780801  0.01174200  1
  Li  Li7  1  0.60830507  0.31219201  0.51174202  1
  Ti  Ti8  1  0.50671912  0.68903002  0.07426900  1
  O  O9  1  0.52263204  0.14219501  0.65482503  1
  O  O10  1  0.17984801  0.01607300  0.11710100  1
  O  O11  1  0.32015208  0.48392702  0.61710102  1
  O  O12  1  0.99328116  0.81097003  0.57426902  1
  O  O13  1  0.02263210  0.64219502  0.84517503  1
  O  O14  1  0.97736809  0.35780501  0.15482501  1
  O  O15  1  0.00671903  0.18903001  0.42573102  1
  O  O16  1  0.67984810  0.51607302  0.38289901  1
  O  O17  1  0.82015218  0.98392703  0.88289903  1
  O  O18  1  0.47736815  0.85780503  0.34517501  1
  O  O19  1  0.49328106  0.31097001  0.92573104  1
