# generated using pymatgen
data_Li2CrO6
_symmetry_space_group_name_H-M   'P 1'
_cell_length_a   5.23574543
_cell_length_b   6.95288372
_cell_length_c   6.95288372
_cell_angle_alpha   76.88737488
_cell_angle_beta   70.74364471
_cell_angle_gamma   70.74364471
_symmetry_Int_Tables_number   1
_chemical_formula_structural   Li2CrO6
_chemical_formula_sum   'Li4 Cr2 O12'
_cell_volume   223.59070055
_cell_formula_units_Z   2
loop_
 _symmetry_equiv_pos_site_id
 _symmetry_equiv_pos_as_xyz
  1  'x, y, z'
loop_
 _atom_site_type_symbol
 _atom_site_label
 _atom_site_symmetry_multiplicity
 _atom_site_fract_x
 _atom_site_fract_y
 _atom_site_fract_z
 _atom_site_occupancy
  Li  Li0  1  0.75000002  0.18862101  0.81137899  1
  Li  Li1  1  0.24999996  0.81137904  0.18862098  1
  Li  Li2  1  0.55965097  0.81189804  0.64863498  1
  Li  Li3  1  0.94034902  0.35136502  0.18810196  1
  Cr  Cr4  1  0.44034901  0.18810201  0.35136499  1
  Cr  Cr5  1  0.05965096  0.64863503  0.81189901  1
  O  O6  1  0.53433402  0.11742301  0.60156999  1
  O  O7  1  0.96566602  0.39843002  0.88257698  1
  O  O8  1  0.46566596  0.88257705  0.39842998  1
  O  O9  1  0.03433396  0.60157003  0.11742299  1
  O  O10  1  0.96677300  0.72911604  0.54977096  1
  O  O11  1  0.53322700  0.45022902  0.27088398  1
  O  O12  1  0.34890001  0.17794001  0.09424298  1
  O  O13  1  0.15109995  0.90575705  0.82206001  1
  O  O14  1  0.65109998  0.82206004  0.90575699  1
  O  O15  1  0.84890004  0.09424301  0.17793996  1
  O  O16  1  0.46677299  0.54977103  0.72911599  1
  O  O17  1  0.03322698  0.27088401  0.45022901  1
