# generated using pymatgen
data_BaLaNbO4
_symmetry_space_group_name_H-M   'P 1'
_cell_length_a   5.43894958
_cell_length_b   5.44911814
_cell_length_c   7.01524401
_cell_angle_alpha   112.84969330
_cell_angle_beta   90.00266266
_cell_angle_gamma   89.98448181
_symmetry_Int_Tables_number   1
_chemical_formula_structural   BaLaNbO4
_chemical_formula_sum   'Ba2 La2 Nb2 O8'
_cell_volume   191.59843090
_cell_formula_units_Z   2
loop_
 _symmetry_equiv_pos_site_id
 _symmetry_equiv_pos_as_xyz
  1  'x, y, z'
loop_
 _atom_site_type_symbol
 _atom_site_label
 _atom_site_symmetry_multiplicity
 _atom_site_fract_x
 _atom_site_fract_y
 _atom_site_fract_z
 _atom_site_occupancy
  Ba  Ba0  1  0.49994498  0.14439100  0.28874099  1
  Ba  Ba1  1  0.00000399  0.35554700  0.71114298  1
  La  La2  1  0.99881895  0.64209201  0.28154595  1
  La  La3  1  0.49917595  0.85861601  0.71859195  1
  Nb  Nb4  1  0.99983897  0.00670000  0.01318399  1
  Nb  Nb5  1  0.49979297  0.49314901  0.98647297  1
  O  O6  1  0.00225797  0.82070901  0.64134395  1
  O  O7  1  0.50271696  0.67969701  0.35903996  1
  O  O8  1  0.49919397  0.33673000  0.67130497  1
  O  O9  1  0.99920697  0.16205600  0.32863098  1
  O  O10  1  0.75680097  0.23627600  0.99319398  1
  O  O11  1  0.24281796  0.75721301  0.99410195  1
  O  O12  1  0.25683698  0.26411600  0.00722898  1
  O  O13  1  0.74259195  0.74270801  0.00547595  1
