# generated using pymatgen
data_CaZrAl2GaSiGeN2
_symmetry_space_group_name_H-M   'P 1'
_cell_length_a   3.61263347
_cell_length_b   3.61263347
_cell_length_c   19.71743774
_cell_angle_alpha   84.74376678
_cell_angle_beta   84.74376678
_cell_angle_gamma   60.00000763
_symmetry_Int_Tables_number   1
_chemical_formula_structural   CaZrAl2GaSiGeN2
_chemical_formula_sum   'Ca1 Zr1 Al2 Ga1 Si1 Ge1 N2'
_cell_volume   221.60798451
_cell_formula_units_Z   1
loop_
 _symmetry_equiv_pos_site_id
 _symmetry_equiv_pos_as_xyz
  1  'x, y, z'
loop_
 _atom_site_type_symbol
 _atom_site_label
 _atom_site_symmetry_multiplicity
 _atom_site_fract_x
 _atom_site_fract_y
 _atom_site_fract_z
 _atom_site_occupancy
  Zr  Zr0  1  0.89689300  0.89689303  0.30932103  1
  Ge  Ge1  1  0.39531100  0.39531101  0.81406704  1
  Ca  Ca2  1  0.60326100  0.60326102  0.19021702  1
  Al  Al3  1  0.10416200  0.10416200  0.68751403  1
  Al  Al4  1  0.30172400  0.30172401  0.09482801  1
  Ga  Ga5  1  0.80441100  0.80441102  0.58676704  1
  N  N6  1  0.19841900  0.19841901  0.40474302  1
  Si  Si7  1  0.69639900  0.69639902  0.91080305  1
  N  N8  1  0.43192100  0.43192101  0.70423703  1
