# generated using pymatgen
data_K4Nb2NiO5
_symmetry_space_group_name_H-M   'P 1'
_cell_length_a   5.55784607
_cell_length_b   7.19562340
_cell_length_c   7.19562340
_cell_angle_alpha   81.42247009
_cell_angle_beta   67.28197479
_cell_angle_gamma   67.28197479
_symmetry_Int_Tables_number   1
_chemical_formula_structural   K4Nb2NiO5
_chemical_formula_sum   'K4 Nb2 Ni1 O5'
_cell_volume   244.84859756
_cell_formula_units_Z   1
loop_
 _symmetry_equiv_pos_site_id
 _symmetry_equiv_pos_as_xyz
  1  'x, y, z'
loop_
 _atom_site_type_symbol
 _atom_site_label
 _atom_site_symmetry_multiplicity
 _atom_site_fract_x
 _atom_site_fract_y
 _atom_site_fract_z
 _atom_site_occupancy
  K  K0  1  0.74835299  0.18870399  0.81129600  1
  K  K1  1  0.74835303  0.81129596  0.18870402  1
  K  K2  1  0.44035104  0.81129596  0.81129599  1
  K  K3  1  0.06294301  0.18870399  0.18870400  1
  Nb  Nb4  1  0.11091203  0.49999998  0.77817598  1
  Nb  Nb5  1  0.38908802  0.49999998  0.22182401  1
  Ni  Ni6  1  0.11091104  0.77817697  0.49999999  1
  O  O7  1  0.38908900  0.22182299  0.50000000  1
  O  O8  1  0.23886704  0.77663097  0.22336900  1
  O  O9  1  0.23886701  0.22336899  0.77663099  1
  O  O10  1  0.53776400  0.22336899  0.22336901  1
  O  O11  1  0.98450202  0.77663097  0.77663101  1
