# generated using pymatgen
data_Y4ZnS6O
_symmetry_space_group_name_H-M   'P 1'
_cell_length_a   6.52028179
_cell_length_b   6.52028179
_cell_length_c   8.08114052
_cell_angle_alpha   113.79251862
_cell_angle_beta   113.79251862
_cell_angle_gamma   90.00000000
_symmetry_Int_Tables_number   1
_chemical_formula_structural   Y4ZnS6O
_chemical_formula_sum   'Y4 Zn1 S6 O1'
_cell_volume   282.15959595
_cell_formula_units_Z   1
loop_
 _symmetry_equiv_pos_site_id
 _symmetry_equiv_pos_as_xyz
  1  'x, y, z'
loop_
 _atom_site_type_symbol
 _atom_site_label
 _atom_site_symmetry_multiplicity
 _atom_site_fract_x
 _atom_site_fract_y
 _atom_site_fract_z
 _atom_site_occupancy
  Y  Y0  1  0.75000000  0.25000000  0.49999995  1
  Y  Y1  1  0.00000000  0.00000000  0.00000000  1
  Y  Y2  1  0.49999999  0.50000000  -0.00000004  1
  Y  Y3  1  0.24999997  0.75000000  0.49999994  1
  S  S4  1  0.54696600  0.15881200  0.66064696  1
  Zn  Zn5  1  0.90881300  0.36368200  0.16064795  1
  S  S6  1  0.63631898  0.74816500  0.83935192  1
  S  S7  1  0.49816499  0.45303400  0.33935295  1
  S  S8  1  0.84118697  0.88631800  0.33935192  1
  S  S9  1  0.20303400  0.09118800  0.83935297  1
  O  O10  1  0.11368098  0.50183500  0.66064796  1
  S  S11  1  0.25183497  0.79696600  0.16064695  1
