# generated using pymatgen
data_CaLaTiO4
_symmetry_space_group_name_H-M   'P 1'
_cell_length_a   5.59248400
_cell_length_b   5.66187811
_cell_length_c   6.99080467
_cell_angle_alpha   90.00000000
_cell_angle_beta   113.57746124
_cell_angle_gamma   90.00000000
_symmetry_Int_Tables_number   1
_chemical_formula_structural   CaLaTiO4
_chemical_formula_sum   'Ca2 La2 Ti2 O8'
_cell_volume   202.87776370
_cell_formula_units_Z   2
loop_
 _symmetry_equiv_pos_site_id
 _symmetry_equiv_pos_as_xyz
  1  'x, y, z'
loop_
 _atom_site_type_symbol
 _atom_site_label
 _atom_site_symmetry_multiplicity
 _atom_site_fract_x
 _atom_site_fract_y
 _atom_site_fract_z
 _atom_site_occupancy
  Ca  Ca0  1  0.35177199  0.00000000  0.70354396  1
  Ca  Ca1  1  0.85384998  0.49999999  0.70769994  1
  La  La2  1  0.14615000  0.49999999  0.29229999  1
  La  La3  1  0.64822798  0.00000000  0.29645596  1
  Ti  Ti4  1  0.00000000  0.00000000  0.00000000  1
  Ti  Ti5  1  0.49999999  0.49999999  -0.00000003  1
  O  O6  1  0.16120100  0.00000000  0.32240198  1
  O  O7  1  0.66129998  0.49999999  0.32259996  1
  O  O8  1  0.33869999  0.49999999  0.67739997  1
  O  O9  1  0.83879898  0.00000000  0.67759794  1
  O  O10  1  0.25429299  0.25094100  0.99999996  1
  O  O11  1  0.74570698  0.74905899  0.99999994  1
  O  O12  1  0.25429299  0.74905899  0.99999996  1
  O  O13  1  0.74570698  0.25094100  0.99999994  1
