# generated using pymatgen
data_Cs4TaMoBr3Cl5(OF)3
_symmetry_space_group_name_H-M   'P 1'
_cell_length_a   7.14408398
_cell_length_b   7.18530369
_cell_length_c   12.82195568
_cell_angle_alpha   92.39854431
_cell_angle_beta   90.00000000
_cell_angle_gamma   119.81041718
_symmetry_Int_Tables_number   1
_chemical_formula_structural   Cs4TaMoBr3Cl5(OF)3
_chemical_formula_sum   'Cs4 Ta1 Mo1 Br3 Cl5 O3 F3'
_cell_volume   570.42338165
_cell_formula_units_Z   1
loop_
 _symmetry_equiv_pos_site_id
 _symmetry_equiv_pos_as_xyz
  1  'x, y, z'
loop_
 _atom_site_type_symbol
 _atom_site_label
 _atom_site_symmetry_multiplicity
 _atom_site_fract_x
 _atom_site_fract_y
 _atom_site_fract_z
 _atom_site_occupancy
  Cs  Cs0  1  0.67969802  0.33810600  0.12002502  1
  Cs  Cs1  1  0.70873902  0.32695100  0.62290203  1
  Cs  Cs2  1  0.38178804  0.67304901  0.37709804  1
  Cs  Cs3  1  0.34159204  0.66189401  0.87997505  1
  Mo  Mo4  1  0.99185800  0.00000000  -0.00000000  1
  Ta  Ta5  1  0.03137500  0.00532300  0.25032701  1
  Br  Br6  1  0.02605206  0.99467701  0.74967306  1
  Br  Br7  1  0.05978800  0.00000000  0.50000002  1
  Br  Br8  1  0.17992402  0.33084600  0.15830102  1
  Cl  Cl9  1  0.30560201  0.14655200  0.88903203  1
  Cl  Cl10  1  0.84907804  0.66915401  0.84169905  1
  F  F11  1  0.83927501  0.15768500  0.89343603  1
  O  O12  1  0.74688106  0.84611501  0.61055805  1
  O  O13  1  0.20383602  0.32097600  0.66069703  1
  Cl  Cl14  1  0.90076601  0.15388500  0.38944202  1
  F  F15  1  0.88286005  0.67902401  0.33930303  1
  O  O16  1  0.20666205  0.82837501  0.60194805  1
  Cl  Cl17  1  0.15905005  0.85344801  0.11096803  1
  Cl  Cl18  1  0.37828701  0.17162500  0.39805202  1
  F  F19  1  0.68159005  0.84231501  0.10656403  1
