# generated using pymatgen
data_NaS
_symmetry_space_group_name_H-M   'P 1'
_cell_length_a   5.68994999
_cell_length_b   5.68994999
_cell_length_c   7.15056610
_cell_angle_alpha   113.44490814
_cell_angle_beta   113.44490814
_cell_angle_gamma   90.00000000
_symmetry_Int_Tables_number   1
_chemical_formula_structural   NaS
_chemical_formula_sum   'Na4 S4'
_cell_volume   191.37972965
_cell_formula_units_Z   4
loop_
 _symmetry_equiv_pos_site_id
 _symmetry_equiv_pos_as_xyz
  1  'x, y, z'
loop_
 _atom_site_type_symbol
 _atom_site_label
 _atom_site_symmetry_multiplicity
 _atom_site_fract_x
 _atom_site_fract_y
 _atom_site_fract_z
 _atom_site_occupancy
  Na  Na0  1  0.00000000  0.00000000  0.00000000  1
  Na  Na1  1  0.75000000  0.25000000  0.49999999  1
  Na  Na2  1  0.25000000  0.75000000  0.49999999  1
  Na  Na3  1  0.50000000  0.50000000  -0.00000000  1
  S  S4  1  0.48935900  0.98935900  0.97871799  1
  S  S5  1  0.01064100  0.51064100  0.02128200  1
  S  S6  1  0.73935900  0.73935900  0.47871799  1
  S  S7  1  0.26064100  0.26064100  0.52128199  1
