# generated using pymatgen
data_Sr2CaLa2Zr(WO6)2
_symmetry_space_group_name_H-M   'P 1'
_cell_length_a   5.65373468
_cell_length_b   5.90370464
_cell_length_c   8.16792965
_cell_angle_alpha   89.45043182
_cell_angle_beta   89.67398834
_cell_angle_gamma   89.91487885
_symmetry_Int_Tables_number   1
_chemical_formula_structural   Sr2CaLa2Zr(WO6)2
_chemical_formula_sum   'Sr2 Ca1 La2 Zr1 W2 O12'
_cell_volume   272.61175668
_cell_formula_units_Z   1
loop_
 _symmetry_equiv_pos_site_id
 _symmetry_equiv_pos_as_xyz
  1  'x, y, z'
loop_
 _atom_site_type_symbol
 _atom_site_label
 _atom_site_symmetry_multiplicity
 _atom_site_fract_x
 _atom_site_fract_y
 _atom_site_fract_z
 _atom_site_occupancy
  Sr  Sr0  1  0.50000000  0.00000000  0.49999998  1
  Ca  Ca1  1  0.00000000  0.50000000  -0.00000001  1
  Sr  Sr2  1  0.01323700  0.05273100  0.24651299  1
  La  La3  1  0.98676300  0.94726899  0.75348696  1
  La  La4  1  0.48590200  0.55932500  0.25208399  1
  Zr  Zr5  1  0.51409800  0.44067500  0.74791597  1
  W  W6  1  0.00000000  0.50000000  0.49999997  1
  W  W7  1  0.50000000  0.00000000  0.00000000  1
  O  O8  1  0.29367900  0.32505300  0.45687998  1
  O  O9  1  0.70632100  0.67494700  0.54311997  1
  O  O10  1  0.17445700  0.77823600  0.43005697  1
  O  O11  1  0.82554300  0.22176400  0.56994298  1
  O  O12  1  0.61484800  0.95737899  0.22901598  1
  O  O13  1  0.38515200  0.04262100  0.77098397  1
  O  O14  1  0.89535300  0.44573000  0.27075599  1
  O  O15  1  0.10464700  0.55427000  0.72924397  1
  O  O16  1  0.21894400  0.81819600  0.06006599  1
  O  O17  1  0.78105600  0.18180400  0.93993396  1
  O  O18  1  0.33071900  0.28637800  0.05811000  1
  O  O19  1  0.66928100  0.71362200  0.94188996  1
