# generated using pymatgen
data_TlPO4
_symmetry_space_group_name_H-M   'P 1'
_cell_length_a   5.15352535
_cell_length_b   5.15352535
_cell_length_c   9.01689434
_cell_angle_alpha   87.18593597
_cell_angle_beta   87.18593597
_cell_angle_gamma   61.77108383
_symmetry_Int_Tables_number   1
_chemical_formula_structural   TlPO4
_chemical_formula_sum   'Tl2 P2 O8'
_cell_volume   210.65019932
_cell_formula_units_Z   2
loop_
 _symmetry_equiv_pos_site_id
 _symmetry_equiv_pos_as_xyz
  1  'x, y, z'
loop_
 _atom_site_type_symbol
 _atom_site_label
 _atom_site_symmetry_multiplicity
 _atom_site_fract_x
 _atom_site_fract_y
 _atom_site_fract_z
 _atom_site_occupancy
  Tl  Tl0  1  0.00000000  0.00000000  0.50000002  1
  Tl  Tl1  1  0.00000000  0.00000000  0.00000000  1
  P  P2  1  0.35506900  0.35506901  0.80818505  1
  P  P3  1  0.64493100  0.64493102  0.19181503  1
  O  O4  1  0.20863800  0.20863801  0.91516305  1
  O  O5  1  0.78801401  0.31477301  0.14587903  1
  O  O6  1  0.67611600  0.67611602  0.35245304  1
  O  O7  1  0.68522701  0.21198601  0.85412106  1
  O  O8  1  0.21198599  0.68522702  0.85412106  1
  O  O9  1  0.79136200  0.79136202  0.08483703  1
  O  O10  1  0.32388400  0.32388401  0.64754704  1
  O  O11  1  0.31477299  0.78801402  0.14587903  1
