# generated using pymatgen
data_FeBPHN4
_symmetry_space_group_name_H-M   'P 1'
_cell_length_a   5.37657595
_cell_length_b   5.40075731
_cell_length_c   6.64244795
_cell_angle_alpha   66.67055511
_cell_angle_beta   66.12683105
_cell_angle_gamma   60.14800262
_symmetry_Int_Tables_number   1
_chemical_formula_structural   FeBPHN4
_chemical_formula_sum   'Fe1 B1 P1 H1 N4'
_cell_volume   148.30085805
_cell_formula_units_Z   1
loop_
 _symmetry_equiv_pos_site_id
 _symmetry_equiv_pos_as_xyz
  1  'x, y, z'
loop_
 _atom_site_type_symbol
 _atom_site_label
 _atom_site_symmetry_multiplicity
 _atom_site_fract_x
 _atom_site_fract_y
 _atom_site_fract_z
 _atom_site_occupancy
  P  P0  1  0.77707300  0.72778803  0.24860801  1
  Fe  Fe1  1  0.24653100  0.22778801  0.74860800  1
  B  B2  1  0.57399599  0.00698800  0.63208502  1
  H  H3  1  0.99880899  0.29723701  0.63004603  1
  N  N4  1  0.78693100  0.50698802  0.13208502  1
  N  N5  1  0.07390801  0.79723704  0.13004598  1
  N  N6  1  0.29167300  0.58918803  0.62566000  1
  N  N7  1  0.49347900  0.08918800  0.12566002  1
