# generated using pymatgen
data_Li6VCuS8
_symmetry_space_group_name_H-M   'P 1'
_cell_length_a   6.71523190
_cell_length_b   7.57634258
_cell_length_c   8.52325821
_cell_angle_alpha   96.64430237
_cell_angle_beta   113.19961548
_cell_angle_gamma   90.00000000
_symmetry_Int_Tables_number   1
_chemical_formula_structural   Li6VCuS8
_chemical_formula_sum   'Li6 V1 Cu1 S8'
_cell_volume   395.40149700
_cell_formula_units_Z   1
loop_
 _symmetry_equiv_pos_site_id
 _symmetry_equiv_pos_as_xyz
  1  'x, y, z'
loop_
 _atom_site_type_symbol
 _atom_site_label
 _atom_site_symmetry_multiplicity
 _atom_site_fract_x
 _atom_site_fract_y
 _atom_site_fract_z
 _atom_site_occupancy
  Li  Li0  1  0.32438100  0.08136300  0.21395299  1
  Li  Li1  1  0.11042800  0.41863700  0.78604697  1
  Li  Li2  1  0.67561900  0.91863699  0.78604696  1
  Li  Li3  1  0.88957201  0.58136300  0.21395298  1
  Li  Li4  1  0.50000000  0.50000000  0.49999997  1
  Li  Li5  1  0.00000000  0.00000000  0.49999998  1
  V  V6  1  0.91938001  0.25000000  -0.00000001  1
  Cu  Cu7  1  0.08062000  0.74999999  -0.00000000  1
  S  S8  1  0.46821300  0.42990300  0.17928399  1
  S  S9  1  0.28892900  0.07009700  0.82071596  1
  S  S10  1  0.53178700  0.57009700  0.82071596  1
  S  S11  1  0.71107101  0.92990299  0.17928398  1
  S  S12  1  0.69981901  0.18849200  0.55865797  1
  S  S13  1  0.14116100  0.31150800  0.44134198  1
  S  S14  1  0.30018100  0.81150799  0.44134198  1
  S  S15  1  0.85883901  0.68849199  0.55865797  1
