# generated using pymatgen
data_La2HfRuO6
_symmetry_space_group_name_H-M   'P 1'
_cell_length_a   5.52586985
_cell_length_b   5.85997009
_cell_length_c   8.18810368
_cell_angle_alpha   90.00000000
_cell_angle_beta   90.00000000
_cell_angle_gamma   90.00000000
_symmetry_Int_Tables_number   1
_chemical_formula_structural   La2HfRuO6
_chemical_formula_sum   'La4 Hf2 Ru2 O12'
_cell_volume   265.14252268
_cell_formula_units_Z   2
loop_
 _symmetry_equiv_pos_site_id
 _symmetry_equiv_pos_as_xyz
  1  'x, y, z'
loop_
 _atom_site_type_symbol
 _atom_site_label
 _atom_site_symmetry_multiplicity
 _atom_site_fract_x
 _atom_site_fract_y
 _atom_site_fract_z
 _atom_site_occupancy
  La  La0  1  0.02005600  0.93525999  0.75000003  1
  La  La1  1  0.47994401  0.43525999  0.75000003  1
  La  La2  1  0.52005601  0.56473999  0.25000001  1
  La  La3  1  0.97994403  0.06474000  0.25000001  1
  Hf  Hf4  1  0.00000000  0.49999999  -0.00000000  1
  Hf  Hf5  1  0.00000000  0.49999999  0.50000002  1
  Ru  Ru6  1  0.50000001  0.00000000  -0.00000000  1
  Ru  Ru7  1  0.50000001  0.00000000  0.50000002  1
  O  O8  1  0.14729200  0.42662999  0.25000001  1
  O  O9  1  0.18130601  0.18520800  0.57487902  1
  O  O10  1  0.18130601  0.18520800  0.92512104  1
  O  O11  1  0.31869401  0.68520799  0.57487902  1
  O  O12  1  0.31869401  0.68520799  0.92512104  1
  O  O13  1  0.35270801  0.92662999  0.25000001  1
  O  O14  1  0.64729202  0.07337000  0.75000003  1
  O  O15  1  0.68130602  0.31479200  0.07487900  1
  O  O16  1  0.68130602  0.31479200  0.42512102  1
  O  O17  1  0.81869402  0.81479199  0.07487900  1
  O  O18  1  0.81869402  0.81479199  0.42512102  1
  O  O19  1  0.85270802  0.57336999  0.75000003  1
