# generated using pymatgen
data_K2MoBr4
_symmetry_space_group_name_H-M   'P 1'
_cell_length_a   4.48213387
_cell_length_b   7.49814510
_cell_length_c   7.49814510
_cell_angle_alpha   90.00000000
_cell_angle_beta   90.00000000
_cell_angle_gamma   90.00000000
_symmetry_Int_Tables_number   1
_chemical_formula_structural   K2MoBr4
_chemical_formula_sum   'K2 Mo1 Br4'
_cell_volume   251.99533693
_cell_formula_units_Z   1
loop_
 _symmetry_equiv_pos_site_id
 _symmetry_equiv_pos_as_xyz
  1  'x, y, z'
loop_
 _atom_site_type_symbol
 _atom_site_label
 _atom_site_symmetry_multiplicity
 _atom_site_fract_x
 _atom_site_fract_y
 _atom_site_fract_z
 _atom_site_occupancy
  K  K0  1  0.50000002  0.49999999  0.00000000  1
  K  K1  1  0.50000002  0.00000000  0.49999999  1
  Mo  Mo2  1  0.00000000  0.00000000  0.00000000  1
  Br  Br3  1  0.00000000  0.76710199  0.76710199  1
  Br  Br4  1  0.00000000  0.23289800  0.23289800  1
  Br  Br5  1  0.00000000  0.23289800  0.76710199  1
  Br  Br6  1  0.00000000  0.76710199  0.23289800  1
