# generated using pymatgen
data_Li3CoO3
_symmetry_space_group_name_H-M   'P 1'
_cell_length_a   5.08483124
_cell_length_b   6.07680464
_cell_length_c   6.66091394
_cell_angle_alpha   62.89767456
_cell_angle_beta   77.73919678
_cell_angle_gamma   89.63871765
_symmetry_Int_Tables_number   1
_chemical_formula_structural   Li3CoO3
_chemical_formula_sum   'Li6 Co2 O6'
_cell_volume   178.06963115
_cell_formula_units_Z   2
loop_
 _symmetry_equiv_pos_site_id
 _symmetry_equiv_pos_as_xyz
  1  'x, y, z'
loop_
 _atom_site_type_symbol
 _atom_site_label
 _atom_site_symmetry_multiplicity
 _atom_site_fract_x
 _atom_site_fract_y
 _atom_site_fract_z
 _atom_site_occupancy
  Li  Li0  1  0.25264000  0.30243800  0.00054901  1
  Li  Li1  1  0.74761700  0.69870500  0.99907203  1
  Li  Li2  1  0.74698000  0.13592300  0.49509602  1
  Li  Li3  1  0.24750600  0.37480000  0.49950301  1
  Li  Li4  1  0.75276800  0.62458500  0.50144703  1
  Li  Li5  1  0.25211800  0.86423500  0.50421002  1
  Co  Co6  1  0.96206101  0.46159300  0.31127104  1
  Co  Co7  1  0.51848200  0.79160900  0.68261402  1
  O  O8  1  0.03750200  0.53901400  0.68999900  1
  O  O9  1  0.48251400  0.20841700  0.31642502  1
  O  O10  1  0.53641100  0.28336900  0.67940502  1
  O  O11  1  0.98461301  0.96694000  0.32561204  1
  O  O12  1  0.46259300  0.71487600  0.32157502  1
  O  O13  1  0.01619500  0.03349700  0.67322100  1
