# generated using pymatgen
data_CeNd3EuThS8
_symmetry_space_group_name_H-M   'P 1'
_cell_length_a   7.51491117
_cell_length_b   7.51491117
_cell_length_c   7.51491117
_cell_angle_alpha   109.12612152
_cell_angle_beta   109.64404297
_cell_angle_gamma   109.64404297
_symmetry_Int_Tables_number   1
_chemical_formula_structural   CeNd3EuThS8
_chemical_formula_sum   'Ce1 Nd3 Eu1 Th1 S8'
_cell_volume   326.69153458
_cell_formula_units_Z   1
loop_
 _symmetry_equiv_pos_site_id
 _symmetry_equiv_pos_as_xyz
  1  'x, y, z'
loop_
 _atom_site_type_symbol
 _atom_site_label
 _atom_site_symmetry_multiplicity
 _atom_site_fract_x
 _atom_site_fract_y
 _atom_site_fract_z
 _atom_site_occupancy
  Th  Th0  1  0.88082990  0.87499997  0.25582993  1
  Nd  Nd1  1  0.38082999  0.00583000  0.12499998  1
  Nd  Nd2  1  0.11916996  0.37499999  0.99416999  1
  Nd  Nd3  1  0.61916992  0.74416997  0.62499995  1
  Eu  Eu4  1  0.49999997  0.24999999  0.74999997  1
  Ce  Ce5  1  -0.00000005  0.49999998  0.49999999  1
  S  S6  1  0.60780395  0.47981098  0.23235996  1
  S  S7  1  0.74745098  0.12544400  0.01763896  1
  S  S8  1  0.39219594  0.62455598  0.87200697  1
  S  S9  1  0.75254898  0.12799300  0.52018896  1
  S  S10  1  0.10780391  0.98235997  0.72981098  1
  S  S11  1  0.24745092  0.76763897  0.37544397  1
  S  S12  1  0.89219593  0.62200698  0.87455594  1
  S  S13  1  0.25254897  0.27018899  0.37799298  1
