# generated using pymatgen
data_LaTiO3
_symmetry_space_group_name_H-M   'P 1'
_cell_length_a   5.59928608
_cell_length_b   5.89726686
_cell_length_c   8.01614475
_cell_angle_alpha   90.00000000
_cell_angle_beta   89.55258942
_cell_angle_gamma   90.00000000
_symmetry_Int_Tables_number   1
_chemical_formula_structural   LaTiO3
_chemical_formula_sum   'La4 Ti4 O12'
_cell_volume   264.68891145
_cell_formula_units_Z   4
loop_
 _symmetry_equiv_pos_site_id
 _symmetry_equiv_pos_as_xyz
  1  'x, y, z'
loop_
 _atom_site_type_symbol
 _atom_site_label
 _atom_site_symmetry_multiplicity
 _atom_site_fract_x
 _atom_site_fract_y
 _atom_site_fract_z
 _atom_site_occupancy
  La  La0  1  0.48260399  0.80555802  0.75063198  1
  La  La1  1  0.98260399  0.19444200  0.25063201  1
  La  La2  1  0.01899800  0.30822201  0.74940997  1
  La  La3  1  0.51899799  0.69177802  0.24941000  1
  Ti  Ti4  1  0.99999099  0.75360502  0.99944498  1
  Ti  Ti5  1  0.00054900  0.75183502  0.50056598  1
  Ti  Ti6  1  0.49999099  0.24639501  0.49944499  1
  Ti  Ti7  1  0.50054899  0.24816501  0.00056601  1
  O  O8  1  0.10964100  0.79801802  0.24286899  1
  O  O9  1  0.19439800  0.04869400  0.93749296  1
  O  O10  1  0.20399400  0.05360500  0.55213998  1
  O  O11  1  0.30490900  0.54580301  0.56243098  1
  O  O12  1  0.29437200  0.55422401  0.94726397  1
  O  O13  1  0.39015899  0.29434501  0.25725700  1
  O  O14  1  0.60964099  0.20198200  0.74286898  1
  O  O15  1  0.70399399  0.94639502  0.05214001  1
  O  O16  1  0.69439799  0.95130602  0.43749300  1
  O  O17  1  0.80490899  0.45419701  0.06243102  1
  O  O18  1  0.79437199  0.44577601  0.44726400  1
  O  O19  1  0.89015899  0.70565502  0.75725699  1
