# generated using pymatgen
data_Li7Co3O10
_symmetry_space_group_name_H-M   'P 1'
_cell_length_a   2.96564531
_cell_length_b   5.09098816
_cell_length_c   12.17059040
_cell_angle_alpha   96.08949280
_cell_angle_beta   93.99359894
_cell_angle_gamma   91.20210266
_symmetry_Int_Tables_number   1
_chemical_formula_structural   Li7Co3O10
_chemical_formula_sum   'Li7 Co3 O10'
_cell_volume   182.19731741
_cell_formula_units_Z   1
loop_
 _symmetry_equiv_pos_site_id
 _symmetry_equiv_pos_as_xyz
  1  'x, y, z'
loop_
 _atom_site_type_symbol
 _atom_site_label
 _atom_site_symmetry_multiplicity
 _atom_site_fract_x
 _atom_site_fract_y
 _atom_site_fract_z
 _atom_site_occupancy
  Li  Li0  1  0.89992104  0.30001699  0.79999801  1
  Li  Li1  1  0.40001009  0.79999698  0.80000601  1
  Li  Li2  1  0.31547201  0.09355100  0.60816200  1
  Li  Li3  1  0.48447706  0.50643198  0.99181801  1
  Li  Li4  1  0.69764510  0.90782197  0.39857102  1
  Li  Li5  1  0.10240008  0.69211198  0.20142501  1
  Li  Li6  1  0.81994707  0.60891798  0.60798802  1
  Co  Co7  1  0.21594804  0.39664099  0.40179801  1
  Co  Co8  1  0.98003211  0.99106097  0.99200502  1
  Co  Co9  1  0.58411002  0.20332699  0.19825001  1
  O  O10  1  0.45959302  0.13071700  0.91211000  1
  O  O11  1  0.34033405  0.46931199  0.68789801  1
  O  O12  1  0.84740410  0.92757897  0.69131102  1
  O  O13  1  0.95244608  0.67248898  0.90869702  1
  O  O14  1  0.29094808  0.72014498  0.50980201  1
  O  O15  1  0.50900010  0.87986397  0.09019502  1
  O  O16  1  0.61947506  0.53686098  0.29972701  1
  O  O17  1  0.18065401  0.06313800  0.30024500  1
  O  O18  1  0.99819404  0.32837899  0.10018802  1
  O  O19  1  0.80198903  0.27163899  0.49980501  1
