# generated using pymatgen
data_Li4VP(HO5)2
_symmetry_space_group_name_H-M   'P 1'
_cell_length_a   5.07878304
_cell_length_b   5.28605843
_cell_length_c   7.04117632
_cell_angle_alpha   106.93471527
_cell_angle_beta   108.78816223
_cell_angle_gamma   98.36598969
_symmetry_Int_Tables_number   1
_chemical_formula_structural   Li4VP(HO5)2
_chemical_formula_sum   'Li4 V1 P1 H2 O10'
_cell_volume   165.11522226
_cell_formula_units_Z   1
loop_
 _symmetry_equiv_pos_site_id
 _symmetry_equiv_pos_as_xyz
  1  'x, y, z'
loop_
 _atom_site_type_symbol
 _atom_site_label
 _atom_site_symmetry_multiplicity
 _atom_site_fract_x
 _atom_site_fract_y
 _atom_site_fract_z
 _atom_site_occupancy
  Li  Li0  1  0.74424005  0.39431703  0.82216208  1
  Li  Li1  1  0.25576007  0.60568305  0.17783806  1
  Li  Li2  1  0.00000000  0.00000000  0.50000001  1
  Li  Li3  1  0.00000000  0.00000000  0.00000000  1
  H  H4  1  0.67814405  0.35243503  0.23521306  1
  P  P5  1  0.32185607  0.64756505  0.76478708  1
  H  H6  1  0.34610601  0.07003201  0.34559603  1
  V  V7  1  0.65389411  0.92996807  0.65440412  1
  O  O8  1  0.85495202  0.04836200  0.72703706  1
  O  O9  1  0.72375303  0.19790302  0.39369806  1
  O  O10  1  0.30244904  0.33976403  0.65712305  1
  O  O11  1  0.36323703  0.24290602  0.06657904  1
  O  O12  1  0.89086705  0.33008203  0.11648507  1
  O  O13  1  0.10913307  0.66991805  0.88351507  1
  O  O14  1  0.63676309  0.75709406  0.93342111  1
  O  O15  1  0.69755108  0.66023605  0.34287709  1
  O  O16  1  0.27624709  0.80209706  0.60630209  1
  O  O17  1  0.14504810  0.95163807  0.27296309  1
