# generated using pymatgen
data_Li4CoO7
_symmetry_space_group_name_H-M   'P 1'
_cell_length_a   3.74666190
_cell_length_b   6.47350597
_cell_length_c   6.49009609
_cell_angle_alpha   106.15577698
_cell_angle_beta   90.00000000
_cell_angle_gamma   106.82109833
_symmetry_Int_Tables_number   1
_chemical_formula_structural   Li4CoO7
_chemical_formula_sum   'Li4 Co1 O7'
_cell_volume   144.16941449
_cell_formula_units_Z   1
loop_
 _symmetry_equiv_pos_site_id
 _symmetry_equiv_pos_as_xyz
  1  'x, y, z'
loop_
 _atom_site_type_symbol
 _atom_site_label
 _atom_site_symmetry_multiplicity
 _atom_site_fract_x
 _atom_site_fract_y
 _atom_site_fract_z
 _atom_site_occupancy
  Li  Li0  1  0.69618101  0.39236199  0.27562298  1
  Li  Li1  1  0.30381899  0.60763798  0.72437696  1
  Li  Li2  1  0.60119901  0.20239799  0.68528699  1
  Li  Li3  1  0.39880099  0.79760198  0.31471296  1
  O  O4  1  0.63912801  0.27825599  0.00418998  1
  Co  Co5  1  0.36087199  0.72174398  0.99580996  1
  O  O6  1  0.76212601  0.52425198  0.64900597  1
  O  O7  1  0.23787400  0.47574799  0.35099397  1
  O  O8  1  0.55746601  0.11493200  0.36840699  1
  O  O9  1  0.44253399  0.88506797  0.63159295  1
  O  O10  1  0.86531401  0.73062798  0.29918196  1
  O  O11  1  0.13468600  0.26937199  0.70081798  1
