# generated using pymatgen
data_LiFeO2
_symmetry_space_group_name_H-M   'P 1'
_cell_length_a   2.86877894
_cell_length_b   4.63447523
_cell_length_c   5.83250713
_cell_angle_alpha   90.00000000
_cell_angle_beta   90.00000000
_cell_angle_gamma   90.00000000
_symmetry_Int_Tables_number   1
_chemical_formula_structural   LiFeO2
_chemical_formula_sum   'Li2 Fe2 O4'
_cell_volume   77.54484437
_cell_formula_units_Z   2
loop_
 _symmetry_equiv_pos_site_id
 _symmetry_equiv_pos_as_xyz
  1  'x, y, z'
loop_
 _atom_site_type_symbol
 _atom_site_label
 _atom_site_symmetry_multiplicity
 _atom_site_fract_x
 _atom_site_fract_y
 _atom_site_fract_z
 _atom_site_occupancy
  Li  Li0  1  0.74999801  0.74999996  0.87974998  1
  Li  Li1  1  0.24999900  0.24999899  0.12024900  1
  Fe  Fe2  1  0.74999801  0.74999996  0.36325199  1
  Fe  Fe3  1  0.24999900  0.24999899  0.63674799  1
  O  O4  1  0.74999801  0.24999899  0.86082398  1
  O  O5  1  0.24999900  0.74999996  0.59851299  1
  O  O6  1  0.74999801  0.24999899  0.40148699  1
  O  O7  1  0.24999900  0.74999996  0.13917500  1
