# generated using pymatgen
data_Li3CoO5
_symmetry_space_group_name_H-M   'P 1'
_cell_length_a   3.73877716
_cell_length_b   5.46022701
_cell_length_c   10.33382034
_cell_angle_alpha   88.53052521
_cell_angle_beta   89.99897766
_cell_angle_gamma   69.99208069
_symmetry_Int_Tables_number   1
_chemical_formula_structural   Li3CoO5
_chemical_formula_sum   'Li6 Co2 O10'
_cell_volume   198.15426762
_cell_formula_units_Z   2
loop_
 _symmetry_equiv_pos_site_id
 _symmetry_equiv_pos_as_xyz
  1  'x, y, z'
loop_
 _atom_site_type_symbol
 _atom_site_label
 _atom_site_symmetry_multiplicity
 _atom_site_fract_x
 _atom_site_fract_y
 _atom_site_fract_z
 _atom_site_occupancy
  Li  Li0  1  0.16884195  0.66197102  0.63708295  1
  Li  Li1  1  0.66874294  0.66212602  0.13693098  1
  Li  Li2  1  0.64776993  0.70365002  0.83805095  1
  Li  Li3  1  0.14790995  0.70335202  0.33797497  1
  Li  Li4  1  0.86603996  0.26837301  0.68805797  1
  Li  Li5  1  0.36607297  0.26834401  0.18802999  1
  Co  Co6  1  0.48924798  0.02138800  0.48549799  1
  Co  Co7  1  0.98897397  0.02207800  0.98565497  1
  O  O8  1  0.02420294  0.95170702  0.50323395  1
  O  O9  1  0.52400392  0.95220502  0.00321798  1
  O  O10  1  0.09441294  0.81067002  0.82375694  1
  O  O11  1  0.59446993  0.81051402  0.32359097  1
  O  O12  1  0.82912495  0.34286101  0.86606296  1
  O  O13  1  0.32925797  0.34251801  0.36607098  1
  O  O14  1  0.67186794  0.65581702  0.64140796  1
  O  O15  1  0.17186995  0.65574802  0.14124998  1
  O  O16  1  0.37543697  0.24937601  0.63906297  1
  O  O17  1  0.87529996  0.24964901  0.13906100  1
