# generated using pymatgen
data_KCuS3
_symmetry_space_group_name_H-M   'P 1'
_cell_length_a   6.83781719
_cell_length_b   6.83781719
_cell_length_c   6.83781719
_cell_angle_alpha   61.19552231
_cell_angle_beta   61.19552231
_cell_angle_gamma   61.19551849
_symmetry_Int_Tables_number   1
_chemical_formula_structural   KCuS3
_chemical_formula_sum   'K2 Cu2 S6'
_cell_volume   232.14679749
_cell_formula_units_Z   2
loop_
 _symmetry_equiv_pos_site_id
 _symmetry_equiv_pos_as_xyz
  1  'x, y, z'
loop_
 _atom_site_type_symbol
 _atom_site_label
 _atom_site_symmetry_multiplicity
 _atom_site_fract_x
 _atom_site_fract_y
 _atom_site_fract_z
 _atom_site_occupancy
  K  K0  1  0.24054101  0.24054100  0.24054101  1
  K  K1  1  0.74054104  0.74054101  0.74054102  1
  Cu  Cu2  1  0.99449506  0.99449502  0.99449503  1
  Cu  Cu3  1  0.49449503  0.49449501  0.49449502  1
  S  S4  1  0.77366203  0.29087101  0.18563101  1
  S  S5  1  0.18563103  0.77366202  0.29087101  1
  S  S6  1  0.29087101  0.18563100  0.77366202  1
  S  S7  1  0.27366203  0.68563101  0.79087102  1
  S  S8  1  0.68563104  0.79087102  0.27366201  1
  S  S9  1  0.79087103  0.27366201  0.68563102  1
