# generated using pymatgen
data_La2ZrTi3O9
_symmetry_space_group_name_H-M   'P 1'
_cell_length_a   5.52988815
_cell_length_b   5.52988768
_cell_length_c   6.78823090
_cell_angle_alpha   90.00000000
_cell_angle_beta   90.00000000
_cell_angle_gamma   120.00000000
_symmetry_Int_Tables_number   1
_chemical_formula_structural   La2ZrTi3O9
_chemical_formula_sum   'La2 Zr1 Ti3 O9'
_cell_volume   179.77110798
_cell_formula_units_Z   1
loop_
 _symmetry_equiv_pos_site_id
 _symmetry_equiv_pos_as_xyz
  1  'x, y, z'
loop_
 _atom_site_type_symbol
 _atom_site_label
 _atom_site_symmetry_multiplicity
 _atom_site_fract_x
 _atom_site_fract_y
 _atom_site_fract_z
 _atom_site_occupancy
  La  La0  1  0.00000000  0.00000000  0.67047501  1
  La  La1  1  0.66666663  0.33333332  0.00132100  1
  Zr  Zr2  1  0.33333329  0.66666664  0.32875101  1
  Ti  Ti3  1  0.66666663  0.33333332  0.50334401  1
  Ti  Ti4  1  0.00000000  0.00000000  0.16029400  1
  Ti  Ti5  1  0.33333329  0.66666664  0.83692401  1
  O  O6  1  0.83484894  0.66969797  0.33588301  1
  O  O7  1  0.16938198  0.33876399  0.00539800  1
  O  O8  1  0.49592794  0.99185596  0.65834901  1
  O  O9  1  0.00814297  0.50407098  0.65834901  1
  O  O10  1  0.33030198  0.16515099  0.33588301  1
  O  O11  1  0.66123594  0.83061796  0.00539800  1
  O  O12  1  0.83484897  0.16515099  0.33588301  1
  O  O13  1  0.16938195  0.83061796  0.00539800  1
  O  O14  1  0.49592796  0.50407098  0.65834901  1
