# generated using pymatgen
data_Li4Si3O5
_symmetry_space_group_name_H-M   'P 1'
_cell_length_a   4.11558008
_cell_length_b   6.37260628
_cell_length_c   6.66367722
_cell_angle_alpha   92.26925659
_cell_angle_beta   94.79343414
_cell_angle_gamma   95.33102417
_symmetry_Int_Tables_number   1
_chemical_formula_structural   Li4Si3O5
_chemical_formula_sum   'Li4 Si3 O5'
_cell_volume   173.20585089
_cell_formula_units_Z   1
loop_
 _symmetry_equiv_pos_site_id
 _symmetry_equiv_pos_as_xyz
  1  'x, y, z'
loop_
 _atom_site_type_symbol
 _atom_site_label
 _atom_site_symmetry_multiplicity
 _atom_site_fract_x
 _atom_site_fract_y
 _atom_site_fract_z
 _atom_site_occupancy
  Li  Li0  1  0.53515508  0.62898299  0.75623402  1
  Li  Li1  1  0.46484505  0.37101699  0.24376601  1
  Li  Li2  1  0.68347610  0.85755598  0.27918403  1
  Li  Li3  1  0.31652402  0.14244400  0.72081600  1
  Si  Si4  1  0.59861311  0.96914398  0.77165104  1
  Si  Si5  1  0.40138702  0.03085600  0.22834899  1
  O  O6  1  0.60978608  0.67016799  0.07861902  1
  Si  Si7  1  0.39021404  0.32983199  0.92138101  1
  O  O8  1  0.48404508  0.67668699  0.43095402  1
  O  O9  1  0.51595505  0.32331299  0.56904600  1
  O  O10  1  0.03539406  0.64949899  0.74224803  1
  O  O11  1  0.96460607  0.35050099  0.25775199  1
