# generated using pymatgen
data_Rb3YbSbO3
_symmetry_space_group_name_H-M   'P 1'
_cell_length_a   6.50847197
_cell_length_b   6.50847197
_cell_length_c   6.50847197
_cell_angle_alpha   79.68688202
_cell_angle_beta   67.44213104
_cell_angle_gamma   115.93531036
_symmetry_Int_Tables_number   1
_chemical_formula_structural   Rb3YbSbO3
_chemical_formula_sum   'Rb3 Yb1 Sb1 O3'
_cell_volume   208.04572205
_cell_formula_units_Z   1
loop_
 _symmetry_equiv_pos_site_id
 _symmetry_equiv_pos_as_xyz
  1  'x, y, z'
loop_
 _atom_site_type_symbol
 _atom_site_label
 _atom_site_symmetry_multiplicity
 _atom_site_fract_x
 _atom_site_fract_y
 _atom_site_fract_z
 _atom_site_occupancy
  Rb  Rb0  1  0.00000000  0.00000000  0.00000000  1
  Rb  Rb1  1  0.49999994  0.79817797  0.70182209  1
  Rb  Rb2  1  0.49999999  0.20182199  0.29817803  1
  Yb  Yb3  1  0.99999997  0.49999998  0.50000007  1
  Sb  Sb4  1  0.99072397  0.46683598  0.13732706  1
  O  O5  1  0.00927592  0.87194897  0.52388809  1
  O  O6  1  0.60416300  0.12805100  0.86267303  1
  O  O7  1  0.39583696  0.53316398  0.47611206  1
