# generated using pymatgen
data_BaClO
_symmetry_space_group_name_H-M   'P 1'
_cell_length_a   4.62336397
_cell_length_b   4.62336397
_cell_length_c   7.99138594
_cell_angle_alpha   90.00000000
_cell_angle_beta   90.00000000
_cell_angle_gamma   90.00000000
_symmetry_Int_Tables_number   1
_chemical_formula_structural   BaClO
_chemical_formula_sum   'Ba2 Cl2 O2'
_cell_volume   170.81982546
_cell_formula_units_Z   2
loop_
 _symmetry_equiv_pos_site_id
 _symmetry_equiv_pos_as_xyz
  1  'x, y, z'
loop_
 _atom_site_type_symbol
 _atom_site_label
 _atom_site_symmetry_multiplicity
 _atom_site_fract_x
 _atom_site_fract_y
 _atom_site_fract_z
 _atom_site_occupancy
  Ba  Ba0  1  0.50000000  0.50000000  0.82739601  1
  Ba  Ba1  1  0.00000000  0.00000000  0.18519100  1
  Cl  Cl2  1  0.00000000  0.00000000  0.64138701  1
  Cl  Cl3  1  0.50000000  0.50000000  0.34009800  1
  O  O4  1  0.50000000  0.00000000  0.00296400  1
  O  O5  1  0.00000000  0.50000000  0.00296400  1
