# generated using pymatgen
data_Na2O2
_symmetry_space_group_name_H-M   'P 1'
_cell_length_a   3.72435832
_cell_length_b   3.72435832
_cell_length_c   7.25741053
_cell_angle_alpha   75.13217926
_cell_angle_beta   75.13217926
_cell_angle_gamma   59.99999237
_symmetry_Int_Tables_number   1
_chemical_formula_structural   Na2O2
_chemical_formula_sum   'Na2 O2'
_cell_volume   83.26527334
_cell_formula_units_Z   1
loop_
 _symmetry_equiv_pos_site_id
 _symmetry_equiv_pos_as_xyz
  1  'x, y, z'
loop_
 _atom_site_type_symbol
 _atom_site_label
 _atom_site_symmetry_multiplicity
 _atom_site_fract_x
 _atom_site_fract_y
 _atom_site_fract_z
 _atom_site_occupancy
  Na  Na0  1  0.22542399  0.22542400  0.32372801  1
  Na  Na1  1  0.77457597  0.77457602  0.67627202  1
  O  O2  1  0.00000000  0.00000000  0.00000000  1
  O  O3  1  0.49999998  0.50000001  0.50000001  1
