# generated using pymatgen
data_Li2CuAs
_symmetry_space_group_name_H-M   'P 1'
_cell_length_a   3.95815158
_cell_length_b   3.95815158
_cell_length_c   6.85554314
_cell_angle_alpha   73.22089386
_cell_angle_beta   73.22089386
_cell_angle_gamma   60.00000763
_symmetry_Int_Tables_number   1
_chemical_formula_structural   Li2CuAs
_chemical_formula_sum   'Li2 Cu1 As1'
_cell_volume   87.69598186
_cell_formula_units_Z   1
loop_
 _symmetry_equiv_pos_site_id
 _symmetry_equiv_pos_as_xyz
  1  'x, y, z'
loop_
 _atom_site_type_symbol
 _atom_site_label
 _atom_site_symmetry_multiplicity
 _atom_site_fract_x
 _atom_site_fract_y
 _atom_site_fract_z
 _atom_site_occupancy
  Li  Li0  1  0.00373900  0.00373900  0.98878301  1
  Li  Li1  1  0.49634700  0.49634700  0.51095900  1
  Cu  Cu2  1  0.62465700  0.62465700  0.12602900  1
  As  As3  1  0.12525700  0.12525700  0.62422901  1
