# generated using pymatgen
data_Li6MgBeN9
_symmetry_space_group_name_H-M   'P 1'
_cell_length_a   6.74329805
_cell_length_b   6.74329805
_cell_length_c   6.74329805
_cell_angle_alpha   109.47122192
_cell_angle_beta   109.47122192
_cell_angle_gamma   109.47122192
_symmetry_Int_Tables_number   1
_chemical_formula_structural   Li6MgBeN9
_chemical_formula_sum   'Li6 Mg1 Be1 N9'
_cell_volume   236.04519066
_cell_formula_units_Z   1
loop_
 _symmetry_equiv_pos_site_id
 _symmetry_equiv_pos_as_xyz
  1  'x, y, z'
loop_
 _atom_site_type_symbol
 _atom_site_label
 _atom_site_symmetry_multiplicity
 _atom_site_fract_x
 _atom_site_fract_y
 _atom_site_fract_z
 _atom_site_occupancy
  Mg  Mg0  1  0.00000000  0.00000000  0.00000000  1
  Li  Li1  1  0.50000004  0.50000003  0.50000005  1
  Li  Li2  1  1.00000005  0.50000003  0.00000005  1
  Li  Li3  1  0.00000000  0.00000000  0.50000001  1
  Li  Li4  1  0.50000007  1.00000005  0.00000007  1
  N  N5  1  0.50247902  0.15150701  0.35097203  1
  Be  Be6  1  0.80053403  0.15150601  0.64902704  1
  Li  Li7  1  0.19946606  0.84849405  0.35097306  1
  N  N8  1  0.84849304  0.35097202  0.19946504  1
  N  N9  1  0.64902807  0.80053504  0.15150706  1
  N  N10  1  0.49752107  0.84849305  0.64902807  1
  Li  Li11  1  0.84849306  0.64902704  0.49752106  1
  N  N12  1  0.64902805  0.49752103  0.84849406  1
  N  N13  1  0.15150704  0.64902804  0.80053505  1
  N  N14  1  0.35097204  0.50247903  0.15150604  1
  N  N15  1  0.15150703  0.35097302  0.50247903  1
  N  N16  1  0.35097202  0.19946501  0.84849303  1
