# generated using pymatgen
data_Na2Nb5WO12
_symmetry_space_group_name_H-M   'P 1'
_cell_length_a   5.70543957
_cell_length_b   5.70544004
_cell_length_c   9.88211536
_cell_angle_alpha   73.22118378
_cell_angle_beta   73.22140503
_cell_angle_gamma   59.99970245
_symmetry_Int_Tables_number   1
_chemical_formula_structural   Na2Nb5WO12
_chemical_formula_sum   'Na2 Nb5 W1 O12'
_cell_volume   262.65227417
_cell_formula_units_Z   1
loop_
 _symmetry_equiv_pos_site_id
 _symmetry_equiv_pos_as_xyz
  1  'x, y, z'
loop_
 _atom_site_type_symbol
 _atom_site_label
 _atom_site_symmetry_multiplicity
 _atom_site_fract_x
 _atom_site_fract_y
 _atom_site_fract_z
 _atom_site_occupancy
  Na  Na0  1  0.24999500  0.24999901  0.25000100  1
  Na  Na1  1  0.75000201  0.74999802  0.75000201  1
  Nb  Nb2  1  0.12500200  0.12500300  0.62500600  1
  Nb  Nb3  1  0.62499301  0.62500601  0.12500601  1
  Nb  Nb4  1  0.37501701  0.37500401  0.87498500  1
  Nb  Nb5  1  0.87499802  0.87498602  0.37500701  1
  Nb  Nb6  1  0.99999502  0.99999402  0.00000602  1
  W  W7  1  0.49999001  0.50000301  0.50000200  1
  O  O8  1  0.87889702  0.87890702  0.87890001  1
  O  O9  1  0.37890101  0.37890801  0.37889800  1
  O  O10  1  0.62109701  0.62109301  0.62109801  1
  O  O11  1  0.12108900  0.12110000  0.12109600  1
  O  O12  1  0.62109700  0.13670900  0.62110300  1
  O  O13  1  0.12109602  0.63671101  0.12109100  1
  O  O14  1  0.87890800  0.36329001  0.87890201  1
  O  O15  1  0.37890802  0.86328502  0.37890201  1
  O  O16  1  0.13670702  0.62109201  0.62110100  1
  O  O17  1  0.63671600  0.12109600  0.12109501  1
  O  O18  1  0.36329602  0.87890702  0.87889900  1
  O  O19  1  0.86329700  0.37890801  0.37890001  1
