# generated using pymatgen
data_NaCO3
_symmetry_space_group_name_H-M   'P 1'
_cell_length_a   4.72132254
_cell_length_b   4.72132254
_cell_length_c   5.76844549
_cell_angle_alpha   65.84308624
_cell_angle_beta   65.84308624
_cell_angle_gamma   59.99999619
_symmetry_Int_Tables_number   1
_chemical_formula_structural   NaCO3
_chemical_formula_sum   'Na2 C2 O6'
_cell_volume   98.13940725
_cell_formula_units_Z   2
loop_
 _symmetry_equiv_pos_site_id
 _symmetry_equiv_pos_as_xyz
  1  'x, y, z'
loop_
 _atom_site_type_symbol
 _atom_site_label
 _atom_site_symmetry_multiplicity
 _atom_site_fract_x
 _atom_site_fract_y
 _atom_site_fract_z
 _atom_site_occupancy
  Na  Na0  1  0.50000000  0.49999998  0.50000002  1
  Na  Na1  1  0.00000000  0.00000000  0.00000000  1
  C  C2  1  0.75000000  0.74999997  0.75000002  1
  C  C3  1  0.25000000  0.24999999  0.25000001  1
  O  O4  1  0.74999999  0.47504798  0.75000003  1
  O  O5  1  0.02495202  0.74999997  0.75000002  1
  O  O6  1  0.52495201  0.97504795  0.25000001  1
  O  O7  1  0.25000001  0.52495198  0.25000001  1
  O  O8  1  0.97504798  0.24999999  0.25000001  1
  O  O9  1  0.47504799  0.02495200  0.75000003  1
