# generated using pymatgen
data_Li2VO4
_symmetry_space_group_name_H-M   'P 1'
_cell_length_a   5.37266922
_cell_length_b   5.63266516
_cell_length_c   5.86708689
_cell_angle_alpha   118.45425415
_cell_angle_beta   90.00000000
_cell_angle_gamma   90.00000000
_symmetry_Int_Tables_number   1
_chemical_formula_structural   Li2VO4
_chemical_formula_sum   'Li4 V2 O8'
_cell_volume   156.10368389
_cell_formula_units_Z   2
loop_
 _symmetry_equiv_pos_site_id
 _symmetry_equiv_pos_as_xyz
  1  'x, y, z'
loop_
 _atom_site_type_symbol
 _atom_site_label
 _atom_site_symmetry_multiplicity
 _atom_site_fract_x
 _atom_site_fract_y
 _atom_site_fract_z
 _atom_site_occupancy
  Li  Li0  1  0.34709799  0.65284600  0.17752704  1
  Li  Li1  1  0.29705299  0.87239700  0.81946004  1
  Li  Li2  1  0.79705297  0.12760300  0.18054001  1
  Li  Li3  1  0.84709797  0.34715400  0.82247301  1
  V  V4  1  0.82783797  0.74504500  0.49688504  1
  V  V5  1  0.32783799  0.25495500  0.50311501  1
  O  O6  1  0.00019900  0.01064900  0.37886800  1
  O  O7  1  0.46552898  0.98482200  0.14491206  1
  O  O8  1  0.67780197  0.49331000  0.14719303  1
  O  O9  1  0.17560099  0.54098000  0.40305103  1
  O  O10  1  0.67560097  0.45902000  0.59694902  1
  O  O11  1  0.17780199  0.50669000  0.85280702  1
  O  O12  1  0.96552896  0.01517800  0.85508799  1
  O  O13  1  0.50019898  0.98935100  0.62113205  1
