# generated using pymatgen
data_Li3CoS4
_symmetry_space_group_name_H-M   'P 1'
_cell_length_a   5.43536377
_cell_length_b   6.67474031
_cell_length_c   10.18119907
_cell_angle_alpha   90.25448608
_cell_angle_beta   105.46653748
_cell_angle_gamma   114.00179291
_symmetry_Int_Tables_number   1
_chemical_formula_structural   Li3CoS4
_chemical_formula_sum   'Li6 Co2 S8'
_cell_volume   322.52662626
_cell_formula_units_Z   2
loop_
 _symmetry_equiv_pos_site_id
 _symmetry_equiv_pos_as_xyz
  1  'x, y, z'
loop_
 _atom_site_type_symbol
 _atom_site_label
 _atom_site_symmetry_multiplicity
 _atom_site_fract_x
 _atom_site_fract_y
 _atom_site_fract_z
 _atom_site_occupancy
  Li  Li0  1  0.37499405  0.62502203  0.12470599  1
  Li  Li1  1  0.87491904  0.12501401  0.62518795  1
  Li  Li2  1  0.62366605  0.37349402  0.87326295  1
  Li  Li3  1  0.12611706  0.87639104  0.37661398  1
  Li  Li4  1  0.99714503  0.00039300  0.99847293  1
  Li  Li5  1  0.50273805  0.49966302  0.50145797  1
  Co  Co6  1  0.25102006  0.75028403  0.74798596  1
  Co  Co7  1  0.74872804  0.24974601  0.25204997  1
  S  S8  1  0.42405503  0.30733201  0.05072099  1
  S  S9  1  0.91856309  0.82129503  0.55350396  1
  S  S10  1  0.20594005  0.57753302  0.32132698  1
  S  S11  1  0.71379503  0.08044100  0.81217895  1
  S  S12  1  0.30725304  0.41439002  0.68328896  1
  S  S13  1  0.82919909  0.93048704  0.18606998  1
  S  S14  1  0.04383305  0.68534103  0.94189496  1
  S  S15  1  0.55803603  0.18317401  0.45127597  1
