# generated using pymatgen
data_NaLi2
_symmetry_space_group_name_H-M   'P 1'
_cell_length_a   4.56867790
_cell_length_b   4.56867790
_cell_length_c   5.44575500
_cell_angle_alpha   90.00000000
_cell_angle_beta   90.00000000
_cell_angle_gamma   120.00000000
_symmetry_Int_Tables_number   1
_chemical_formula_structural   NaLi2
_chemical_formula_sum   'Na1 Li2'
_cell_volume   98.43959371
_cell_formula_units_Z   1
loop_
 _symmetry_equiv_pos_site_id
 _symmetry_equiv_pos_as_xyz
  1  'x, y, z'
loop_
 _atom_site_type_symbol
 _atom_site_label
 _atom_site_symmetry_multiplicity
 _atom_site_fract_x
 _atom_site_fract_y
 _atom_site_fract_z
 _atom_site_occupancy
  Li  Li0  1  0.00000000  0.00000000  0.00000000  1
  Na  Na1  1  0.66666667  0.33333332  0.50000000  1
  Li  Li2  1  0.33333332  0.66666665  0.50000000  1
