# generated using pymatgen
data_NaLi(PO4)2
_symmetry_space_group_name_H-M   'P 1'
_cell_length_a   4.85576630
_cell_length_b   4.85576630
_cell_length_c   7.45585299
_cell_angle_alpha   87.29094696
_cell_angle_beta   87.29094696
_cell_angle_gamma   65.70999146
_symmetry_Int_Tables_number   1
_chemical_formula_structural   NaLi(PO4)2
_chemical_formula_sum   'Na1 Li1 P2 O8'
_cell_volume   159.98127886
_cell_formula_units_Z   1
loop_
 _symmetry_equiv_pos_site_id
 _symmetry_equiv_pos_as_xyz
  1  'x, y, z'
loop_
 _atom_site_type_symbol
 _atom_site_label
 _atom_site_symmetry_multiplicity
 _atom_site_fract_x
 _atom_site_fract_y
 _atom_site_fract_z
 _atom_site_occupancy
  Na  Na0  1  0.00000000  0.00000000  0.50000001  1
  Li  Li1  1  0.00000000  0.00000000  0.00000000  1
  P  P2  1  0.63521906  0.63521901  0.21642496  1
  P  P3  1  0.36478104  0.36478101  0.78357499  1
  O  O4  1  0.69905507  0.69905501  0.40349196  1
  O  O5  1  0.30094503  0.30094500  0.59650799  1
  O  O6  1  0.76808605  0.28504400  0.19212397  1
  O  O7  1  0.23191405  0.71495601  0.80787598  1
  O  O8  1  0.71495604  0.23191400  0.80787598  1
  O  O9  1  0.28504406  0.76808601  0.19212397  1
  O  O10  1  0.77103608  0.77103601  0.06233895  1
  O  O11  1  0.22896402  0.22896400  0.93766100  1
