# generated using pymatgen
data_HfMg3Mo2(WO6)2
_symmetry_space_group_name_H-M   'P 1'
_cell_length_a   5.33165312
_cell_length_b   5.45690823
_cell_length_c   7.83945417
_cell_angle_alpha   90.00000000
_cell_angle_beta   90.00000000
_cell_angle_gamma   90.00000000
_symmetry_Int_Tables_number   1
_chemical_formula_structural   HfMg3Mo2(WO6)2
_chemical_formula_sum   'Hf1 Mg3 Mo2 W2 O12'
_cell_volume   228.08375894
_cell_formula_units_Z   1
loop_
 _symmetry_equiv_pos_site_id
 _symmetry_equiv_pos_as_xyz
  1  'x, y, z'
loop_
 _atom_site_type_symbol
 _atom_site_label
 _atom_site_symmetry_multiplicity
 _atom_site_fract_x
 _atom_site_fract_y
 _atom_site_fract_z
 _atom_site_occupancy
  Hf  Hf0  1  0.99938698  0.95644396  0.74999998  1
  Mg  Mg1  1  0.50061299  0.45644398  0.74999998  1
  Mg  Mg2  1  0.49938699  0.54355598  0.24999999  1
  Mg  Mg3  1  0.00061300  0.04355600  0.24999999  1
  Mo  Mo4  1  0.00000000  0.49999998  -0.00000000  1
  Mo  Mo5  1  0.00000000  0.49999998  0.49999999  1
  W  W6  1  0.49999999  0.00000000  0.49999999  1
  W  W7  1  0.49999999  0.00000000  0.00000000  1
  O  O8  1  0.13556700  0.41301098  0.24999999  1
  O  O9  1  0.17130800  0.17640399  0.57194099  1
  O  O10  1  0.17130800  0.17640399  0.92805898  1
  O  O11  1  0.32869199  0.67640397  0.57194099  1
  O  O12  1  0.32869199  0.67640397  0.92805898  1
  O  O13  1  0.36443299  0.91301096  0.24999999  1
  O  O14  1  0.63556699  0.08698900  0.74999998  1
  O  O15  1  0.67130799  0.32359599  0.07194100  1
  O  O16  1  0.67130799  0.32359599  0.42805899  1
  O  O17  1  0.82869198  0.82359597  0.07194100  1
  O  O18  1  0.82869198  0.82359597  0.42805899  1
  O  O19  1  0.86443298  0.58698898  0.74999998  1
