# generated using pymatgen
data_K2NbCu5S8
_symmetry_space_group_name_H-M   'P 1'
_cell_length_a   5.52530003
_cell_length_b   7.49888992
_cell_length_c   9.61664867
_cell_angle_alpha   90.00000000
_cell_angle_beta   106.69505310
_cell_angle_gamma   90.00000000
_symmetry_Int_Tables_number   1
_chemical_formula_structural   K2NbCu5S8
_chemical_formula_sum   'K2 Nb1 Cu5 S8'
_cell_volume   381.65668555
_cell_formula_units_Z   1
loop_
 _symmetry_equiv_pos_site_id
 _symmetry_equiv_pos_as_xyz
  1  'x, y, z'
loop_
 _atom_site_type_symbol
 _atom_site_label
 _atom_site_symmetry_multiplicity
 _atom_site_fract_x
 _atom_site_fract_y
 _atom_site_fract_z
 _atom_site_occupancy
  K  K0  1  0.18829400  0.75000001  0.36208400  1
  K  K1  1  0.82620999  0.25000000  0.63791600  1
  Nb  Nb2  1  0.64005999  0.75000001  0.77627100  1
  Cu  Cu3  1  0.86378899  0.25000000  0.22372899  1
  Cu  Cu4  1  0.14647200  0.75000001  0.78839400  1
  Cu  Cu5  1  0.35807800  0.25000000  0.21160600  1
  Cu  Cu6  1  0.72937299  0.00000000  1.00000000  1
  Cu  Cu7  1  0.72937299  0.50000001  1.00000000  1
  S  S8  1  0.98038899  0.75000001  0.98803700  1
  S  S9  1  0.99235199  0.25000000  0.01196299  1
  S  S10  1  0.39936600  0.00012800  0.78603500  1
  S  S11  1  0.61333099  0.99987201  0.21396500  1
  S  S12  1  0.39936600  0.49987201  0.78603500  1
  S  S13  1  0.61333099  0.50012801  0.21396500  1
  S  S14  1  0.79814999  0.75000001  0.57988500  1
  S  S15  1  0.21826500  0.25000000  0.42011500  1
