# generated using pymatgen
data_Cs7BOsNCl9O
_symmetry_space_group_name_H-M   'P 1'
_cell_length_a   9.43376446
_cell_length_b   9.43376446
_cell_length_c   9.43376541
_cell_angle_alpha   107.28977203
_cell_angle_beta   107.28977203
_cell_angle_gamma   107.28977203
_symmetry_Int_Tables_number   1
_chemical_formula_structural   Cs7BOsNCl9O
_chemical_formula_sum   'Cs7 B1 Os1 N1 Cl9 O1'
_cell_volume   693.59791666
_cell_formula_units_Z   1
loop_
 _symmetry_equiv_pos_site_id
 _symmetry_equiv_pos_as_xyz
  1  'x, y, z'
loop_
 _atom_site_type_symbol
 _atom_site_label
 _atom_site_symmetry_multiplicity
 _atom_site_fract_x
 _atom_site_fract_y
 _atom_site_fract_z
 _atom_site_occupancy
  Cs  Cs0  1  0.50000002  0.50000002  0.49999998  1
  Cs  Cs1  1  0.08805900  0.02260300  0.27895299  1
  Cs  Cs2  1  0.02260301  0.27895301  0.08805900  1
  Cs  Cs3  1  0.27895301  0.08805900  0.02260300  1
  Cs  Cs4  1  0.91194104  0.97739703  0.72104697  1
  Cs  Cs5  1  0.97739704  0.72104703  0.91194096  1
  Cs  Cs6  1  0.72104704  0.91194103  0.97739696  1
  B  B7  1  0.00000000  0.00000000  0.00000000  1
  Cl  Cl8  1  0.77857704  0.92840603  0.31279698  1
  Cl  Cl9  1  0.92840603  0.31279701  0.77857697  1
  Cl  Cl10  1  0.31279702  0.77857703  0.92840597  1
  Cl  Cl11  1  0.22142301  0.07159400  0.68720298  1
  Cl  Cl12  1  0.07159401  0.68720302  0.22142299  1
  Cl  Cl13  1  0.68720302  0.22142301  0.07159399  1
  Os  Os14  1  0.16043501  0.38265001  0.45499399  1
  Cl  Cl15  1  0.38265002  0.45499402  0.16043499  1
  N  N16  1  0.45499402  0.16043501  0.38264998  1
  Cl  Cl17  1  0.83956503  0.61735002  0.54500597  1
  Cl  Cl18  1  0.61735003  0.54500602  0.83956497  1
  O  O19  1  0.54500603  0.83956503  0.61734997  1
