# generated using pymatgen
data_CsH14N5
_symmetry_space_group_name_H-M   'P 1'
_cell_length_a   4.86260223
_cell_length_b   6.78590679
_cell_length_c   15.65745831
_cell_angle_alpha   85.97641754
_cell_angle_beta   81.06692505
_cell_angle_gamma   69.00498199
_symmetry_Int_Tables_number   1
_chemical_formula_structural   CsH14N5
_chemical_formula_sum   'Cs1 H14 N5'
_cell_volume   476.44215741
_cell_formula_units_Z   1
loop_
 _symmetry_equiv_pos_site_id
 _symmetry_equiv_pos_as_xyz
  1  'x, y, z'
loop_
 _atom_site_type_symbol
 _atom_site_label
 _atom_site_symmetry_multiplicity
 _atom_site_fract_x
 _atom_site_fract_y
 _atom_site_fract_z
 _atom_site_occupancy
  Cs  Cs0  1  0.44113605  0.80472398  0.54122600  1
  H  H1  1  0.78708602  0.69527598  0.95877400  1
  H  H2  1  0.55886399  0.19527599  0.45877400  1
  H  H3  1  0.21291401  0.30472399  0.04122600  1
  H  H4  1  0.50582104  0.79461298  0.65275200  1
  H  H5  1  0.95318601  0.70538698  0.84724800  1
  H  H6  1  0.49417899  0.20538699  0.34724800  1
  H  H7  1  0.04681402  0.29461299  0.15275200  1
  N  N8  1  0.34646005  0.80483298  0.60913900  1
  H  H9  1  0.76043202  0.69516698  0.89086100  1
  H  H10  1  0.65353998  0.19516699  0.39086100  1
  N  N11  1  0.23956801  0.30483299  0.10913900  1
  N  N12  1  0.24465803  0.54960798  0.63005200  1
  H  H13  1  0.42431806  0.95039197  0.86994800  1
  N  N14  1  0.75534200  0.45039199  0.36994800  1
  H  H15  1  0.57568197  0.04960800  0.13005200  1
  N  N16  1  0.03433800  0.03827200  0.63016999  1
  H  H17  1  0.70278000  0.46172799  0.86983000  1
  H  H18  1  0.96566203  0.96172797  0.36983001  1
  H  H19  1  0.29722003  0.53827198  0.13017001  1
