# generated using pymatgen
data_AlVMo2P(HO4)3
_symmetry_space_group_name_H-M   'P 1'
_cell_length_a   5.03041077
_cell_length_b   5.95028210
_cell_length_c   8.45180893
_cell_angle_alpha   104.97579193
_cell_angle_beta   90.00000000
_cell_angle_gamma   90.00000000
_symmetry_Int_Tables_number   1
_chemical_formula_structural   AlVMo2P(HO4)3
_chemical_formula_sum   'Al1 V1 Mo2 P1 H3 O12'
_cell_volume   244.39008319
_cell_formula_units_Z   1
loop_
 _symmetry_equiv_pos_site_id
 _symmetry_equiv_pos_as_xyz
  1  'x, y, z'
loop_
 _atom_site_type_symbol
 _atom_site_label
 _atom_site_symmetry_multiplicity
 _atom_site_fract_x
 _atom_site_fract_y
 _atom_site_fract_z
 _atom_site_occupancy
  Al  Al0  1  0.00903400  0.68760598  0.99621299  1
  V  V1  1  0.52849102  0.13658800  0.57917200  1
  Mo  Mo2  1  0.02849100  0.86341198  0.42082798  1
  Mo  Mo3  1  0.50903402  0.31239399  0.00378699  1
  P  P4  1  0.13438401  0.68733798  0.64387198  1
  H  H5  1  0.45737502  0.48766599  0.48532599  1
  H  H6  1  0.95737504  0.51233399  0.51467399  1
  H  H7  1  0.63438403  0.31266199  0.35612799  1
  O  O8  1  0.51658802  0.87889398  0.19762497  1
  O  O9  1  0.01658800  0.12110600  0.80237500  1
  O  O10  1  0.11226101  0.87196498  0.84224998  1
  O  O11  1  0.61861403  0.38865399  0.47537299  1
  O  O12  1  0.13272301  0.34819699  0.94700100  1
  O  O13  1  0.18501401  0.85899298  0.20667597  1
  O  O14  1  0.63657003  0.87387798  0.38203397  1
  O  O15  1  0.13657001  0.12612200  0.61796600  1
  O  O16  1  0.68501403  0.14100700  0.79332400  1
  O  O17  1  0.63272303  0.65180298  0.05299898  1
  O  O18  1  0.11861401  0.61134598  0.52462698  1
  O  O19  1  0.61226103  0.12803500  0.15775000  1
