# generated using pymatgen
data_Li4VO5
_symmetry_space_group_name_H-M   'P 1'
_cell_length_a   2.88656211
_cell_length_b   5.87858582
_cell_length_c   11.00619507
_cell_angle_alpha   97.57031250
_cell_angle_beta   97.53509521
_cell_angle_gamma   90.00000000
_symmetry_Int_Tables_number   1
_chemical_formula_structural   Li4VO5
_chemical_formula_sum   'Li8 V2 O10'
_cell_volume   183.50816231
_cell_formula_units_Z   2
loop_
 _symmetry_equiv_pos_site_id
 _symmetry_equiv_pos_as_xyz
  1  'x, y, z'
loop_
 _atom_site_type_symbol
 _atom_site_label
 _atom_site_symmetry_multiplicity
 _atom_site_fract_x
 _atom_site_fract_y
 _atom_site_fract_z
 _atom_site_occupancy
  Li  Li0  1  0.59718997  0.29825099  0.19437999  1
  Li  Li1  1  0.80768095  0.91383497  0.61536197  1
  Li  Li2  1  0.21179299  0.10985800  0.42358598  1
  Li  Li3  1  0.40172197  0.70803898  0.80344397  1
  Li  Li4  1  0.98630295  0.48692799  0.97260595  1
  Li  Li5  1  0.39907098  0.19290999  0.79814196  1
  Li  Li6  1  0.99225394  0.99893497  0.98450796  1
  Li  Li7  1  0.20267898  0.59778098  0.40535799  1
  V  V8  1  0.59844096  0.80098698  0.19688199  1
  V  V9  1  0.81451896  0.39506999  0.62903797  1
  O  O10  1  0.50030397  0.22375499  0.00060799  1
  O  O11  1  0.70118596  0.82335798  0.40237198  1
  O  O12  1  0.09126000  0.02318700  0.18251999  1
  O  O13  1  0.28981098  0.62528298  0.57962198  1
  O  O14  1  0.89626995  0.45701299  0.79253996  1
  O  O15  1  0.69537096  0.37382399  0.39074198  1
  O  O16  1  0.90873095  0.95681897  0.81746196  1
  O  O17  1  0.30136198  0.16319800  0.60272397  1
  O  O18  1  0.49741397  0.77371698  0.99482796  1
  O  O19  1  0.10663899  0.57725398  0.21327800  1
