# generated using pymatgen
data_Cs3TlF6
_symmetry_space_group_name_H-M   'P 1'
_cell_length_a   7.32660198
_cell_length_b   7.61943579
_cell_length_c   10.53205109
_cell_angle_alpha   90.00000000
_cell_angle_beta   90.00000000
_cell_angle_gamma   90.00000000
_symmetry_Int_Tables_number   1
_chemical_formula_structural   Cs3TlF6
_chemical_formula_sum   'Cs6 Tl2 F12'
_cell_volume   587.94725831
_cell_formula_units_Z   2
loop_
 _symmetry_equiv_pos_site_id
 _symmetry_equiv_pos_as_xyz
  1  'x, y, z'
loop_
 _atom_site_type_symbol
 _atom_site_label
 _atom_site_symmetry_multiplicity
 _atom_site_fract_x
 _atom_site_fract_y
 _atom_site_fract_z
 _atom_site_occupancy
  Cs  Cs0  1  0.01687200  0.43593901  0.25000000  1
  Cs  Cs1  1  0.98312800  0.56406102  0.74999999  1
  Cs  Cs2  1  0.51687200  0.06406100  0.74999999  1
  Cs  Cs3  1  0.48312800  0.93593903  0.25000000  1
  Cs  Cs4  1  0.00000000  0.00000000  0.00000000  1
  Cs  Cs5  1  0.50000000  0.50000001  -0.00000000  1
  Tl  Tl6  1  0.00000000  0.00000000  0.50000000  1
  Tl  Tl7  1  0.50000000  0.50000001  0.50000000  1
  F  F8  1  0.30402400  0.19942401  0.05074600  1
  F  F9  1  0.69597600  0.80057602  0.94925399  1
  F  F10  1  0.80402400  0.30057601  0.94925399  1
  F  F11  1  0.69597600  0.80057602  0.55074600  1
  F  F12  1  0.19597600  0.69942402  0.05074600  1
  F  F13  1  0.30402400  0.19942401  0.44925400  1
  F  F14  1  0.19597600  0.69942402  0.44925400  1
  F  F15  1  0.80402400  0.30057601  0.55074600  1
  F  F16  1  0.59888600  0.53237401  0.25000000  1
  F  F17  1  0.40111400  0.46762601  0.74999999  1
  F  F18  1  0.09888600  0.96762603  0.74999999  1
  F  F19  1  0.90111400  0.03237400  0.25000000  1
