# generated using pymatgen
data_KPrTl3S4
_symmetry_space_group_name_H-M   'P 1'
_cell_length_a   7.66044617
_cell_length_b   7.66044617
_cell_length_c   7.66044617
_cell_angle_alpha   106.82501221
_cell_angle_beta   110.81031036
_cell_angle_gamma   110.81031036
_symmetry_Int_Tables_number   1
_chemical_formula_structural   KPrTl3S4
_chemical_formula_sum   'K1 Pr1 Tl3 S4'
_cell_volume   345.50075620
_cell_formula_units_Z   1
loop_
 _symmetry_equiv_pos_site_id
 _symmetry_equiv_pos_as_xyz
  1  'x, y, z'
loop_
 _atom_site_type_symbol
 _atom_site_label
 _atom_site_symmetry_multiplicity
 _atom_site_fract_x
 _atom_site_fract_y
 _atom_site_fract_z
 _atom_site_occupancy
  Tl  Tl0  1  0.50000002  0.75000000  0.25000003  1
  K  K1  1  0.50000000  0.25000000  0.74999999  1
  Pr  Pr2  1  0.00000000  0.00000000  0.00000000  1
  Tl  Tl3  1  0.00000001  0.34238700  0.34238700  1
  Tl  Tl4  1  0.00000003  0.65761300  0.65761300  1
  S  S5  1  0.59637602  0.79818800  0.79818801  1
  S  S6  1  0.00000003  0.79818800  0.20181202  1
  S  S7  1  0.00000001  0.20181200  0.79818798  1
  S  S8  1  0.40362400  0.20181200  0.20181201  1
