# generated using pymatgen
data_LaF3
_symmetry_space_group_name_H-M   'P 1'
_cell_length_a   5.03605318
_cell_length_b   5.90977716
_cell_length_c   7.27018499
_cell_angle_alpha   90.00000000
_cell_angle_beta   90.00000000
_cell_angle_gamma   90.00000000
_symmetry_Int_Tables_number   1
_chemical_formula_structural   LaF3
_chemical_formula_sum   'La4 F12'
_cell_volume   216.37489744
_cell_formula_units_Z   4
loop_
 _symmetry_equiv_pos_site_id
 _symmetry_equiv_pos_as_xyz
  1  'x, y, z'
loop_
 _atom_site_type_symbol
 _atom_site_label
 _atom_site_symmetry_multiplicity
 _atom_site_fract_x
 _atom_site_fract_y
 _atom_site_fract_z
 _atom_site_occupancy
  La  La0  1  0.96076197  0.62938898  0.75000000  1
  La  La1  1  0.46076198  0.87061098  0.25000000  1
  La  La2  1  0.53923798  0.12938900  0.75000000  1
  La  La3  1  0.03923800  0.37061099  0.25000000  1
  F  F4  1  0.33079899  0.15805800  0.42970900  1
  F  F5  1  0.83079897  0.34194199  0.57029100  1
  F  F6  1  0.16920099  0.65805798  0.07029100  1
  F  F7  1  0.66920098  0.84194198  0.92970900  1
  F  F8  1  0.64280998  0.54016798  0.25000000  1
  F  F9  1  0.14280999  0.95983197  0.75000000  1
  F  F10  1  0.85718997  0.04016800  0.25000000  1
  F  F11  1  0.35718999  0.45983199  0.75000000  1
  F  F12  1  0.33079899  0.15805800  0.07029100  1
  F  F13  1  0.83079897  0.34194199  0.92970900  1
  F  F14  1  0.16920099  0.65805798  0.42970900  1
  F  F15  1  0.66920098  0.84194198  0.57029100  1
