# generated using pymatgen
data_K3TlCl6
_symmetry_space_group_name_H-M   'P 1'
_cell_length_a   9.01007843
_cell_length_b   9.02832031
_cell_length_c   10.00382519
_cell_angle_alpha   81.76174927
_cell_angle_beta   72.91648102
_cell_angle_gamma   60.49078751
_symmetry_Int_Tables_number   1
_chemical_formula_structural   K3TlCl6
_chemical_formula_sum   'K6 Tl2 Cl12'
_cell_volume   676.95613254
_cell_formula_units_Z   2
loop_
 _symmetry_equiv_pos_site_id
 _symmetry_equiv_pos_as_xyz
  1  'x, y, z'
loop_
 _atom_site_type_symbol
 _atom_site_label
 _atom_site_symmetry_multiplicity
 _atom_site_fract_x
 _atom_site_fract_y
 _atom_site_fract_z
 _atom_site_occupancy
  K  K0  1  0.73545699  0.87092499  0.38332993  1
  K  K1  1  0.26030799  0.14267500  0.60731396  1
  K  K2  1  0.96991997  0.18544000  0.37486194  1
  K  K3  1  0.02100101  0.80857599  0.60884495  1
  K  K4  1  0.62057699  0.55227999  0.60034193  1
  K  K5  1  0.39282299  0.43934700  0.40512495  1
  Tl  Tl6  1  0.87213598  0.51258999  0.85824691  1
  Tl  Tl7  1  0.11361100  0.49571499  0.14909797  1
  Cl  Cl8  1  0.75043299  0.90689699  0.01566694  1
  Cl  Cl9  1  0.23783299  0.12296200  0.99820895  1
  Cl  Cl10  1  0.57638798  0.37402400  0.05515096  1
  Cl  Cl11  1  0.24661200  0.78923799  0.89021193  1
  Cl  Cl12  1  0.58562098  0.17355600  0.74388894  1
  Cl  Cl13  1  0.41876800  0.82257099  0.25024395  1
  Cl  Cl14  1  0.28862000  0.44722900  0.76701994  1
  Cl  Cl15  1  0.71500098  0.55571399  0.23791494  1
  Cl  Cl16  1  0.59815399  0.88286599  0.74057592  1
  Cl  Cl17  1  0.38889799  0.12317100  0.25910097  1
  Cl  Cl18  1  0.86386697  0.17704200  0.75585493  1
  Cl  Cl19  1  0.15335201  0.80044099  0.23761596  1
