# generated using pymatgen
data_YS
_symmetry_space_group_name_H-M   'P 1'
_cell_length_a   4.44063187
_cell_length_b   4.44063187
_cell_length_c   7.66452885
_cell_angle_alpha   73.16076660
_cell_angle_beta   73.16076660
_cell_angle_gamma   60.00000000
_symmetry_Int_Tables_number   1
_chemical_formula_structural   YS
_chemical_formula_sum   'Y2 S2'
_cell_volume   123.34984952
_cell_formula_units_Z   2
loop_
 _symmetry_equiv_pos_site_id
 _symmetry_equiv_pos_as_xyz
  1  'x, y, z'
loop_
 _atom_site_type_symbol
 _atom_site_label
 _atom_site_symmetry_multiplicity
 _atom_site_fract_x
 _atom_site_fract_y
 _atom_site_fract_z
 _atom_site_occupancy
  Y  Y0  1  0.00015800  0.00015800  0.99952597  1
  Y  Y1  1  0.49998102  0.49998102  0.50005699  1
  S  S2  1  0.12613600  0.12613600  0.62159198  1
  S  S3  1  0.62372502  0.62372502  0.12882500  1
