# generated using pymatgen
data_NaNbO3
_symmetry_space_group_name_H-M   'P 1'
_cell_length_a   3.98753095
_cell_length_b   4.12278795
_cell_length_c   4.12278795
_cell_angle_alpha   89.51175690
_cell_angle_beta   90.00000000
_cell_angle_gamma   90.00000000
_symmetry_Int_Tables_number   1
_chemical_formula_structural   NaNbO3
_chemical_formula_sum   'Na1 Nb1 O3'
_cell_volume   67.77511994
_cell_formula_units_Z   1
loop_
 _symmetry_equiv_pos_site_id
 _symmetry_equiv_pos_as_xyz
  1  'x, y, z'
loop_
 _atom_site_type_symbol
 _atom_site_label
 _atom_site_symmetry_multiplicity
 _atom_site_fract_x
 _atom_site_fract_y
 _atom_site_fract_z
 _atom_site_occupancy
  Na  Na0  1  0.00000000  0.99252105  0.99252102  1
  Nb  Nb1  1  0.50000001  0.47548602  0.47548601  1
  O  O2  1  0.50000001  0.02701300  0.50961202  1
  O  O3  1  0.50000001  0.50961202  0.02701298  1
  O  O4  1  -0.00000000  0.51546802  0.51546801  1
