# generated using pymatgen
data_Na2PrCl6
_symmetry_space_group_name_H-M   'P 1'
_cell_length_a   7.68905687
_cell_length_b   8.03987026
_cell_length_c   10.83672142
_cell_angle_alpha   90.00000000
_cell_angle_beta   89.75418091
_cell_angle_gamma   90.00000000
_symmetry_Int_Tables_number   1
_chemical_formula_structural   Na2PrCl6
_chemical_formula_sum   'Na4 Pr2 Cl12'
_cell_volume   669.90932936
_cell_formula_units_Z   2
loop_
 _symmetry_equiv_pos_site_id
 _symmetry_equiv_pos_as_xyz
  1  'x, y, z'
loop_
 _atom_site_type_symbol
 _atom_site_label
 _atom_site_symmetry_multiplicity
 _atom_site_fract_x
 _atom_site_fract_y
 _atom_site_fract_z
 _atom_site_occupancy
  Na  Na0  1  0.51587701  0.07223100  0.75097701  1
  Na  Na1  1  0.98412302  0.57223098  0.74902301  1
  Na  Na2  1  0.48412301  0.92776897  0.24902300  1
  Na  Na3  1  0.01587700  0.42776899  0.25097701  1
  Pr  Pr4  1  0.50000001  0.49999998  0.50000001  1
  Pr  Pr5  1  0.00000000  0.00000000  0.00000000  1
  Cl  Cl6  1  0.58011901  0.51442698  0.25368900  1
  Cl  Cl7  1  0.41988101  0.48557298  0.74631102  1
  Cl  Cl8  1  0.70838401  0.81146897  0.95640802  1
  Cl  Cl9  1  0.08011900  0.98557297  0.75368902  1
  Cl  Cl10  1  0.29161600  0.18853099  0.04359200  1
  Cl  Cl11  1  0.20838400  0.68853098  0.45640801  1
  Cl  Cl12  1  0.81339301  0.28651199  0.96125802  1
  Cl  Cl13  1  0.68660701  0.78651197  0.53874201  1
  Cl  Cl14  1  0.18660700  0.71348798  0.03874200  1
  Cl  Cl15  1  0.31339301  0.21348799  0.46125801  1
  Cl  Cl16  1  0.79161601  0.31146899  0.54359200  1
  Cl  Cl17  1  0.91988102  0.01442700  0.24631099  1
