# generated using pymatgen
data_NaLuO2
_symmetry_space_group_name_H-M   'P 1'
_cell_length_a   4.64961576
_cell_length_b   4.64961576
_cell_length_c   5.66806316
_cell_angle_alpha   114.21483612
_cell_angle_beta   114.21483612
_cell_angle_gamma   90.00000000
_symmetry_Int_Tables_number   1
_chemical_formula_structural   NaLuO2
_chemical_formula_sum   'Na2 Lu2 O4'
_cell_volume   99.81642037
_cell_formula_units_Z   2
loop_
 _symmetry_equiv_pos_site_id
 _symmetry_equiv_pos_as_xyz
  1  'x, y, z'
loop_
 _atom_site_type_symbol
 _atom_site_label
 _atom_site_symmetry_multiplicity
 _atom_site_fract_x
 _atom_site_fract_y
 _atom_site_fract_z
 _atom_site_occupancy
  Na  Na0  1  0.00000000  0.00000000  0.00000000  1
  Na  Na1  1  0.25000005  0.75000006  0.50000004  1
  Lu  Lu2  1  0.50000006  0.50000004  0.00000005  1
  Lu  Lu3  1  0.75000006  0.25000002  0.50000003  1
  O  O4  1  0.00000002  0.50000004  0.00000003  1
  O  O5  1  0.25807803  0.25807802  0.51615601  1
  O  O6  1  0.50000003  0.00000000  0.00000002  1
  O  O7  1  0.74192209  0.74192206  0.48384406  1
