# generated using pymatgen
data_PrNd3F12
_symmetry_space_group_name_H-M   'P 1'
_cell_length_a   3.71956611
_cell_length_b   6.26019287
_cell_length_c   12.18911839
_cell_angle_alpha   90.00000000
_cell_angle_beta   90.00000000
_cell_angle_gamma   90.00000000
_symmetry_Int_Tables_number   1
_chemical_formula_structural   PrNd3F12
_chemical_formula_sum   'Pr1 Nd3 F12'
_cell_volume   283.82607436
_cell_formula_units_Z   1
loop_
 _symmetry_equiv_pos_site_id
 _symmetry_equiv_pos_as_xyz
  1  'x, y, z'
loop_
 _atom_site_type_symbol
 _atom_site_label
 _atom_site_symmetry_multiplicity
 _atom_site_fract_x
 _atom_site_fract_y
 _atom_site_fract_z
 _atom_site_occupancy
  Nd  Nd0  1  0.24999999  0.89668002  0.85637597  1
  Nd  Nd1  1  0.74999998  0.10332000  0.14362400  1
  Nd  Nd2  1  0.24999999  0.39668001  0.64362398  1
  Pr  Pr3  1  0.74999998  0.60332001  0.35637599  1
  F  F4  1  0.74999998  0.40578901  0.89397697  1
  F  F5  1  0.74999998  0.90578902  0.60602298  1
  F  F6  1  0.24999999  0.59421101  0.10602300  1
  F  F7  1  0.24999999  0.09421100  0.39397699  1
  F  F8  1  0.24999999  0.77716902  0.51831198  1
  F  F9  1  0.74999998  0.22283100  0.48168798  1
  F  F10  1  0.24999999  0.27716901  0.98168797  1
  F  F11  1  0.74999998  0.72283101  0.01831200  1
  F  F12  1  0.24999999  0.35903901  0.24775399  1
  F  F13  1  0.74999998  0.14096100  0.74775398  1
  F  F14  1  0.24999999  0.85903902  0.25224599  1
  F  F15  1  0.74999998  0.64096101  0.75224598  1
