# generated using pymatgen
data_La4(CuSe3)3
_symmetry_space_group_name_H-M   'P 1'
_cell_length_a   6.49873877
_cell_length_b   7.52291489
_cell_length_c   7.78923082
_cell_angle_alpha   90.00000000
_cell_angle_beta   90.00000000
_cell_angle_gamma   94.52076721
_symmetry_Int_Tables_number   1
_chemical_formula_structural   La4(CuSe3)3
_chemical_formula_sum   'La4 Cu3 Se9'
_cell_volume   379.62650938
_cell_formula_units_Z   1
loop_
 _symmetry_equiv_pos_site_id
 _symmetry_equiv_pos_as_xyz
  1  'x, y, z'
loop_
 _atom_site_type_symbol
 _atom_site_label
 _atom_site_symmetry_multiplicity
 _atom_site_fract_x
 _atom_site_fract_y
 _atom_site_fract_z
 _atom_site_occupancy
  La  La0  1  0.64302104  0.27529301  0.47197801  1
  La  La1  1  0.35697903  0.22470701  0.97197802  1
  La  La2  1  0.35697906  0.72470702  0.52802201  1
  La  La3  1  0.64302107  0.77529302  0.02802200  1
  Cu  Cu4  1  0.92980309  0.95830102  0.65786001  1
  Cu  Cu5  1  0.92980306  0.45830101  0.84214002  1
  Se  Se6  1  0.07019701  0.04169900  0.34214001  1
  Cu  Cu7  1  0.07019704  0.54169901  0.15786000  1
  Se  Se8  1  0.87708305  0.22141201  0.10651000  1
  Se  Se9  1  0.12291702  0.27858801  0.60651001  1
  Se  Se10  1  0.87708308  0.72141202  0.39349001  1
  Se  Se11  1  0.12291705  0.77858802  0.89349002  1
  Se  Se12  1  0.40754808  0.99985402  0.27140001  1
  Se  Se13  1  0.59245205  0.50014601  0.77140002  1
  Se  Se14  1  0.40754805  0.49985401  0.22860001  1
  Se  Se15  1  0.59245202  0.00014600  0.72860002  1
