# generated using pymatgen
data_BaGdMg2(HO4)2
_symmetry_space_group_name_H-M   'P 1'
_cell_length_a   5.48468208
_cell_length_b   5.48468304
_cell_length_c   6.89719915
_cell_angle_alpha   90.00000000
_cell_angle_beta   90.00000000
_cell_angle_gamma   119.99999237
_symmetry_Int_Tables_number   1
_chemical_formula_structural   BaGdMg2(HO4)2
_chemical_formula_sum   'Ba1 Gd1 Mg2 H2 O8'
_cell_volume   179.68276616
_cell_formula_units_Z   1
loop_
 _symmetry_equiv_pos_site_id
 _symmetry_equiv_pos_as_xyz
  1  'x, y, z'
loop_
 _atom_site_type_symbol
 _atom_site_label
 _atom_site_symmetry_multiplicity
 _atom_site_fract_x
 _atom_site_fract_y
 _atom_site_fract_z
 _atom_site_occupancy
  Ba  Ba0  1  0.00000000  0.00000000  0.49999999  1
  Gd  Gd1  1  0.66666664  0.33333332  0.16167000  1
  Mg  Mg2  1  0.33333330  0.66666664  0.83832998  1
  Mg  Mg3  1  0.00000000  0.00000000  0.00000000  1
  H  H4  1  0.66666664  0.33333332  0.72772798  1
  H  H5  1  0.33333330  0.66666664  0.27227199  1
  O  O6  1  0.66666664  0.33333332  0.49246699  1
  O  O7  1  0.33333330  0.66666664  0.50753299  1
  O  O8  1  0.35400598  0.23705999  0.82414498  1
  O  O9  1  0.88305396  0.64599397  0.82414498  1
  O  O10  1  0.76293998  0.11694599  0.82414498  1
  O  O11  1  0.64599396  0.76293997  0.17585500  1
  O  O12  1  0.11694598  0.35400598  0.17585500  1
  O  O13  1  0.23705996  0.88305396  0.17585500  1
