# generated using pymatgen
data_Li3CoO2
_symmetry_space_group_name_H-M   'P 1'
_cell_length_a   4.35418510
_cell_length_b   6.56205559
_cell_length_c   6.56205559
_cell_angle_alpha   119.23784637
_cell_angle_beta   90.00000000
_cell_angle_gamma   90.00000000
_symmetry_Int_Tables_number   1
_chemical_formula_structural   Li3CoO2
_chemical_formula_sum   'Li6 Co2 O4'
_cell_volume   163.60694090
_cell_formula_units_Z   2
loop_
 _symmetry_equiv_pos_site_id
 _symmetry_equiv_pos_as_xyz
  1  'x, y, z'
loop_
 _atom_site_type_symbol
 _atom_site_label
 _atom_site_symmetry_multiplicity
 _atom_site_fract_x
 _atom_site_fract_y
 _atom_site_fract_z
 _atom_site_occupancy
  Li  Li0  1  0.24999999  0.63201697  0.63201695  1
  Li  Li1  1  0.74999998  0.36798298  0.36798297  1
  Li  Li2  1  0.24999999  0.33538698  0.01589598  1
  Li  Li3  1  0.24999999  0.01589600  0.33538699  1
  Li  Li4  1  0.74999998  0.66461297  0.98410394  1
  Li  Li5  1  0.74999998  0.98410395  0.66461293  1
  Co  Co6  1  0.74999998  0.33076598  0.96367496  1
  Co  Co7  1  0.74999998  0.96367495  0.33076594  1
  O  O8  1  0.24999999  0.66923397  0.03632496  1
  O  O9  1  0.24999999  0.03632500  0.66923398  1
  O  O10  1  0.74999998  0.69097597  0.69097594  1
  O  O11  1  0.24999999  0.30902398  0.30902398  1
