# generated using pymatgen
data_CS
_symmetry_space_group_name_H-M   'P 1'
_cell_length_a   2.46802998
_cell_length_b   2.46803021
_cell_length_c   19.99829292
_cell_angle_alpha   90.00000000
_cell_angle_beta   90.00000000
_cell_angle_gamma   120.00000000
_symmetry_Int_Tables_number   1
_chemical_formula_structural   CS
_chemical_formula_sum   'C1 S1'
_cell_volume   105.49319833
_cell_formula_units_Z   1
loop_
 _symmetry_equiv_pos_site_id
 _symmetry_equiv_pos_as_xyz
  1  'x, y, z'
loop_
 _atom_site_type_symbol
 _atom_site_label
 _atom_site_symmetry_multiplicity
 _atom_site_fract_x
 _atom_site_fract_y
 _atom_site_fract_z
 _atom_site_occupancy
  C  C0  1  0.66666670  0.33333335  1.00000000  1
  S  S1  1  0.33333339  0.66666671  1.00000000  1
