# generated using pymatgen
data_Ba3SrO4
_symmetry_space_group_name_H-M   'P 1'
_cell_length_a   4.91158772
_cell_length_b   4.91158772
_cell_length_c   6.56506014
_cell_angle_alpha   90.00000000
_cell_angle_beta   90.00000000
_cell_angle_gamma   91.95441437
_symmetry_Int_Tables_number   1
_chemical_formula_structural   Ba3SrO4
_chemical_formula_sum   'Ba3 Sr1 O4'
_cell_volume   158.28137167
_cell_formula_units_Z   1
loop_
 _symmetry_equiv_pos_site_id
 _symmetry_equiv_pos_as_xyz
  1  'x, y, z'
loop_
 _atom_site_type_symbol
 _atom_site_label
 _atom_site_symmetry_multiplicity
 _atom_site_fract_x
 _atom_site_fract_y
 _atom_site_fract_z
 _atom_site_occupancy
  Sr  Sr0  1  0.59100408  0.90899604  0.24999999  1
  Ba  Ba1  1  0.90899607  0.59100402  0.74999998  1
  Ba  Ba2  1  0.40899602  0.09100400  0.74999998  1
  Ba  Ba3  1  0.09100403  0.40899602  0.24999999  1
  O  O4  1  0.41312005  0.58688002  0.56909899  1
  O  O5  1  0.08688006  0.91312004  0.06909900  1
  O  O6  1  0.58688005  0.41312002  0.43090099  1
  O  O7  1  0.91312004  0.08688000  0.93090098  1
