# generated using pymatgen
data_Li4Cr2O7
_symmetry_space_group_name_H-M   'P 1'
_cell_length_a   4.97037506
_cell_length_b   6.24551201
_cell_length_c   6.44276094
_cell_angle_alpha   118.99230957
_cell_angle_beta   108.36431122
_cell_angle_gamma   90.00000000
_symmetry_Int_Tables_number   1
_chemical_formula_structural   Li4Cr2O7
_chemical_formula_sum   'Li4 Cr2 O7'
_cell_volume   163.19431252
_cell_formula_units_Z   1
loop_
 _symmetry_equiv_pos_site_id
 _symmetry_equiv_pos_as_xyz
  1  'x, y, z'
loop_
 _atom_site_type_symbol
 _atom_site_label
 _atom_site_symmetry_multiplicity
 _atom_site_fract_x
 _atom_site_fract_y
 _atom_site_fract_z
 _atom_site_occupancy
  Li  Li0  1  0.66240803  0.72388001  0.44776004  1
  Li  Li1  1  0.33759201  0.27612000  0.55224002  1
  Li  Li2  1  0.50000001  0.00000000  0.00000001  1
  Li  Li3  1  0.00000001  0.26875400  0.00000001  1
  Cr  Cr4  1  1.00000004  0.73124601  0.00000004  1
  Cr  Cr5  1  0.04503401  0.39648101  0.79296202  1
  O  O6  1  0.95496604  0.60351901  0.20703804  1
  O  O7  1  0.10496902  0.90067401  0.80134804  1
  O  O8  1  0.89503102  0.09932600  0.19865202  1
  O  O9  1  0.38829003  0.88555701  0.20948404  1
  O  O10  1  0.38829002  0.32392701  0.20948402  1
  O  O11  1  0.61171003  0.67607301  0.79051604  1
  O  O12  1  0.61171002  0.11444300  0.79051602  1
