# generated using pymatgen
data_CaHfO3
_symmetry_space_group_name_H-M   'P 1'
_cell_length_a   5.80212116
_cell_length_b   5.88270283
_cell_length_c   8.42615795
_cell_angle_alpha   90.00000000
_cell_angle_beta   90.00000000
_cell_angle_gamma   90.00000000
_symmetry_Int_Tables_number   1
_chemical_formula_structural   CaHfO3
_chemical_formula_sum   'Ca4 Hf4 O12'
_cell_volume   287.60292560
_cell_formula_units_Z   4
loop_
 _symmetry_equiv_pos_site_id
 _symmetry_equiv_pos_as_xyz
  1  'x, y, z'
loop_
 _atom_site_type_symbol
 _atom_site_label
 _atom_site_symmetry_multiplicity
 _atom_site_fract_x
 _atom_site_fract_y
 _atom_site_fract_z
 _atom_site_occupancy
  Ca  Ca0  1  0.49258599  0.54041402  0.25000000  1
  Ca  Ca1  1  0.00741400  0.04041400  0.25000000  1
  Ca  Ca2  1  0.50741399  0.45958601  0.75000000  1
  Ca  Ca3  1  0.99258597  0.95958603  0.75000000  1
  Hf  Hf4  1  0.49999999  0.00000000  -0.00000000  1
  Hf  Hf5  1  0.00000000  0.50000001  0.50000000  1
  Hf  Hf6  1  0.49999999  0.00000000  0.50000000  1
  Hf  Hf7  1  0.00000000  0.50000001  -0.00000000  1
  O  O8  1  0.40727499  0.96619903  0.25000000  1
  O  O9  1  0.09272500  0.46619901  0.25000000  1
  O  O10  1  0.59272498  0.03380100  0.75000000  1
  O  O11  1  0.90727497  0.53380102  0.75000000  1
  O  O12  1  0.80852698  0.80854002  0.04504500  1
  O  O13  1  0.69147298  0.30854001  0.45495500  1
  O  O14  1  0.19147299  0.19146001  0.54504500  1
  O  O15  1  0.30852699  0.69146002  0.95495501  1
  O  O16  1  0.19147299  0.19146001  0.95495501  1
  O  O17  1  0.30852699  0.69146002  0.54504500  1
  O  O18  1  0.80852698  0.80854002  0.45495500  1
  O  O19  1  0.69147298  0.30854001  0.04504500  1
