# generated using pymatgen
data_KAg2
_symmetry_space_group_name_H-M   'P 1'
_cell_length_a   4.78375578
_cell_length_b   4.78375578
_cell_length_c   10.69766808
_cell_angle_alpha   90.00000000
_cell_angle_beta   90.00000000
_cell_angle_gamma   120.00000000
_symmetry_Int_Tables_number   1
_chemical_formula_structural   KAg2
_chemical_formula_sum   'K2 Ag4'
_cell_volume   212.01068542
_cell_formula_units_Z   2
loop_
 _symmetry_equiv_pos_site_id
 _symmetry_equiv_pos_as_xyz
  1  'x, y, z'
loop_
 _atom_site_type_symbol
 _atom_site_label
 _atom_site_symmetry_multiplicity
 _atom_site_fract_x
 _atom_site_fract_y
 _atom_site_fract_z
 _atom_site_occupancy
  K  K0  1  0.00000000  0.00000000  0.00000000  1
  K  K1  1  0.00000000  0.00000000  0.50000000  1
  Ag  Ag2  1  0.66666669  0.33333333  0.25000000  1
  Ag  Ag3  1  0.33333333  0.66666666  0.74999999  1
  Ag  Ag4  1  0.66666669  0.33333333  0.74999999  1
  Ag  Ag5  1  0.33333333  0.66666666  0.25000000  1
