# generated using pymatgen
data_CsPbCl3
_symmetry_space_group_name_H-M   'P 1'
_cell_length_a   7.42064619
_cell_length_b   8.36387444
_cell_length_c   13.84216309
_cell_angle_alpha   86.12863159
_cell_angle_beta   81.24571228
_cell_angle_gamma   63.66537094
_symmetry_Int_Tables_number   1
_chemical_formula_structural   CsPbCl3
_chemical_formula_sum   'Cs4 Pb4 Cl12'
_cell_volume   760.98817134
_cell_formula_units_Z   4
loop_
 _symmetry_equiv_pos_site_id
 _symmetry_equiv_pos_as_xyz
  1  'x, y, z'
loop_
 _atom_site_type_symbol
 _atom_site_label
 _atom_site_symmetry_multiplicity
 _atom_site_fract_x
 _atom_site_fract_y
 _atom_site_fract_z
 _atom_site_occupancy
  Cs  Cs0  1  0.00749500  0.12145400  0.84410702  1
  Cs  Cs1  1  0.87105098  0.12145400  0.65589299  1
  Cs  Cs2  1  0.99250499  0.87854602  0.15589296  1
  Cs  Cs3  1  0.12894900  0.87854602  0.34410699  1
  Pb  Pb4  1  0.66828599  0.36814501  0.79507500  1
  Pb  Pb5  1  0.96356898  0.36814501  0.70492499  1
  Pb  Pb6  1  0.33171400  0.63185502  0.20492499  1
  Pb  Pb7  1  0.03643100  0.63185502  0.29507499  1
  Cl  Cl8  1  0.24409900  0.81118502  0.96688900  1
  Cl  Cl9  1  0.94471599  0.81118502  0.53311098  1
  Cl  Cl10  1  0.75590099  0.18881500  0.03311098  1
  Cl  Cl11  1  0.05528400  0.18881500  0.46688901  1
  Cl  Cl12  1  0.22323200  0.28214601  0.90966801  1
  Cl  Cl13  1  0.49462199  0.28214601  0.59033200  1
  Cl  Cl14  1  0.77676799  0.71785402  0.09033197  1
  Cl  Cl15  1  0.50537799  0.71785402  0.40966798  1
  Cl  Cl16  1  0.29312400  0.90324902  0.69463099  1
  Cl  Cl17  1  0.80362699  0.90324902  0.80536898  1
  Cl  Cl18  1  0.70687599  0.09675100  0.30536899  1
  Cl  Cl19  1  0.19637300  0.09675100  0.19463100  1
