# generated using pymatgen
data_La4PrCl15
_symmetry_space_group_name_H-M   'P 1'
_cell_length_a   8.03151512
_cell_length_b   8.18471432
_cell_length_c   16.94127655
_cell_angle_alpha   90.27327728
_cell_angle_beta   95.21683502
_cell_angle_gamma   91.07595062
_symmetry_Int_Tables_number   1
_chemical_formula_structural   La4PrCl15
_chemical_formula_sum   'La4 Pr1 Cl15'
_cell_volume   1108.81391062
_cell_formula_units_Z   1
loop_
 _symmetry_equiv_pos_site_id
 _symmetry_equiv_pos_as_xyz
  1  'x, y, z'
loop_
 _atom_site_type_symbol
 _atom_site_label
 _atom_site_symmetry_multiplicity
 _atom_site_fract_x
 _atom_site_fract_y
 _atom_site_fract_z
 _atom_site_occupancy
  La  La0  1  0.38448301  0.16124101  0.30674600  1
  La  La1  1  0.61551900  0.83876004  0.69325400  1
  La  La2  1  0.13519797  0.87639204  0.10886102  1
  Pr  Pr3  1  0.86480204  0.12360901  0.89113898  1
  La  La4  1  0.33143199  0.64998003  0.70030799  1
  Cl  Cl5  1  0.66856802  0.35002001  0.29969200  1
  Cl  Cl6  1  0.82660204  0.08290700  0.05912301  1
  Cl  Cl7  1  0.17339797  0.91709304  0.94087698  1
  Cl  Cl8  1  0.07030397  0.94308404  0.27157501  1
  Cl  Cl9  1  0.92969505  0.05691600  0.72842598  1
  Cl  Cl10  1  0.31348201  0.21082301  0.13774700  1
  Cl  Cl11  1  0.68651801  0.78917603  0.86225299  1
  Cl  Cl12  1  0.93677903  0.60176303  0.10566802  1
  Cl  Cl13  1  0.06322099  0.39823602  0.89433197  1
  Cl  Cl14  1  0.21978600  0.34544501  0.40666499  1
  Cl  Cl15  1  0.78021302  0.65455403  0.59333500  1
  Cl  Cl16  1  0.52784499  0.89785004  0.38073301  1
  Cl  Cl17  1  0.47215602  0.10215000  0.61926698  1
  Cl  Cl18  1  0.43705799  0.72703603  0.13103602  1
  Cl  Cl19  1  0.56294202  0.27296201  0.86896398  1
