# generated using pymatgen
data_Ca2CeNd2GdO13
_symmetry_space_group_name_H-M   'P 1'
_cell_length_a   5.51677895
_cell_length_b   5.57779646
_cell_length_c   8.72576523
_cell_angle_alpha   74.91103363
_cell_angle_beta   88.46541595
_cell_angle_gamma   89.24629211
_symmetry_Int_Tables_number   1
_chemical_formula_structural   Ca2CeNd2GdO13
_chemical_formula_sum   'Ca2 Ce1 Nd2 Gd1 O13'
_cell_volume   259.14903189
_cell_formula_units_Z   1
loop_
 _symmetry_equiv_pos_site_id
 _symmetry_equiv_pos_as_xyz
  1  'x, y, z'
loop_
 _atom_site_type_symbol
 _atom_site_label
 _atom_site_symmetry_multiplicity
 _atom_site_fract_x
 _atom_site_fract_y
 _atom_site_fract_z
 _atom_site_occupancy
  Ca  Ca0  1  0.21473700  0.93289303  0.65275496  1
  Ca  Ca1  1  0.19245600  0.58137502  0.33903598  1
  Nd  Nd2  1  0.79211800  0.73044502  0.00278900  1
  Nd  Nd3  1  0.21854200  0.19992901  0.02269700  1
  Gd  Gd4  1  0.78185900  0.39787001  0.68651797  1
  Ce  Ce5  1  0.78586301  0.09278100  0.34529499  1
  O  O6  1  0.97041100  0.73853402  0.51809997  1
  O  O7  1  0.97583800  0.90866003  0.17914099  1
  O  O8  1  0.98643201  0.41861001  0.16641499  1
  O  O9  1  0.98227601  0.05299600  0.84213196  1
  O  O10  1  0.01126100  0.24847301  0.50524598  1
  O  O11  1  0.44233600  0.15381300  0.78980196  1
  O  O12  1  0.44067700  0.86592102  0.43266297  1
  O  O13  1  0.44713600  0.83241102  0.11101099  1
  O  O14  1  0.44332100  0.30136301  0.22503299  1
  O  O15  1  0.58139500  0.74113902  0.73900096  1
  O  O16  1  0.08277100  0.55985302  0.83777496  1
  O  O17  1  0.63539400  0.37182001  0.95888596  1
  O  O18  1  0.52311200  0.36260201  0.49511498  1
