# generated using pymatgen
data_Ba3LaPrYCl12
_symmetry_space_group_name_H-M   'P 1'
_cell_length_a   7.45636892
_cell_length_b   8.21767139
_cell_length_c   9.68894100
_cell_angle_alpha   107.98925018
_cell_angle_beta   104.93871307
_cell_angle_gamma   107.42637634
_symmetry_Int_Tables_number   1
_chemical_formula_structural   Ba3LaPrYCl12
_chemical_formula_sum   'Ba3 La1 Pr1 Y1 Cl12'
_cell_volume   496.98904542
_cell_formula_units_Z   1
loop_
 _symmetry_equiv_pos_site_id
 _symmetry_equiv_pos_as_xyz
  1  'x, y, z'
loop_
 _atom_site_type_symbol
 _atom_site_label
 _atom_site_symmetry_multiplicity
 _atom_site_fract_x
 _atom_site_fract_y
 _atom_site_fract_z
 _atom_site_occupancy
  Ba  Ba0  1  0.80893302  0.05893300  0.11786600  1
  Ba  Ba1  1  0.19106699  0.94106695  0.88213397  1
  Ba  Ba2  1  0.68536101  0.43536098  0.87072298  1
  La  La3  1  0.31463800  0.56463797  0.12927599  1
  Pr  Pr4  1  0.43603101  0.18603099  0.37206299  1
  Y  Y5  1  0.56396800  0.81396796  0.62793597  1
  Cl  Cl6  1  0.98623601  0.83043796  0.35876698  1
  Cl  Cl7  1  0.87253101  0.52832897  0.35876698  1
  Cl  Cl8  1  0.01376400  0.16956199  0.64123299  1
  Cl  Cl9  1  0.12746899  0.47167098  0.64123298  1
  Cl  Cl10  1  0.26839201  0.05046200  0.60622099  1
  Cl  Cl11  1  0.83782901  0.55575897  0.60622098  1
  Cl  Cl12  1  0.57382201  0.32183798  0.13323999  1
  Cl  Cl13  1  0.05941799  0.81140196  0.13323998  1
  Cl  Cl14  1  0.42617800  0.67816196  0.86675997  1
  Cl  Cl15  1  0.94058202  0.18859799  0.86675998  1
  Cl  Cl16  1  0.16217100  0.44424098  0.39377899  1
  Cl  Cl17  1  0.73160800  0.94953795  0.39377898  1
