# generated using pymatgen
data_La2YTiO6
_symmetry_space_group_name_H-M   'P 1'
_cell_length_a   4.23080921
_cell_length_b   5.47688341
_cell_length_c   5.47688341
_cell_angle_alpha   90.64440155
_cell_angle_beta   90.00000000
_cell_angle_gamma   90.00000000
_symmetry_Int_Tables_number   1
_chemical_formula_structural   La2YTiO6
_chemical_formula_sum   'La2 Y1 Ti1 O6'
_cell_volume   126.90039241
_cell_formula_units_Z   1
loop_
 _symmetry_equiv_pos_site_id
 _symmetry_equiv_pos_as_xyz
  1  'x, y, z'
loop_
 _atom_site_type_symbol
 _atom_site_label
 _atom_site_symmetry_multiplicity
 _atom_site_fract_x
 _atom_site_fract_y
 _atom_site_fract_z
 _atom_site_occupancy
  La  La0  1  0.43498398  0.00000000  -0.00000000  1
  La  La1  1  0.97720695  0.00000000  0.49999998  1
  Ti  Ti2  1  0.97720695  0.49999998  0.00000003  1
  Y  Y3  1  0.38863398  0.49999998  0.50000001  1
  O  O4  1  0.55958497  0.00000000  0.49999998  1
  O  O5  1  0.55958497  0.49999998  0.00000003  1
  O  O6  1  0.06276700  0.73352197  0.73352201  1
  O  O7  1  0.06276700  0.26647799  0.26647800  1
  O  O8  1  0.07863200  0.24930599  0.75069398  1
  O  O9  1  0.07863200  0.75069397  0.24930603  1
