# generated using pymatgen
data_BaNbO3
_symmetry_space_group_name_H-M   'P 1'
_cell_length_a   5.68516207
_cell_length_b   5.68516207
_cell_length_c   5.68516207
_cell_angle_alpha   60.00000000
_cell_angle_beta   60.00000000
_cell_angle_gamma   60.00000000
_symmetry_Int_Tables_number   1
_chemical_formula_structural   BaNbO3
_chemical_formula_sum   'Ba2 Nb2 O6'
_cell_volume   129.93123043
_cell_formula_units_Z   2
loop_
 _symmetry_equiv_pos_site_id
 _symmetry_equiv_pos_as_xyz
  1  'x, y, z'
loop_
 _atom_site_type_symbol
 _atom_site_label
 _atom_site_symmetry_multiplicity
 _atom_site_fract_x
 _atom_site_fract_y
 _atom_site_fract_z
 _atom_site_occupancy
  Ba  Ba0  1  0.74999999  0.74999999  0.74999999  1
  Ba  Ba1  1  0.25000000  0.25000000  0.25000000  1
  Nb  Nb2  1  0.00000000  0.00000000  0.00000000  1
  Nb  Nb3  1  0.50000000  0.50000000  0.50000000  1
  O  O4  1  0.25666138  0.74333861  0.25666138  1
  O  O5  1  0.74333861  0.25666138  0.74333861  1
  O  O6  1  0.74333861  0.25666138  0.25666138  1
  O  O7  1  0.25666138  0.74333861  0.74333861  1
  O  O8  1  0.74333861  0.74333861  0.25666138  1
  O  O9  1  0.25666138  0.25666138  0.74333861  1
