# generated using pymatgen
data_Ba3LaZrTiO9
_symmetry_space_group_name_H-M   'P 1'
_cell_length_a   5.95777416
_cell_length_b   5.95777369
_cell_length_c   7.31994200
_cell_angle_alpha   90.00000000
_cell_angle_beta   90.00000000
_cell_angle_gamma   120.00000000
_symmetry_Int_Tables_number   1
_chemical_formula_structural   Ba3LaZrTiO9
_chemical_formula_sum   'Ba3 La1 Zr1 Ti1 O9'
_cell_volume   225.01232649
_cell_formula_units_Z   1
loop_
 _symmetry_equiv_pos_site_id
 _symmetry_equiv_pos_as_xyz
  1  'x, y, z'
loop_
 _atom_site_type_symbol
 _atom_site_label
 _atom_site_symmetry_multiplicity
 _atom_site_fract_x
 _atom_site_fract_y
 _atom_site_fract_z
 _atom_site_occupancy
  Ba  Ba0  1  0.00000000  0.00000000  0.50000000  1
  Ba  Ba1  1  0.33333328  0.66666662  0.18330000  1
  Ba  Ba2  1  0.66666663  0.33333331  0.81670000  1
  La  La3  1  0.33333328  0.66666662  0.66556200  1
  Zr  Zr4  1  0.66666663  0.33333331  0.33443800  1
  Ti  Ti5  1  0.00000000  0.00000000  0.00000000  1
  O  O6  1  0.31149498  0.15574799  0.15279800  1
  O  O7  1  0.68850493  0.84425194  0.84720200  1
  O  O8  1  0.99999994  0.49999996  0.50000000  1
  O  O9  1  0.49999996  0.49999996  0.50000000  1
  O  O10  1  0.84425297  0.15574799  0.15279800  1
  O  O11  1  0.15574694  0.84425194  0.84720200  1
  O  O12  1  0.49999999  0.00000000  0.50000000  1
  O  O13  1  0.84425293  0.68850595  0.15279800  1
  O  O14  1  0.15574698  0.31149398  0.84720200  1
