# generated using pymatgen
data_LiLaTi2O6
_symmetry_space_group_name_H-M   'P 1'
_cell_length_a   5.51242924
_cell_length_b   5.67314482
_cell_length_c   7.60129738
_cell_angle_alpha   90.00000000
_cell_angle_beta   90.62848663
_cell_angle_gamma   90.00000000
_symmetry_Int_Tables_number   1
_chemical_formula_structural   LiLaTi2O6
_chemical_formula_sum   'Li2 La2 Ti4 O12'
_cell_volume   237.69962278
_cell_formula_units_Z   2
loop_
 _symmetry_equiv_pos_site_id
 _symmetry_equiv_pos_as_xyz
  1  'x, y, z'
loop_
 _atom_site_type_symbol
 _atom_site_label
 _atom_site_symmetry_multiplicity
 _atom_site_fract_x
 _atom_site_fract_y
 _atom_site_fract_z
 _atom_site_occupancy
  La  La0  1  0.51205298  0.29891901  0.75001100  1
  Li  Li1  1  0.01205300  0.70108102  0.25001100  1
  Li  Li2  1  0.98674096  0.80291503  0.75021201  1
  La  La3  1  0.48674098  0.19708501  0.25021201  1
  Ti  Ti4  1  0.99842996  0.25594201  0.99911501  1
  Ti  Ti5  1  0.49842998  0.74405802  0.49911500  1
  Ti  Ti6  1  0.99864196  0.25243601  0.50052501  1
  Ti  Ti7  1  0.49864198  0.74756402  0.00052501  1
  O  O8  1  0.08812100  0.22652601  0.74588199  1
  O  O9  1  0.20345199  0.96719703  0.04621400  1
  O  O10  1  0.22040599  0.94885003  0.45330500  1
  O  O11  1  0.28153299  0.44823301  0.04731700  1
  O  O12  1  0.29857199  0.46488801  0.45331800  1
  O  O13  1  0.41204798  0.72436802  0.75410000  1
  O  O14  1  0.58812097  0.77347402  0.24588201  1
  O  O15  1  0.70345197  0.03280300  0.54621401  1
  O  O16  1  0.72040597  0.05115000  0.95330500  1
  O  O17  1  0.78153297  0.55176702  0.54731701  1
  O  O18  1  0.79857197  0.53511202  0.95331800  1
  O  O19  1  0.91204796  0.27563201  0.25410001  1
