# generated using pymatgen
data_La4HfMo(WO5)2
_symmetry_space_group_name_H-M   'P 1'
_cell_length_a   5.62698317
_cell_length_b   6.65342712
_cell_length_c   6.65342712
_cell_angle_alpha   90.00000000
_cell_angle_beta   90.00000000
_cell_angle_gamma   90.00000000
_symmetry_Int_Tables_number   1
_chemical_formula_structural   La4HfMo(WO5)2
_chemical_formula_sum   'La4 Hf1 Mo1 W2 O10'
_cell_volume   249.09581125
_cell_formula_units_Z   1
loop_
 _symmetry_equiv_pos_site_id
 _symmetry_equiv_pos_as_xyz
  1  'x, y, z'
loop_
 _atom_site_type_symbol
 _atom_site_label
 _atom_site_symmetry_multiplicity
 _atom_site_fract_x
 _atom_site_fract_y
 _atom_site_fract_z
 _atom_site_occupancy
  La  La0  1  0.00000000  0.10748700  0.25951200  1
  La  La1  1  0.00000000  0.89251298  0.74048799  1
  La  La2  1  0.49999999  0.25951200  0.89251298  1
  La  La3  1  0.49999999  0.74048799  0.10748700  1
  Hf  Hf4  1  0.00000000  0.59543599  0.30509899  1
  Mo  Mo5  1  0.00000000  0.40456399  0.69490099  1
  W  W6  1  0.49999999  0.30509899  0.40456399  1
  W  W7  1  0.49999999  0.69490099  0.59543599  1
  O  O8  1  0.25855599  0.40125499  0.19478500  1
  O  O9  1  0.74144398  0.59874499  0.80521498  1
  O  O10  1  0.25855599  0.59874499  0.80521498  1
  O  O11  1  0.75855598  0.19478500  0.59874499  1
  O  O12  1  0.74144398  0.40125499  0.19478500  1
  O  O13  1  0.24144399  0.80521498  0.40125499  1
  O  O14  1  0.75855598  0.80521498  0.40125499  1
  O  O15  1  0.24144399  0.19478500  0.59874499  1
  O  O16  1  0.24999999  0.00000000  0.00000000  1
  O  O17  1  0.74999998  0.00000000  -0.00000000  1
