# generated using pymatgen
data_K2NaH3
_symmetry_space_group_name_H-M   'P 1'
_cell_length_a   3.89734292
_cell_length_b   4.40723324
_cell_length_c   5.90434885
_cell_angle_alpha   90.00000000
_cell_angle_beta   90.00000000
_cell_angle_gamma   90.00000000
_symmetry_Int_Tables_number   1
_chemical_formula_structural   K2NaH3
_chemical_formula_sum   'K2 Na1 H3'
_cell_volume   101.41604365
_cell_formula_units_Z   1
loop_
 _symmetry_equiv_pos_site_id
 _symmetry_equiv_pos_as_xyz
  1  'x, y, z'
loop_
 _atom_site_type_symbol
 _atom_site_label
 _atom_site_symmetry_multiplicity
 _atom_site_fract_x
 _atom_site_fract_y
 _atom_site_fract_z
 _atom_site_occupancy
  K  K0  1  0.00000000  0.00000000  0.00000000  1
  K  K1  1  0.50000001  0.49999997  0.50000001  1
  H  H2  1  0.00000000  0.88665695  0.56446801  1
  Na  Na3  1  0.50000001  0.61334297  0.06446800  1
  H  H4  1  0.50000001  0.38665698  0.93553202  1
  H  H5  1  0.00000000  0.11334299  0.43553201  1
