# generated using pymatgen
data_LaTiO3
_symmetry_space_group_name_H-M   'P 1'
_cell_length_a   5.60551310
_cell_length_b   5.61022520
_cell_length_c   7.95894098
_cell_angle_alpha   90.05602264
_cell_angle_beta   90.00000000
_cell_angle_gamma   90.00000000
_symmetry_Int_Tables_number   1
_chemical_formula_structural   LaTiO3
_chemical_formula_sum   'La4 Ti4 O12'
_cell_volume   250.29417521
_cell_formula_units_Z   4
loop_
 _symmetry_equiv_pos_site_id
 _symmetry_equiv_pos_as_xyz
  1  'x, y, z'
loop_
 _atom_site_type_symbol
 _atom_site_label
 _atom_site_symmetry_multiplicity
 _atom_site_fract_x
 _atom_site_fract_y
 _atom_site_fract_z
 _atom_site_occupancy
  La  La0  1  0.25000000  0.73657602  0.00198097  1
  La  La1  1  0.74999999  0.26342401  0.99801897  1
  La  La2  1  0.25000000  0.75070602  0.49824896  1
  La  La3  1  0.74999999  0.24929401  0.50175098  1
  Ti  Ti4  1  0.74999999  0.75195402  0.75710496  1
  Ti  Ti5  1  0.25000000  0.24804601  0.24289499  1
  Ti  Ti6  1  0.74999999  0.75024502  0.23752497  1
  Ti  Ti7  1  0.25000000  0.24975501  0.76247498  1
  O  O8  1  0.74999999  0.83047502  0.01050397  1
  O  O9  1  0.74999999  0.67602702  0.49398397  1
  O  O10  1  0.99587898  0.51447701  0.22456498  1
  O  O11  1  0.50412099  0.51447701  0.22456498  1
  O  O12  1  0.00947100  0.00572100  0.69681499  1
  O  O13  1  0.49052899  0.00572100  0.69681499  1
  O  O14  1  0.50947099  0.99427903  0.30318496  1
  O  O15  1  0.99052898  0.99427903  0.30318496  1
  O  O16  1  0.49587899  0.48552301  0.77543497  1
  O  O17  1  0.00412100  0.48552301  0.77543497  1
  O  O18  1  0.25000000  0.32397301  0.50601598  1
  O  O19  1  0.25000000  0.16952500  0.98949597  1
