# generated using pymatgen
data_Pr2Nd3Se7
_symmetry_space_group_name_H-M   'P 1'
_cell_length_a   4.02656412
_cell_length_b   8.79160023
_cell_length_c   11.14424706
_cell_angle_alpha   90.00000000
_cell_angle_beta   90.00000000
_cell_angle_gamma   103.23824310
_symmetry_Int_Tables_number   1
_chemical_formula_structural   Pr2Nd3Se7
_chemical_formula_sum   'Pr2 Nd3 Se7'
_cell_volume   384.02221156
_cell_formula_units_Z   1
loop_
 _symmetry_equiv_pos_site_id
 _symmetry_equiv_pos_as_xyz
  1  'x, y, z'
loop_
 _atom_site_type_symbol
 _atom_site_label
 _atom_site_symmetry_multiplicity
 _atom_site_fract_x
 _atom_site_fract_y
 _atom_site_fract_z
 _atom_site_occupancy
  Nd  Nd0  1  0.65639500  0.31279001  0.27386000  1
  Pr  Pr1  1  0.34360504  0.68721003  0.77386000  1
  Nd  Nd2  1  0.77036001  0.54072002  0.46428700  1
  Pr  Pr3  1  0.22964002  0.45928002  0.96428700  1
  Nd  Nd4  1  0.97060804  0.94121604  0.74158900  1
  Se  Se5  1  0.02939200  0.05878400  0.24158900  1
  Se  Se6  1  0.89391103  0.78782204  0.95992100  1
  Se  Se7  1  0.10608901  0.21217801  0.45992100  1
  Se  Se8  1  0.72413101  0.44826202  0.69902000  1
  Se  Se9  1  0.27586903  0.55173803  0.19902000  1
  Se  Se10  1  0.37450904  0.74901803  0.50032300  1
  Se  Se11  1  0.62549100  0.25098201  0.00032300  1
