# generated using pymatgen
data_CsCaI3
_symmetry_space_group_name_H-M   'P 1'
_cell_length_a   4.73312283
_cell_length_b   10.50906086
_cell_length_c   17.67061615
_cell_angle_alpha   90.00000000
_cell_angle_beta   90.00000000
_cell_angle_gamma   90.00000000
_symmetry_Int_Tables_number   1
_chemical_formula_structural   CsCaI3
_chemical_formula_sum   'Cs4 Ca4 I12'
_cell_volume   878.94838964
_cell_formula_units_Z   4
loop_
 _symmetry_equiv_pos_site_id
 _symmetry_equiv_pos_as_xyz
  1  'x, y, z'
loop_
 _atom_site_type_symbol
 _atom_site_label
 _atom_site_symmetry_multiplicity
 _atom_site_fract_x
 _atom_site_fract_y
 _atom_site_fract_z
 _atom_site_occupancy
  Cs  Cs0  1  0.75000003  0.57901001  0.17338500  1
  Cs  Cs1  1  0.25000001  0.42099001  0.82661499  1
  Cs  Cs2  1  0.75000003  0.07901000  0.32661500  1
  Cs  Cs3  1  0.25000001  0.92099001  0.67338499  1
  Ca  Ca4  1  0.25000001  0.66319901  0.44153300  1
  Ca  Ca5  1  0.75000003  0.33680100  0.55846700  1
  Ca  Ca6  1  0.25000001  0.16319900  0.05846700  1
  Ca  Ca7  1  0.75000003  0.83680101  0.94153299  1
  I  I8  1  0.75000003  0.83324801  0.50397800  1
  I  I9  1  0.25000001  0.16675200  0.49602200  1
  I  I10  1  0.75000003  0.33324800  0.99602199  1
  I  I11  1  0.25000001  0.66675201  0.00397800  1
  I  I12  1  0.25000001  0.52726601  0.60401199  1
  I  I13  1  0.75000003  0.47273401  0.39598800  1
  I  I14  1  0.25000001  0.02726600  0.89598799  1
  I  I15  1  0.75000003  0.97273401  0.10401200  1
  I  I16  1  0.25000001  0.79441101  0.28662100  1
  I  I17  1  0.75000003  0.20558900  0.71337899  1
  I  I18  1  0.25000001  0.29441100  0.21337900  1
  I  I19  1  0.75000003  0.70558901  0.78662099  1
