# generated using pymatgen
data_CsLiO2
_symmetry_space_group_name_H-M   'P 1'
_cell_length_a   6.13198614
_cell_length_b   6.97662687
_cell_length_c   8.33379745
_cell_angle_alpha   90.00000000
_cell_angle_beta   90.00000000
_cell_angle_gamma   116.06983948
_symmetry_Int_Tables_number   1
_chemical_formula_structural   CsLiO2
_chemical_formula_sum   'Cs4 Li4 O8'
_cell_volume   320.25151776
_cell_formula_units_Z   4
loop_
 _symmetry_equiv_pos_site_id
 _symmetry_equiv_pos_as_xyz
  1  'x, y, z'
loop_
 _atom_site_type_symbol
 _atom_site_label
 _atom_site_symmetry_multiplicity
 _atom_site_fract_x
 _atom_site_fract_y
 _atom_site_fract_z
 _atom_site_occupancy
  Cs  Cs0  1  0.60689898  0.21379800  0.45752598  1
  Cs  Cs1  1  0.39310098  0.78620198  0.95752595  1
  Cs  Cs2  1  0.92781997  0.85563998  0.58816797  1
  Cs  Cs3  1  0.07218000  0.14436000  0.08816800  1
  Li  Li4  1  0.79579798  0.59159599  0.17673899  1
  Li  Li5  1  0.20420199  0.40840399  0.67673896  1
  Li  Li6  1  0.29987999  0.59975999  0.39547998  1
  Li  Li7  1  0.70011998  0.40023999  0.89547995  1
  O  O8  1  0.89896998  0.32818999  0.78960596  1
  O  O9  1  0.10102999  0.67180999  0.28960598  1
  O  O10  1  0.63952898  0.27905799  0.08439300  1
  O  O11  1  0.36047099  0.72094199  0.58439297  1
  O  O12  1  0.42921999  0.32818999  0.78960596  1
  O  O13  1  0.57077998  0.67180999  0.28960598  1
  O  O14  1  0.16295099  0.32590199  0.43948198  1
  O  O15  1  0.83704897  0.67409799  0.93948195  1
