# generated using pymatgen
data_Li2CoO4
_symmetry_space_group_name_H-M   'P 1'
_cell_length_a   5.88499546
_cell_length_b   5.88499546
_cell_length_c   5.88499594
_cell_angle_alpha   60.87888718
_cell_angle_beta   60.87888718
_cell_angle_gamma   60.87888336
_symmetry_Int_Tables_number   1
_chemical_formula_structural   Li2CoO4
_chemical_formula_sum   'Li4 Co2 O8'
_cell_volume   146.97516647
_cell_formula_units_Z   2
loop_
 _symmetry_equiv_pos_site_id
 _symmetry_equiv_pos_as_xyz
  1  'x, y, z'
loop_
 _atom_site_type_symbol
 _atom_site_label
 _atom_site_symmetry_multiplicity
 _atom_site_fract_x
 _atom_site_fract_y
 _atom_site_fract_z
 _atom_site_occupancy
  Li  Li0  1  0.87848403  0.87848404  0.87848398  1
  Li  Li1  1  0.12151600  0.12151600  0.12151600  1
  Li  Li2  1  -0.00000000  0.50000002  0.49999999  1
  Li  Li3  1  0.50000002  0.00000000  0.49999999  1
  Co  Co4  1  0.50000002  0.50000002  -0.00000000  1
  Co  Co5  1  0.50000002  0.50000002  0.49999999  1
  O  O6  1  0.74020603  0.74020603  0.74020598  1
  O  O7  1  0.74274903  0.74274903  0.28782299  1
  O  O8  1  0.74274903  0.28782301  0.74274898  1
  O  O9  1  0.28782301  0.74274903  0.74274898  1
  O  O10  1  0.71217703  0.25725101  0.25725099  1
  O  O11  1  0.25725101  0.71217703  0.25725099  1
  O  O12  1  0.25725101  0.25725101  0.71217698  1
  O  O13  1  0.25979401  0.25979401  0.25979399  1
