# generated using pymatgen
data_Na2Nb2O5
_symmetry_space_group_name_H-M   'P 1'
_cell_length_a   5.60660982
_cell_length_b   5.61522532
_cell_length_c   8.61576843
_cell_angle_alpha   71.04830933
_cell_angle_beta   71.14102173
_cell_angle_gamma   90.19701385
_symmetry_Int_Tables_number   1
_chemical_formula_structural   Na2Nb2O5
_chemical_formula_sum   'Na4 Nb4 O10'
_cell_volume   240.98180818
_cell_formula_units_Z   2
loop_
 _symmetry_equiv_pos_site_id
 _symmetry_equiv_pos_as_xyz
  1  'x, y, z'
loop_
 _atom_site_type_symbol
 _atom_site_label
 _atom_site_symmetry_multiplicity
 _atom_site_fract_x
 _atom_site_fract_y
 _atom_site_fract_z
 _atom_site_occupancy
  Na  Na0  1  0.00218995  0.99987998  0.99375005  1
  Na  Na1  1  0.50637000  0.50308099  0.99353302  1
  Na  Na2  1  0.24562800  0.24622499  0.50580801  1
  Na  Na3  1  0.74831700  0.74773598  0.50707001  1
  Nb  Nb4  1  0.86974402  0.36959899  0.26059699  1
  Nb  Nb5  1  0.36286097  0.86255298  0.27425301  1
  Nb  Nb6  1  0.62414202  0.12568300  0.74990701  1
  Nb  Nb7  1  0.13584498  0.62809599  0.73529603  1
  O  O8  1  0.00127597  0.50417699  0.99564904  1
  O  O9  1  0.50119202  0.00395900  0.99255002  1
  O  O10  1  0.41433400  0.40409599  0.68189002  1
  O  O11  1  0.90093900  0.91549998  0.68495701  1
  O  O12  1  0.41254397  0.91423698  0.68235502  1
  O  O13  1  0.90380702  0.40456099  0.68488700  1
  O  O14  1  0.58627900  0.60106499  0.31209500  1
  O  O15  1  0.10002300  0.08506300  0.31458801  1
  O  O16  1  0.58596902  0.08558500  0.31416699  1
  O  O17  1  0.09854697  0.59890099  0.31664502  1
