# generated using pymatgen
data_Zn2CuS4
_symmetry_space_group_name_H-M   'P 1'
_cell_length_a   5.37407398
_cell_length_b   5.37407398
_cell_length_c   6.45837212
_cell_angle_alpha   114.58575439
_cell_angle_beta   114.58576965
_cell_angle_gamma   90.00000000
_symmetry_Int_Tables_number   1
_chemical_formula_structural   Zn2CuS4
_chemical_formula_sum   'Zn2 Cu1 S4'
_cell_volume   150.81749550
_cell_formula_units_Z   1
loop_
 _symmetry_equiv_pos_site_id
 _symmetry_equiv_pos_as_xyz
  1  'x, y, z'
loop_
 _atom_site_type_symbol
 _atom_site_label
 _atom_site_symmetry_multiplicity
 _atom_site_fract_x
 _atom_site_fract_y
 _atom_site_fract_z
 _atom_site_occupancy
  Zn  Zn0  1  0.49999998  0.50000001  -0.00000001  1
  Zn  Zn1  1  0.00000000  0.00000000  0.00000000  1
  Cu  Cu2  1  0.74999998  0.25000000  0.49999997  1
  S  S3  1  0.87336897  0.86848001  0.25627298  1
  S  S4  1  0.38290399  0.38779300  0.25627299  1
  S  S5  1  0.61220699  0.12663100  0.74372697  1
  S  S6  1  0.13151999  0.61709601  0.74372700  1
