# generated using pymatgen
data_Rb2PbO2
_symmetry_space_group_name_H-M   'P 1'
_cell_length_a   3.65681410
_cell_length_b   6.24802160
_cell_length_c   6.24802160
_cell_angle_alpha   69.82558441
_cell_angle_beta   72.98406219
_cell_angle_gamma   72.98406219
_symmetry_Int_Tables_number   1
_chemical_formula_structural   Rb2PbO2
_chemical_formula_sum   'Rb2 Pb1 O2'
_cell_volume   125.17272688
_cell_formula_units_Z   1
loop_
 _symmetry_equiv_pos_site_id
 _symmetry_equiv_pos_as_xyz
  1  'x, y, z'
loop_
 _atom_site_type_symbol
 _atom_site_label
 _atom_site_symmetry_multiplicity
 _atom_site_fract_x
 _atom_site_fract_y
 _atom_site_fract_z
 _atom_site_occupancy
  Rb  Rb0  1  0.19431502  0.30568501  0.30568499  1
  Rb  Rb1  1  0.80568502  0.69431502  0.69431499  1
  Pb  Pb2  1  0.00000000  0.00000000  0.00000000  1
  O  O3  1  0.50000004  0.78520703  0.21479296  1
  O  O4  1  0.50000000  0.21479301  0.78520702  1
