# generated using pymatgen
data_TaTlPb3Se2O13
_symmetry_space_group_name_H-M   'P 1'
_cell_length_a   4.72800398
_cell_length_b   9.07243919
_cell_length_c   9.88205147
_cell_angle_alpha   105.69170380
_cell_angle_beta   103.84061432
_cell_angle_gamma   90.00000000
_symmetry_Int_Tables_number   1
_chemical_formula_structural   TaTlPb3Se2O13
_chemical_formula_sum   'Ta1 Tl1 Pb3 Se2 O13'
_cell_volume   395.28898130
_cell_formula_units_Z   1
loop_
 _symmetry_equiv_pos_site_id
 _symmetry_equiv_pos_as_xyz
  1  'x, y, z'
loop_
 _atom_site_type_symbol
 _atom_site_label
 _atom_site_symmetry_multiplicity
 _atom_site_fract_x
 _atom_site_fract_y
 _atom_site_fract_z
 _atom_site_occupancy
  Tl  Tl0  1  0.90631402  0.51236599  0.86950306  1
  Ta  Ta1  1  0.03681102  0.98763399  0.13049704  1
  Pb  Pb2  1  0.09368601  0.48763399  0.13049702  1
  Pb  Pb3  1  0.96318901  0.01236600  0.86950304  1
  Pb  Pb4  1  0.26259301  0.16317200  0.65344603  1
  Se  Se5  1  0.60914701  0.33682800  0.34655403  1
  Se  Se6  1  0.73740703  0.83682799  0.34655405  1
  O  O7  1  0.39085302  0.66317199  0.65344605  1
  O  O8  1  0.48478201  0.19824000  0.82025404  1
  O  O9  1  0.66452801  0.30176000  0.17974602  1
  O  O10  1  0.51521802  0.80175999  0.17974604  1
  O  O11  1  0.33547202  0.69823999  0.82025406  1
  O  O12  1  0.10428501  0.32644000  0.64558304  1
  O  O13  1  0.45870201  0.17356000  0.35441702  1
  O  O14  1  0.89571502  0.67355999  0.35441704  1
  O  O15  1  0.54129802  0.82643999  0.64558306  1
  O  O16  1  0.67700202  0.54151399  0.65702405  1
  O  O17  1  0.01997802  0.95848599  0.34297605  1
  O  O18  1  0.32299801  0.45848600  0.34297603  1
  O  O19  1  0.98002201  0.04151400  0.65702403  1
