# generated using pymatgen
data_Rb4Na2TaVO10
_symmetry_space_group_name_H-M   'P 1'
_cell_length_a   7.33265209
_cell_length_b   7.33265209
_cell_length_c   7.96948433
_cell_angle_alpha   117.39003754
_cell_angle_beta   117.39006042
_cell_angle_gamma   90.00000000
_symmetry_Int_Tables_number   1
_chemical_formula_structural   Rb4Na2TaVO10
_chemical_formula_sum   'Rb4 Na2 Ta1 V1 O10'
_cell_volume   325.41189692
_cell_formula_units_Z   1
loop_
 _symmetry_equiv_pos_site_id
 _symmetry_equiv_pos_as_xyz
  1  'x, y, z'
loop_
 _atom_site_type_symbol
 _atom_site_label
 _atom_site_symmetry_multiplicity
 _atom_site_fract_x
 _atom_site_fract_y
 _atom_site_fract_z
 _atom_site_occupancy
  Rb  Rb0  1  0.75000002  0.74999997  0.50000000  1
  Rb  Rb1  1  0.25000001  0.24999999  0.49999999  1
  Rb  Rb2  1  0.67843602  0.82156397  0.99999998  1
  Rb  Rb3  1  0.32156401  0.17843599  1.00000000  1
  Na  Na4  1  0.82156402  0.32156399  1.00000002  1
  Na  Na5  1  0.17843601  0.67843597  0.99999996  1
  V  V6  1  0.25000001  0.74999997  0.49999997  1
  Ta  Ta7  1  0.75000001  0.24999999  0.50000003  1
  O  O8  1  0.00000000  0.00000000  0.00000000  1
  O  O9  1  0.50000001  0.49999998  0.00000000  1
  O  O10  1  0.97926002  0.21804699  0.69730704  1
  O  O11  1  0.02074000  0.78195297  0.30269295  1
  O  O12  1  0.71804702  0.47925998  0.69730701  1
  O  O13  1  0.21804701  0.71804697  0.69730696  1
  O  O14  1  0.52074001  0.02074000  0.30269303  1
  O  O15  1  0.28195301  0.52073998  0.30269298  1
  O  O16  1  0.78195302  0.28195299  0.30269303  1
  O  O17  1  0.47926001  0.97925996  0.69730696  1
