# generated using pymatgen
data_Na2O2
_symmetry_space_group_name_H-M   'P 1'
_cell_length_a   3.88825798
_cell_length_b   3.88905001
_cell_length_c   5.92320299
_cell_angle_alpha   90.00000000
_cell_angle_beta   109.16092682
_cell_angle_gamma   90.00000000
_symmetry_Int_Tables_number   1
_chemical_formula_structural   Na2O2
_chemical_formula_sum   'Na2 O2'
_cell_volume   84.60642639
_cell_formula_units_Z   1
loop_
 _symmetry_equiv_pos_site_id
 _symmetry_equiv_pos_as_xyz
  1  'x, y, z'
loop_
 _atom_site_type_symbol
 _atom_site_label
 _atom_site_symmetry_multiplicity
 _atom_site_fract_x
 _atom_site_fract_y
 _atom_site_fract_z
 _atom_site_occupancy
  Na  Na0  1  0.13959300  0.25000000  0.27918600  1
  Na  Na1  1  0.86040699  0.75000000  0.72081398  1
  O  O2  1  0.35247200  0.25000000  0.70494399  1
  O  O3  1  0.64752799  0.75000000  0.29505598  1
