# generated using pymatgen
data_BaCaNdSnO3
_symmetry_space_group_name_H-M   'P 1'
_cell_length_a   6.04262781
_cell_length_b   6.92515469
_cell_length_c   6.04262781
_cell_angle_alpha   115.86683655
_cell_angle_beta   90.00000000
_cell_angle_gamma   115.86683655
_symmetry_Int_Tables_number   1
_chemical_formula_structural   BaCaNdSnO3
_chemical_formula_sum   'Ba1 Ca1 Nd1 Sn1 O3'
_cell_volume   198.99305409
_cell_formula_units_Z   1
loop_
 _symmetry_equiv_pos_site_id
 _symmetry_equiv_pos_as_xyz
  1  'x, y, z'
loop_
 _atom_site_type_symbol
 _atom_site_label
 _atom_site_symmetry_multiplicity
 _atom_site_fract_x
 _atom_site_fract_y
 _atom_site_fract_z
 _atom_site_occupancy
  Sn  Sn0  1  0.24999998  0.49999999  0.75000000  1
  Ba  Ba1  1  0.75000000  0.49999999  0.24999998  1
  Nd  Nd2  1  0.50000002  0.00000000  0.50000002  1
  Ca  Ca3  1  0.34008500  0.23712600  0.86298501  1
  O  O4  1  0.89704102  0.23712600  0.37414100  1
  O  O5  1  0.62585898  0.76287399  0.65991498  1
  O  O6  1  0.13701496  0.76287399  0.10295896  1
