# generated using pymatgen
data_TiO2
_symmetry_space_group_name_H-M   'P 1'
_cell_length_a   5.85897017
_cell_length_b   5.85897017
_cell_length_c   5.85897017
_cell_angle_alpha   107.04653931
_cell_angle_beta   111.18989563
_cell_angle_gamma   110.20569611
_symmetry_Int_Tables_number   1
_chemical_formula_structural   TiO2
_chemical_formula_sum   'Ti4 O8'
_cell_volume   154.60652237
_cell_formula_units_Z   4
loop_
 _symmetry_equiv_pos_site_id
 _symmetry_equiv_pos_as_xyz
  1  'x, y, z'
loop_
 _atom_site_type_symbol
 _atom_site_label
 _atom_site_symmetry_multiplicity
 _atom_site_fract_x
 _atom_site_fract_y
 _atom_site_fract_z
 _atom_site_occupancy
  Ti  Ti0  1  0.50000005  0.50000001  0.00000006  1
  Ti  Ti1  1  0.50000007  1.00000002  0.50000007  1
  Ti  Ti2  1  0.01406904  0.76406901  0.75000002  1
  Ti  Ti3  1  0.98593105  0.23593100  0.25000006  1
  O  O4  1  0.80871705  0.31937700  0.51066004  1
  O  O5  1  0.19128304  0.68062301  0.48934003  1
  O  O6  1  0.80871707  0.79805701  0.98933905  1
  O  O7  1  0.19128302  0.20194300  0.01066102  1
  O  O8  1  0.71664807  0.76440701  0.45224007  1
  O  O9  1  0.68783304  0.23559200  0.95224102  1
  O  O10  1  0.31216705  0.76440801  0.04775906  1
  O  O11  1  0.28335202  0.23559300  0.54776001  1
