# generated using pymatgen
data_K5V3O8
_symmetry_space_group_name_H-M   'P 1'
_cell_length_a   5.21791410
_cell_length_b   8.86042976
_cell_length_c   8.86042976
_cell_angle_alpha   120.00000000
_cell_angle_beta   90.00000000
_cell_angle_gamma   90.00000000
_symmetry_Int_Tables_number   1
_chemical_formula_structural   K5V3O8
_chemical_formula_sum   'K5 V3 O8'
_cell_volume   354.76203047
_cell_formula_units_Z   1
loop_
 _symmetry_equiv_pos_site_id
 _symmetry_equiv_pos_as_xyz
  1  'x, y, z'
loop_
 _atom_site_type_symbol
 _atom_site_label
 _atom_site_symmetry_multiplicity
 _atom_site_fract_x
 _atom_site_fract_y
 _atom_site_fract_z
 _atom_site_occupancy
  K  K0  1  0.00172300  0.28079700  0.37024698  1
  K  K1  1  0.00172300  0.08945000  0.71920198  1
  K  K2  1  0.50172299  0.37024800  0.08945099  1
  K  K3  1  0.50172299  0.71920301  0.62975297  1
  K  K4  1  0.50172299  0.91055001  0.28079797  1
  V  V5  1  0.00172300  0.62975201  0.91054896  1
  V  V6  1  0.01292100  0.66666667  0.33333331  1
  V  V7  1  0.51292099  0.33333334  0.66666664  1
  O  O8  1  0.41851099  0.39800800  0.54156498  1
  O  O9  1  0.91851098  0.54156501  0.14355698  1
  O  O10  1  0.91851098  0.85644301  0.39800797  1
  O  O11  1  0.41851099  0.14355700  0.60199198  1
  O  O12  1  0.31577699  0.66666667  0.33333331  1
  O  O13  1  0.91851098  0.60199201  0.45843497  1
  O  O14  1  0.81577698  0.33333334  0.66666664  1
  O  O15  1  0.41851099  0.45843501  0.85644297  1
