# generated using pymatgen
data_CsLiF2
_symmetry_space_group_name_H-M   'P 1'
_cell_length_a   5.34601021
_cell_length_b   6.16145992
_cell_length_c   6.85838938
_cell_angle_alpha   90.00000000
_cell_angle_beta   112.93846893
_cell_angle_gamma   90.00000000
_symmetry_Int_Tables_number   1
_chemical_formula_structural   CsLiF2
_chemical_formula_sum   'Cs2 Li2 F4'
_cell_volume   208.04597158
_cell_formula_units_Z   2
loop_
 _symmetry_equiv_pos_site_id
 _symmetry_equiv_pos_as_xyz
  1  'x, y, z'
loop_
 _atom_site_type_symbol
 _atom_site_label
 _atom_site_symmetry_multiplicity
 _atom_site_fract_x
 _atom_site_fract_y
 _atom_site_fract_z
 _atom_site_occupancy
  Cs  Cs0  1  0.30856999  0.25000000  0.61714001  1
  Cs  Cs1  1  0.69142997  0.75000001  0.38286000  1
  Li  Li2  1  0.99787995  0.75000001  0.99576000  1
  Li  Li3  1  0.00212000  0.25000000  0.00424000  1
  F  F4  1  0.10618000  0.99601001  0.21236000  1
  F  F5  1  0.89381996  0.49601001  0.78764000  1
  F  F6  1  0.10618000  0.50399001  0.21236000  1
  F  F7  1  0.89381996  0.00399000  0.78764000  1
