# generated using pymatgen
data_Zn2Cu3Se5
_symmetry_space_group_name_H-M   'P 1'
_cell_length_a   4.12252331
_cell_length_b   4.12252331
_cell_length_c   17.12150764
_cell_angle_alpha   83.08538055
_cell_angle_beta   83.08538055
_cell_angle_gamma   60.00000763
_symmetry_Int_Tables_number   1
_chemical_formula_structural   Zn2Cu3Se5
_chemical_formula_sum   'Zn2 Cu3 Se5'
_cell_volume   249.55222678
_cell_formula_units_Z   1
loop_
 _symmetry_equiv_pos_site_id
 _symmetry_equiv_pos_as_xyz
  1  'x, y, z'
loop_
 _atom_site_type_symbol
 _atom_site_label
 _atom_site_symmetry_multiplicity
 _atom_site_fract_x
 _atom_site_fract_y
 _atom_site_fract_z
 _atom_site_occupancy
  Zn  Zn0  1  0.59734502  0.59734503  0.20796501  1
  Zn  Zn1  1  0.19922101  0.19922101  0.40233702  1
  Cu  Cu2  1  0.80074303  0.80074304  0.59777103  1
  Cu  Cu3  1  0.40286201  0.40286202  0.79141404  1
  Cu  Cu4  1  0.99890803  0.99890805  0.00327600  1
  Se  Se5  1  0.94638803  0.94638805  0.16083601  1
  Se  Se6  1  0.54840402  0.54840403  0.35478802  1
  Se  Se7  1  0.15013400  0.15013401  0.54959803  1
  Se  Se8  1  0.75184302  0.75184304  0.74447104  1
  Se  Se9  1  0.35415101  0.35415102  0.93754705  1
