# generated using pymatgen
data_Li3PO5
_symmetry_space_group_name_H-M   'P 1'
_cell_length_a   5.50048590
_cell_length_b   5.50065231
_cell_length_c   7.11396313
_cell_angle_alpha   108.64851379
_cell_angle_beta   108.64436340
_cell_angle_gamma   89.54648590
_symmetry_Int_Tables_number   1
_chemical_formula_structural   Li3PO5
_chemical_formula_sum   'Li6 P2 O10'
_cell_volume   192.16950558
_cell_formula_units_Z   2
loop_
 _symmetry_equiv_pos_site_id
 _symmetry_equiv_pos_as_xyz
  1  'x, y, z'
loop_
 _atom_site_type_symbol
 _atom_site_label
 _atom_site_symmetry_multiplicity
 _atom_site_fract_x
 _atom_site_fract_y
 _atom_site_fract_z
 _atom_site_occupancy
  Li  Li0  1  0.55142604  0.60228504  0.74620404  1
  Li  Li1  1  0.10238500  0.05146100  0.24642501  1
  Li  Li2  1  0.89733107  0.94901606  0.75438005  1
  Li  Li3  1  0.44907803  0.39714003  0.25422802  1
  Li  Li4  1  0.00031904  0.50025103  0.50006304  1
  Li  Li5  1  0.00035304  0.50024903  0.99997005  1
  P  P6  1  0.37259601  0.12709001  0.74985302  1
  P  P7  1  0.62708306  0.87264106  0.24988104  1
  O  O8  1  0.27421802  0.26702702  0.58251502  1
  O  O9  1  0.66666001  0.19488701  0.84970702  1
  O  O10  1  0.90883804  0.59149404  0.75000103  1
  O  O11  1  0.76740306  0.77456605  0.08273103  1
  O  O12  1  0.30563406  0.83298605  0.65018705  1
  O  O13  1  0.69486001  0.16676701  0.34996901  1
  O  O14  1  0.23235202  0.22523301  0.91701503  1
  O  O15  1  0.09151003  0.40890603  0.25000703  1
  O  O16  1  0.33300806  0.80584005  0.14997804  1
  O  O17  1  0.72494405  0.73215905  0.41688504  1
