# generated using pymatgen
data_TlCu2AgS4
_symmetry_space_group_name_H-M   'P 1'
_cell_length_a   5.83944368
_cell_length_b   5.83944368
_cell_length_c   5.83944368
_cell_angle_alpha   89.63249207
_cell_angle_beta   89.63249207
_cell_angle_gamma   89.63247681
_symmetry_Int_Tables_number   1
_chemical_formula_structural   TlCu2AgS4
_chemical_formula_sum   'Tl1 Cu2 Ag1 S4'
_cell_volume   199.10755255
_cell_formula_units_Z   1
loop_
 _symmetry_equiv_pos_site_id
 _symmetry_equiv_pos_as_xyz
  1  'x, y, z'
loop_
 _atom_site_type_symbol
 _atom_site_label
 _atom_site_symmetry_multiplicity
 _atom_site_fract_x
 _atom_site_fract_y
 _atom_site_fract_z
 _atom_site_occupancy
  Tl  Tl0  1  0.99664598  0.99664600  0.99664609  1
  Ag  Ag1  1  0.50490998  0.99336900  0.99336907  1
  Cu  Cu2  1  0.99336898  0.99336900  0.50491009  1
  Cu  Cu3  1  0.99336899  0.50491000  0.99336907  1
  S  S4  1  0.25253398  0.74295700  0.25253405  1
  S  S5  1  0.25253399  0.25253400  0.74295703  1
  S  S6  1  0.74295700  0.25253400  0.25253405  1
  S  S7  1  0.76367998  0.76368000  0.76368007  1
