# generated using pymatgen
data_BCO2
_symmetry_space_group_name_H-M   'P 1'
_cell_length_a   3.61050677
_cell_length_b   3.61050677
_cell_length_c   5.30488729
_cell_angle_alpha   70.10483551
_cell_angle_beta   70.10483551
_cell_angle_gamma   59.99998474
_symmetry_Int_Tables_number   1
_chemical_formula_structural   BCO2
_chemical_formula_sum   'B1 C1 O2'
_cell_volume   55.07114453
_cell_formula_units_Z   1
loop_
 _symmetry_equiv_pos_site_id
 _symmetry_equiv_pos_as_xyz
  1  'x, y, z'
loop_
 _atom_site_type_symbol
 _atom_site_label
 _atom_site_symmetry_multiplicity
 _atom_site_fract_x
 _atom_site_fract_y
 _atom_site_fract_z
 _atom_site_occupancy
  B  B0  1  0.00000000  0.00000000  0.00000000  1
  C  C1  1  0.50000003  0.50000001  0.49999995  1
  O  O2  1  0.58454404  0.58454401  0.24636794  1
  O  O3  1  0.41545603  0.41545601  0.75363196  1
