# generated using pymatgen
data_LiPHO5
_symmetry_space_group_name_H-M   'P 1'
_cell_length_a   5.09742785
_cell_length_b   5.19049263
_cell_length_c   7.19182491
_cell_angle_alpha   109.53371429
_cell_angle_beta   106.23518372
_cell_angle_gamma   97.73310089
_symmetry_Int_Tables_number   1
_chemical_formula_structural   LiPHO5
_chemical_formula_sum   'Li2 P2 H2 O10'
_cell_volume   166.62200260
_cell_formula_units_Z   2
loop_
 _symmetry_equiv_pos_site_id
 _symmetry_equiv_pos_as_xyz
  1  'x, y, z'
loop_
 _atom_site_type_symbol
 _atom_site_label
 _atom_site_symmetry_multiplicity
 _atom_site_fract_x
 _atom_site_fract_y
 _atom_site_fract_z
 _atom_site_occupancy
  Li  Li0  1  0.49999997  0.49999998  0.49999999  1
  Li  Li1  1  0.00000000  0.00000000  0.00000000  1
  P  P2  1  0.55489397  0.88035496  0.23135497  1
  P  P3  1  0.44510598  0.11964500  0.76864501  1
  H  H4  1  0.98692696  0.30285899  0.33716700  1
  H  H5  1  0.01307299  0.69714097  0.66283298  1
  O  O6  1  0.86611096  0.67943397  0.72747399  1
  O  O7  1  0.67104697  0.19613599  0.39106600  1
  O  O8  1  0.35936498  0.31872799  0.65704200  1
  O  O9  1  0.70001196  0.83719597  0.06561997  1
  O  O10  1  0.23210798  0.79828097  0.12501797  1
  O  O11  1  0.76789197  0.20171899  0.87498201  1
  O  O12  1  0.29998799  0.16280399  0.93438001  1
  O  O13  1  0.64063497  0.68127197  0.34295798  1
  O  O14  1  0.32895298  0.80386397  0.60893398  1
  O  O15  1  0.13388899  0.32056599  0.27252599  1
