# generated using pymatgen
data_Ba3Ge(BiSe3)2
_symmetry_space_group_name_H-M   'P 1'
_cell_length_a   4.70091295
_cell_length_b   7.68612719
_cell_length_c   8.47508240
_cell_angle_alpha   90.00000000
_cell_angle_beta   90.00000000
_cell_angle_gamma   90.00000000
_symmetry_Int_Tables_number   1
_chemical_formula_structural   Ba3Ge(BiSe3)2
_chemical_formula_sum   'Ba3 Ge1 Bi2 Se6'
_cell_volume   306.22010795
_cell_formula_units_Z   1
loop_
 _symmetry_equiv_pos_site_id
 _symmetry_equiv_pos_as_xyz
  1  'x, y, z'
loop_
 _atom_site_type_symbol
 _atom_site_label
 _atom_site_symmetry_multiplicity
 _atom_site_fract_x
 _atom_site_fract_y
 _atom_site_fract_z
 _atom_site_occupancy
  Ba  Ba0  1  0.75000001  0.18357700  0.00076300  1
  Ba  Ba1  1  0.25000000  0.81642298  0.99923695  1
  Ba  Ba2  1  0.75000001  0.31642299  0.50076298  1
  Bi  Bi3  1  0.25000000  0.68357698  0.49923698  1
  Bi  Bi4  1  0.25000000  0.08444200  0.67532797  1
  Ge  Ge5  1  0.75000001  0.91555798  0.32467198  1
  Se  Se6  1  0.25000000  0.41555799  0.17532799  1
  Se  Se7  1  0.75000001  0.58444199  0.82467196  1
  Se  Se8  1  0.75000001  0.59971699  0.18458499  1
  Se  Se9  1  0.25000000  0.40028299  0.81541496  1
  Se  Se10  1  0.75000001  0.90028298  0.68458497  1
  Se  Se11  1  0.25000000  0.09971700  0.31541499  1
