# generated using pymatgen
data_CaH2NO4F5
_symmetry_space_group_name_H-M   'P 1'
_cell_length_a   5.54308462
_cell_length_b   5.54308462
_cell_length_c   7.58101368
_cell_angle_alpha   68.60967255
_cell_angle_beta   68.60967255
_cell_angle_gamma   61.17335129
_symmetry_Int_Tables_number   1
_chemical_formula_structural   CaH2NO4F5
_chemical_formula_sum   'Ca1 H2 N1 O4 F5'
_cell_volume   184.84847974
_cell_formula_units_Z   1
loop_
 _symmetry_equiv_pos_site_id
 _symmetry_equiv_pos_as_xyz
  1  'x, y, z'
loop_
 _atom_site_type_symbol
 _atom_site_label
 _atom_site_symmetry_multiplicity
 _atom_site_fract_x
 _atom_site_fract_y
 _atom_site_fract_z
 _atom_site_occupancy
  Ca  Ca0  1  0.09576901  0.09576900  0.20827900  1
  N  N1  1  0.90423105  0.90423101  0.79172096  1
  H  H2  1  0.72205504  0.72205500  0.35827197  1
  H  H3  1  0.27794502  0.27794500  0.64172800  1
  O  O4  1  0.50000003  0.50000000  -0.00000003  1
  O  O5  1  0.78493502  0.23391600  0.71679699  1
  O  O6  1  0.21506503  0.76608400  0.28320298  1
  O  O7  1  0.76608402  0.21506500  0.28320298  1
  F  F8  1  0.23391603  0.78493500  0.71679698  1
  F  F9  1  0.77826304  0.77826300  0.71142497  1
  F  F10  1  0.22173701  0.22173700  0.28857499  1
  F  F11  1  0.17595901  0.17595900  0.98262601  1
  F  F12  1  0.82404105  0.82404101  0.01737395  1
