# generated using pymatgen
data_CeHfTi2O8
_symmetry_space_group_name_H-M   'P 1'
_cell_length_a   4.96015787
_cell_length_b   4.96015787
_cell_length_c   6.27118778
_cell_angle_alpha   113.29541016
_cell_angle_beta   113.29541016
_cell_angle_gamma   90.00000000
_symmetry_Int_Tables_number   1
_chemical_formula_structural   CeHfTi2O8
_chemical_formula_sum   'Ce1 Hf1 Ti2 O8'
_cell_volume   127.90384940
_cell_formula_units_Z   1
loop_
 _symmetry_equiv_pos_site_id
 _symmetry_equiv_pos_as_xyz
  1  'x, y, z'
loop_
 _atom_site_type_symbol
 _atom_site_label
 _atom_site_symmetry_multiplicity
 _atom_site_fract_x
 _atom_site_fract_y
 _atom_site_fract_z
 _atom_site_occupancy
  Ti  Ti0  1  0.24999996  0.74999999  0.49999993  1
  Ce  Ce1  1  0.49999997  0.50000000  -0.00000006  1
  Hf  Hf2  1  0.00000000  0.00000000  0.00000000  1
  Ti  Ti3  1  0.74999999  0.25000000  0.49999994  1
  O  O4  1  0.57544799  0.10476500  0.67870595  1
  O  O5  1  0.32394095  0.82544899  0.17870692  1
  O  O6  1  0.85476498  0.35325700  0.17870493  1
  O  O7  1  0.64674196  0.67605899  0.82129391  1
  O  O8  1  0.10325797  0.57394099  0.67870594  1
  O  O9  1  0.89523495  0.89674299  0.32129489  1
  O  O10  1  0.42605898  0.42455100  0.32129294  1
  O  O11  1  0.17455199  0.14523500  0.82129397  1
