# generated using pymatgen
data_Li2CoO6
_symmetry_space_group_name_H-M   'P 1'
_cell_length_a   4.57635021
_cell_length_b   4.57635021
_cell_length_c   9.12640476
_cell_angle_alpha   90.00000000
_cell_angle_beta   90.00000000
_cell_angle_gamma   90.00000000
_symmetry_Int_Tables_number   1
_chemical_formula_structural   Li2CoO6
_chemical_formula_sum   'Li4 Co2 O12'
_cell_volume   191.13412394
_cell_formula_units_Z   2
loop_
 _symmetry_equiv_pos_site_id
 _symmetry_equiv_pos_as_xyz
  1  'x, y, z'
loop_
 _atom_site_type_symbol
 _atom_site_label
 _atom_site_symmetry_multiplicity
 _atom_site_fract_x
 _atom_site_fract_y
 _atom_site_fract_z
 _atom_site_occupancy
  Li  Li0  1  0.49999998  0.49999998  0.16548500  1
  Li  Li1  1  0.00000000  0.00000000  0.66548502  1
  Li  Li2  1  0.49999998  0.49999998  0.83365202  1
  Li  Li3  1  0.00000000  0.00000000  0.33365201  1
  Co  Co4  1  0.49999998  0.49999998  0.49990001  1
  Co  Co5  1  0.00000000  0.00000000  0.99990003  1
  O  O6  1  0.19623499  0.80376496  0.49781201  1
  O  O7  1  0.80376496  0.19623499  0.49781201  1
  O  O8  1  0.30376499  0.30376499  0.99781203  1
  O  O9  1  0.69623497  0.69623497  0.99781203  1
  O  O10  1  0.18982699  0.81017296  0.16647700  1
  O  O11  1  0.81017296  0.18982699  0.16647700  1
  O  O12  1  0.31017299  0.31017299  0.66647702  1
  O  O13  1  0.68982697  0.68982697  0.66647702  1
  O  O14  1  0.80342696  0.19657299  0.83619202  1
  O  O15  1  0.19657299  0.80342696  0.83619202  1
  O  O16  1  0.69657297  0.69657297  0.33619201  1
  O  O17  1  0.30342799  0.30342799  0.33619201  1
