# generated using pymatgen
data_Sr4NbWO10
_symmetry_space_group_name_H-M   'P 1'
_cell_length_a   5.36741495
_cell_length_b   5.67026997
_cell_length_c   9.46993637
_cell_angle_alpha   92.41487885
_cell_angle_beta   90.00000000
_cell_angle_gamma   90.00000000
_symmetry_Int_Tables_number   1
_chemical_formula_structural   Sr4NbWO10
_chemical_formula_sum   'Sr4 Nb1 W1 O10'
_cell_volume   287.95863770
_cell_formula_units_Z   1
loop_
 _symmetry_equiv_pos_site_id
 _symmetry_equiv_pos_as_xyz
  1  'x, y, z'
loop_
 _atom_site_type_symbol
 _atom_site_label
 _atom_site_symmetry_multiplicity
 _atom_site_fract_x
 _atom_site_fract_y
 _atom_site_fract_z
 _atom_site_occupancy
  Sr  Sr0  1  0.29348400  0.81983500  0.19004398  1
  Sr  Sr1  1  0.70651601  0.31983500  0.19004399  1
  Sr  Sr2  1  0.82418001  0.75000000  0.49999997  1
  Sr  Sr3  1  0.17582000  0.25000000  0.49999998  1
  W  W4  1  0.29348400  0.68016500  0.80995596  1
  Nb  Nb5  1  0.70651601  0.18016500  0.80995597  1
  O  O6  1  0.45628900  0.54347200  0.27408398  1
  O  O7  1  0.54371100  0.04347200  0.27408399  1
  O  O8  1  0.09037500  0.90640900  0.37932298  1
  O  O9  1  0.90962501  0.40640900  0.37932298  1
  O  O10  1  0.09037500  0.59359100  0.62067697  1
  O  O11  1  0.90962501  0.09359100  0.62067698  1
  O  O12  1  0.45628900  0.95652800  0.72591596  1
  O  O13  1  0.54371100  0.45652800  0.72591597  1
  O  O14  1  0.57512301  0.75000000  -0.00000001  1
  O  O15  1  0.42487700  0.25000000  -0.00000000  1
