# generated using pymatgen
data_Li2VO4
_symmetry_space_group_name_H-M   'P 1'
_cell_length_a   5.86719942
_cell_length_b   5.86719942
_cell_length_c   6.73449087
_cell_angle_alpha   103.64109039
_cell_angle_beta   103.64109039
_cell_angle_gamma   117.29668427
_symmetry_Int_Tables_number   1
_chemical_formula_structural   Li2VO4
_chemical_formula_sum   'Li4 V2 O8'
_cell_volume   183.63276152
_cell_formula_units_Z   2
loop_
 _symmetry_equiv_pos_site_id
 _symmetry_equiv_pos_as_xyz
  1  'x, y, z'
loop_
 _atom_site_type_symbol
 _atom_site_label
 _atom_site_symmetry_multiplicity
 _atom_site_fract_x
 _atom_site_fract_y
 _atom_site_fract_z
 _atom_site_occupancy
  Li  Li0  1  0.56416100  0.43583900  0.49999997  1
  Li  Li1  1  0.93583898  0.06416100  0.49999997  1
  Li  Li2  1  0.68583899  0.31416100  -0.00000002  1
  Li  Li3  1  0.31416101  0.68583899  -0.00000002  1
  V  V4  1  0.25000001  0.74999999  0.49999997  1
  V  V5  1  0.00000000  0.00000000  0.00000000  1
  O  O6  1  0.27195400  0.56549799  0.64749797  1
  O  O7  1  0.91799999  0.62445599  0.35250196  1
  O  O8  1  0.43450200  0.72804599  0.35250197  1
  O  O9  1  0.37554399  0.08200000  0.64749798  1
  O  O10  1  0.97804598  0.18450200  0.85250196  1
  O  O11  1  0.33200000  0.12554400  0.14749799  1
  O  O12  1  0.87445599  0.66799999  0.85250195  1
  O  O13  1  0.81549798  0.02195400  0.14749798  1
