# generated using pymatgen
data_Ba2LaBiO6
_symmetry_space_group_name_H-M   'P 1'
_cell_length_a   6.17873907
_cell_length_b   6.25627136
_cell_length_c   8.79594231
_cell_angle_alpha   90.13858795
_cell_angle_beta   89.67349243
_cell_angle_gamma   89.94004822
_symmetry_Int_Tables_number   1
_chemical_formula_structural   Ba2LaBiO6
_chemical_formula_sum   'Ba4 La2 Bi2 O12'
_cell_volume   340.00808082
_cell_formula_units_Z   2
loop_
 _symmetry_equiv_pos_site_id
 _symmetry_equiv_pos_as_xyz
  1  'x, y, z'
loop_
 _atom_site_type_symbol
 _atom_site_label
 _atom_site_symmetry_multiplicity
 _atom_site_fract_x
 _atom_site_fract_y
 _atom_site_fract_z
 _atom_site_occupancy
  Ba  Ba0  1  0.99294787  0.03299903  0.25026135  1
  Ba  Ba1  1  0.00705210  0.96700097  0.74973872  1
  Ba  Ba2  1  0.50928218  0.53771446  0.25146719  1
  Ba  Ba3  1  0.49071778  0.46228554  0.74853288  1
  La  La4  1  0.49999999  0.00000000  0.00000002  1
  La  La5  1  -0.00000001  0.50000000  0.50000001  1
  Bi  Bi6  1  -0.00000001  0.50000000  0.00000002  1
  Bi  Bi7  1  0.49999999  0.00000000  0.50000002  1
  O  O8  1  0.19778924  0.22405956  0.95634322  1
  O  O9  1  0.31039060  0.71777071  0.55177247  1
  O  O10  1  0.80221072  0.77594044  0.04365685  1
  O  O11  1  0.68960937  0.28222929  0.44822760  1
  O  O12  1  0.27819938  0.69593456  0.94764092  1
  O  O13  1  0.22206665  0.19948191  0.53521605  1
  O  O14  1  0.72180059  0.30406544  0.05235915  1
  O  O15  1  0.77793331  0.80051809  0.46478402  1
  O  O16  1  0.42601347  0.95326382  0.26330079  1
  O  O17  1  0.09737887  0.48448904  0.23591786  1
  O  O18  1  0.57398649  0.04673618  0.73669928  1
  O  O19  1  0.90262110  0.51551096  0.76408221  1
