# generated using pymatgen
data_LiCaPO5
_symmetry_space_group_name_H-M   'P 1'
_cell_length_a   6.24680090
_cell_length_b   7.21004534
_cell_length_c   7.37187195
_cell_angle_alpha   106.92953491
_cell_angle_beta   102.57798004
_cell_angle_gamma   109.87224579
_symmetry_Int_Tables_number   1
_chemical_formula_structural   LiCaPO5
_chemical_formula_sum   'Li2 Ca2 P2 O10'
_cell_volume   279.59804381
_cell_formula_units_Z   2
loop_
 _symmetry_equiv_pos_site_id
 _symmetry_equiv_pos_as_xyz
  1  'x, y, z'
loop_
 _atom_site_type_symbol
 _atom_site_label
 _atom_site_symmetry_multiplicity
 _atom_site_fract_x
 _atom_site_fract_y
 _atom_site_fract_z
 _atom_site_occupancy
  Ca  Ca0  1  0.69114800  0.33890901  0.12997602  1
  Ca  Ca1  1  0.30885199  0.66109101  0.87002406  1
  Li  Li2  1  0.86339199  0.94218602  0.70787407  1
  Li  Li3  1  0.13660800  0.05781400  0.29212601  1
  P  P4  1  0.67007600  0.36188601  0.66007004  1
  P  P5  1  0.32992399  0.63811401  0.33993004  1
  O  O6  1  0.51658399  0.64061901  0.24709404  1
  O  O7  1  0.48341600  0.35938101  0.75290604  1
  O  O8  1  0.18111999  0.41923501  0.32638703  1
  O  O9  1  0.15813198  0.71068401  0.23835204  1
  O  O10  1  0.54834800  0.21118200  0.43725703  1
  O  O11  1  0.45165199  0.78881801  0.56274306  1
  O  O12  1  0.81888000  0.58076501  0.67361305  1
  O  O13  1  0.84186801  0.28931601  0.76164804  1
  O  O14  1  0.23617200  0.02421300  0.03321600  1
  O  O15  1  0.76382799  0.97578702  0.96678408  1
