# generated using pymatgen
data_Li3CaCr4O12
_symmetry_space_group_name_H-M   'P 1'
_cell_length_a   5.22777700
_cell_length_b   5.38285780
_cell_length_c   7.63927794
_cell_angle_alpha   90.00000000
_cell_angle_beta   90.00000000
_cell_angle_gamma   91.29205322
_symmetry_Int_Tables_number   1
_chemical_formula_structural   Li3CaCr4O12
_chemical_formula_sum   'Li3 Ca1 Cr4 O12'
_cell_volume   214.91752825
_cell_formula_units_Z   1
loop_
 _symmetry_equiv_pos_site_id
 _symmetry_equiv_pos_as_xyz
  1  'x, y, z'
loop_
 _atom_site_type_symbol
 _atom_site_label
 _atom_site_symmetry_multiplicity
 _atom_site_fract_x
 _atom_site_fract_y
 _atom_site_fract_z
 _atom_site_occupancy
  Li  Li0  1  0.52041803  0.56921498  0.25000000  1
  Li  Li1  1  0.47958202  0.43078498  0.75000001  1
  Li  Li2  1  0.01314400  0.03424600  0.25000000  1
  Ca  Ca3  1  0.98685605  0.96575397  0.75000001  1
  Cr  Cr4  1  0.50000000  0.00000000  0.50000000  1
  Cr  Cr5  1  0.50000000  0.00000000  0.00000000  1
  Cr  Cr6  1  0.00000003  0.49999998  0.50000000  1
  Cr  Cr7  1  0.00000003  0.49999998  -0.00000000  1
  O  O8  1  0.32104504  0.67733098  0.56856500  1
  O  O9  1  0.16901301  0.19043399  0.93018401  1
  O  O10  1  0.67895502  0.32266899  0.06856500  1
  O  O11  1  0.83098704  0.80956597  0.43018400  1
  O  O12  1  0.16901301  0.19043399  0.56981600  1
  O  O13  1  0.83098704  0.80956597  0.06981600  1
  O  O14  1  0.86124503  0.57191798  0.75000001  1
  O  O15  1  0.32104504  0.67733098  0.93143501  1
  O  O16  1  0.38077505  0.93030397  0.25000000  1
  O  O17  1  0.67895502  0.32266899  0.43143500  1
  O  O18  1  0.13875502  0.42808198  0.25000000  1
  O  O19  1  0.61922500  0.06969600  0.75000001  1
