# generated using pymatgen
data_BaI2
_symmetry_space_group_name_H-M   'P 1'
_cell_length_a   7.89828300
_cell_length_b   7.89828300
_cell_length_c   15.32772255
_cell_angle_alpha   90.00000000
_cell_angle_beta   90.00000000
_cell_angle_gamma   90.00000000
_symmetry_Int_Tables_number   1
_chemical_formula_structural   BaI2
_chemical_formula_sum   'Ba6 I12'
_cell_volume   956.18739100
_cell_formula_units_Z   6
loop_
 _symmetry_equiv_pos_site_id
 _symmetry_equiv_pos_as_xyz
  1  'x, y, z'
loop_
 _atom_site_type_symbol
 _atom_site_label
 _atom_site_symmetry_multiplicity
 _atom_site_fract_x
 _atom_site_fract_y
 _atom_site_fract_z
 _atom_site_occupancy
  Ba  Ba0  1  0.00000000  0.00000000  0.33432101  1
  Ba  Ba1  1  0.00000000  0.00000000  0.66567902  1
  Ba  Ba2  1  0.50000000  0.50000000  0.16567900  1
  Ba  Ba3  1  0.50000000  0.50000000  0.83432102  1
  Ba  Ba4  1  0.00000000  0.00000000  0.00000000  1
  Ba  Ba5  1  0.50000000  0.50000000  0.50000001  1
  I  I6  1  0.18871200  0.81128800  0.15455600  1
  I  I7  1  0.18871200  0.81128800  0.84544402  1
  I  I8  1  0.21327600  0.78672400  0.50000001  1
  I  I9  1  0.28672400  0.28672400  -0.00000000  1
  I  I10  1  0.31128800  0.31128800  0.34544401  1
  I  I11  1  0.31128800  0.31128800  0.65455602  1
  I  I12  1  0.68871200  0.68871200  0.34544401  1
  I  I13  1  0.68871200  0.68871200  0.65455602  1
  I  I14  1  0.71327600  0.71327600  0.00000000  1
  I  I15  1  0.78672400  0.21327600  0.50000001  1
  I  I16  1  0.81128800  0.18871200  0.15455600  1
  I  I17  1  0.81128800  0.18871200  0.84544402  1
