# generated using pymatgen
data_Li3CoO4
_symmetry_space_group_name_H-M   'P 1'
_cell_length_a   5.11719084
_cell_length_b   5.18136501
_cell_length_c   5.94303513
_cell_angle_alpha   73.32030487
_cell_angle_beta   89.99526978
_cell_angle_gamma   80.80447388
_symmetry_Int_Tables_number   1
_chemical_formula_structural   Li3CoO4
_chemical_formula_sum   'Li6 Co2 O8'
_cell_volume   148.82922533
_cell_formula_units_Z   2
loop_
 _symmetry_equiv_pos_site_id
 _symmetry_equiv_pos_as_xyz
  1  'x, y, z'
loop_
 _atom_site_type_symbol
 _atom_site_label
 _atom_site_symmetry_multiplicity
 _atom_site_fract_x
 _atom_site_fract_y
 _atom_site_fract_z
 _atom_site_occupancy
  Li  Li0  1  0.00251892  0.99831705  0.00092396  1
  Li  Li1  1  0.49747300  0.00170900  0.24904102  1
  Li  Li2  1  0.00658100  0.00086700  0.49927400  1
  Li  Li3  1  0.49343193  0.99912505  0.75068399  1
  Li  Li4  1  0.74998697  0.50002303  0.62501302  1
  Li  Li5  1  0.25005596  0.49979103  0.37566700  1
  Co  Co6  1  0.24995396  0.50015803  0.87435400  1
  Co  Co7  1  0.75005897  0.50001203  0.12495501  1
  O  O8  1  0.12093898  0.27512101  0.18102500  1
  O  O9  1  0.37898295  0.72490304  0.06894899  1
  O  O10  1  0.62124199  0.27320901  0.43052502  1
  O  O11  1  0.87876695  0.72679704  0.81951702  1
  O  O12  1  0.87906095  0.72641304  0.31711801  1
  O  O13  1  0.62094799  0.27361301  0.93293003  1
  O  O14  1  0.12886298  0.26973301  0.68289700  1
  O  O15  1  0.37113795  0.73021004  0.56712399  1
