# generated using pymatgen
data_KTa(MoS3)2
_symmetry_space_group_name_H-M   'P 1'
_cell_length_a   6.30377102
_cell_length_b   6.35148668
_cell_length_c   6.40036964
_cell_angle_alpha   100.45015717
_cell_angle_beta   101.08314514
_cell_angle_gamma   99.81176758
_symmetry_Int_Tables_number   1
_chemical_formula_structural   KTa(MoS3)2
_chemical_formula_sum   'K1 Ta1 Mo2 S6'
_cell_volume   241.64978845
_cell_formula_units_Z   1
loop_
 _symmetry_equiv_pos_site_id
 _symmetry_equiv_pos_as_xyz
  1  'x, y, z'
loop_
 _atom_site_type_symbol
 _atom_site_label
 _atom_site_symmetry_multiplicity
 _atom_site_fract_x
 _atom_site_fract_y
 _atom_site_fract_z
 _atom_site_occupancy
  K  K0  1  0.05672700  0.05686500  0.06052901  1
  Ta  Ta1  1  0.51581999  0.66510701  0.24398306  1
  Mo  Mo2  1  0.24750399  0.52524701  0.65940905  1
  Mo  Mo3  1  0.66325500  0.24382700  0.52012004  1
  S  S4  1  0.92652500  0.47123101  0.79128307  1
  S  S5  1  0.79698399  0.93689802  0.48176309  1
  S  S6  1  0.47728399  0.79476801  0.93155408  1
  S  S7  1  0.33587800  0.18399000  0.60893103  1
  S  S8  1  0.61523000  0.32839801  0.19170304  1
  S  S9  1  0.17963199  0.60850901  0.32556505  1
