# generated using pymatgen
data_Ba5La2SnTeSe5
_symmetry_space_group_name_H-M   'P 1'
_cell_length_a   7.91805506
_cell_length_b   7.91805506
_cell_length_c   10.35716057
_cell_angle_alpha   90.00000000
_cell_angle_beta   90.00000000
_cell_angle_gamma   104.31667328
_symmetry_Int_Tables_number   1
_chemical_formula_structural   Ba5La2SnTeSe5
_chemical_formula_sum   'Ba5 La2 Sn1 Te1 Se5'
_cell_volume   629.18206955
_cell_formula_units_Z   1
loop_
 _symmetry_equiv_pos_site_id
 _symmetry_equiv_pos_as_xyz
  1  'x, y, z'
loop_
 _atom_site_type_symbol
 _atom_site_label
 _atom_site_symmetry_multiplicity
 _atom_site_fract_x
 _atom_site_fract_y
 _atom_site_fract_z
 _atom_site_occupancy
  Ba  Ba0  1  0.57022700  0.42977299  0.75000003  1
  Ba  Ba1  1  0.42977301  0.57022699  0.25000001  1
  Ba  Ba2  1  0.20825203  0.79174799  0.75000003  1
  Ba  Ba3  1  0.79174799  0.20825200  0.25000001  1
  Sn  Sn4  1  0.33265000  0.12019100  0.45809702  1
  Ba  Ba5  1  0.12019101  0.33264999  0.54190302  1
  La  La6  1  0.33265000  0.12019100  0.04190300  1
  La  La7  1  0.12019101  0.33264999  0.95809704  1
  Te  Te8  1  0.66735002  0.87980898  0.54190302  1
  Se  Se9  1  0.87980901  0.66734999  0.45809702  1
  Se  Se10  1  0.66735002  0.87980898  0.95809704  1
  Se  Se11  1  0.87980901  0.66734999  0.04190300  1
  Se  Se12  1  0.89047698  0.10952300  0.75000003  1
  Se  Se13  1  0.10952304  0.89047698  0.25000001  1
