# generated using pymatgen
data_K4TiNbO8
_symmetry_space_group_name_H-M   'P 1'
_cell_length_a   6.22991991
_cell_length_b   7.00883579
_cell_length_c   7.67005968
_cell_angle_alpha   113.00157166
_cell_angle_beta   90.00000000
_cell_angle_gamma   116.38708496
_symmetry_Int_Tables_number   1
_chemical_formula_structural   K4TiNbO8
_chemical_formula_sum   'K4 Ti1 Nb1 O8'
_cell_volume   269.96851079
_cell_formula_units_Z   1
loop_
 _symmetry_equiv_pos_site_id
 _symmetry_equiv_pos_as_xyz
  1  'x, y, z'
loop_
 _atom_site_type_symbol
 _atom_site_label
 _atom_site_symmetry_multiplicity
 _atom_site_fract_x
 _atom_site_fract_y
 _atom_site_fract_z
 _atom_site_occupancy
  K  K0  1  0.49039699  0.98079403  0.76519903  1
  K  K1  1  0.50960301  0.01920600  0.23480100  1
  K  K2  1  0.84328600  0.68657202  0.25091303  1
  K  K3  1  0.15671400  0.31342801  0.74908700  1
  Ti  Ti4  1  0.82385900  0.64771802  0.77238102  1
  Nb  Nb5  1  0.17614100  0.35228201  0.22761901  1
  O  O6  1  0.62100000  0.71431402  0.92221102  1
  O  O7  1  0.90668601  0.28568601  0.07778901  1
  O  O8  1  0.37900000  0.28568601  0.07778901  1
  O  O9  1  0.09331399  0.71431402  0.92221102  1
  O  O10  1  0.08907800  0.17815601  0.36232300  1
  O  O11  1  0.91092200  0.82184403  0.63767703  1
  O  O12  1  0.66705300  0.33410601  0.61631300  1
  O  O13  1  0.33294699  0.66589402  0.38368703  1
