# generated using pymatgen
data_Ba2La2NbO9
_symmetry_space_group_name_H-M   'P 1'
_cell_length_a   5.37882614
_cell_length_b   5.42976189
_cell_length_c   6.89165878
_cell_angle_alpha   113.19970703
_cell_angle_beta   90.00000000
_cell_angle_gamma   90.00000000
_symmetry_Int_Tables_number   1
_chemical_formula_structural   Ba2La2NbO9
_chemical_formula_sum   'Ba2 La2 Nb1 O9'
_cell_volume   185.00031779
_cell_formula_units_Z   1
loop_
 _symmetry_equiv_pos_site_id
 _symmetry_equiv_pos_as_xyz
  1  'x, y, z'
loop_
 _atom_site_type_symbol
 _atom_site_label
 _atom_site_symmetry_multiplicity
 _atom_site_fract_x
 _atom_site_fract_y
 _atom_site_fract_z
 _atom_site_occupancy
  Ba  Ba0  1  0.00000000  0.35563100  0.71126200  1
  Ba  Ba1  1  0.00000000  0.64235501  0.28470999  1
  La  La2  1  0.49999999  0.14394600  0.28789200  1
  La  La3  1  0.49999999  0.85740601  0.71481199  1
  O  O4  1  0.49999999  0.50239201  0.00478399  1
  Nb  Nb5  1  0.00000000  0.00217800  0.00435600  1
  O  O6  1  0.00000000  0.15803500  0.31607000  1
  O  O7  1  0.49999999  0.67081201  0.34162399  1
  O  O8  1  0.49999999  0.33776500  0.67553000  1
  O  O9  1  0.00000000  0.84042601  0.68085199  1
  O  O10  1  0.25076199  0.23894000  0.99452700  1
  O  O11  1  0.74923798  0.75558701  0.99452699  1
  O  O12  1  0.25076199  0.75558701  0.99452699  1
  O  O13  1  0.74923798  0.23894000  0.99452700  1
