# generated using pymatgen
data_LiV2O5
_symmetry_space_group_name_H-M   'P 1'
_cell_length_a   3.69130802
_cell_length_b   5.89915657
_cell_length_c   11.42386341
_cell_angle_alpha   90.00000000
_cell_angle_beta   90.00000000
_cell_angle_gamma   108.23212433
_symmetry_Int_Tables_number   1
_chemical_formula_structural   LiV2O5
_chemical_formula_sum   'Li2 V4 O10'
_cell_volume   236.27289677
_cell_formula_units_Z   2
loop_
 _symmetry_equiv_pos_site_id
 _symmetry_equiv_pos_as_xyz
  1  'x, y, z'
loop_
 _atom_site_type_symbol
 _atom_site_label
 _atom_site_symmetry_multiplicity
 _atom_site_fract_x
 _atom_site_fract_y
 _atom_site_fract_z
 _atom_site_occupancy
  Li  Li0  1  0.09654802  0.19309600  0.24999999  1
  Li  Li1  1  0.90345207  0.80690401  0.74999997  1
  V  V2  1  0.20416004  0.40832000  0.59966998  1
  V  V3  1  0.20416004  0.40832000  0.90032997  1
  V  V4  1  0.79584005  0.59168001  0.40032999  1
  V  V5  1  0.79584005  0.59168001  0.09967000  1
  O  O6  1  0.05909701  0.11819400  0.88349797  1
  O  O7  1  0.05909701  0.11819400  0.61650198  1
  O  O8  1  0.26803005  0.53606001  0.74999997  1
  O  O9  1  0.24320205  0.48640401  0.42913898  1
  O  O10  1  0.24320205  0.48640401  0.07086100  1
  O  O11  1  0.73197004  0.46394000  0.24999999  1
  O  O12  1  0.75679805  0.51359601  0.92913897  1
  O  O13  1  0.75679805  0.51359601  0.57086098  1
  O  O14  1  0.94090308  0.88180601  0.38349799  1
  O  O15  1  0.94090308  0.88180601  0.11650200  1
