# generated using pymatgen
data_GeO3
_symmetry_space_group_name_H-M   'P 1'
_cell_length_a   5.28957796
_cell_length_b   7.14285231
_cell_length_c   7.14285231
_cell_angle_alpha   76.02941895
_cell_angle_beta   68.26768494
_cell_angle_gamma   68.26768494
_symmetry_Int_Tables_number   1
_chemical_formula_structural   GeO3
_chemical_formula_sum   'Ge3 O9'
_cell_volume   231.16776737
_cell_formula_units_Z   3
loop_
 _symmetry_equiv_pos_site_id
 _symmetry_equiv_pos_as_xyz
  1  'x, y, z'
loop_
 _atom_site_type_symbol
 _atom_site_label
 _atom_site_symmetry_multiplicity
 _atom_site_fract_x
 _atom_site_fract_y
 _atom_site_fract_z
 _atom_site_occupancy
  Ge  Ge0  1  0.09224898  0.75730002  0.05820099  1
  Ge  Ge1  1  0.59224999  0.55820002  0.25729998  1
  Ge  Ge2  1  0.90775101  0.24270001  0.94179899  1
  O  O3  1  0.40774999  0.44180001  0.74270000  1
  O  O4  1  0.24999998  0.65020902  0.84979100  1
  O  O5  1  0.75000000  0.34979101  0.15020898  1
  O  O6  1  0.30816798  0.69183202  0.19183199  1
  O  O7  1  0.19183199  0.30816801  0.80816800  1
  O  O8  1  0.69183200  0.30816801  0.80816799  1
  O  O9  1  0.80816799  0.69183202  0.19183197  1
  O  O10  1  0.00000000  0.00000000  0.00000000  1
  O  O11  1  0.49999999  0.50000001  0.49999999  1
