# generated using pymatgen
data_Al2C3
_symmetry_space_group_name_H-M   'P 1'
_cell_length_a   3.09465408
_cell_length_b   3.09465480
_cell_length_c   25.30909920
_cell_angle_alpha   90.00000000
_cell_angle_beta   90.00000000
_cell_angle_gamma   119.99999237
_symmetry_Int_Tables_number   1
_chemical_formula_structural   Al2C3
_chemical_formula_sum   'Al8 C12'
_cell_volume   209.90929778
_cell_formula_units_Z   4
loop_
 _symmetry_equiv_pos_site_id
 _symmetry_equiv_pos_as_xyz
  1  'x, y, z'
loop_
 _atom_site_type_symbol
 _atom_site_label
 _atom_site_symmetry_multiplicity
 _atom_site_fract_x
 _atom_site_fract_y
 _atom_site_fract_z
 _atom_site_occupancy
  Al  Al0  1  0.00000000  0.00000000  0.80008203  1
  Al  Al1  1  0.00000000  0.00000000  0.60004602  1
  Al  Al2  1  0.66666666  0.33333335  0.70001902  1
  Al  Al3  1  0.00000000  0.00000000  0.40004101  1
  Al  Al4  1  0.66666666  0.33333335  0.00003100  1
  Al  Al5  1  0.66666666  0.33333335  0.30002001  1
  Al  Al6  1  0.33333335  0.66666670  0.10009500  1
  C  C7  1  0.00000000  0.00000000  0.19997701  1
  Al  Al8  1  0.33333335  0.66666670  0.89998403  1
  C  C9  1  0.33333335  0.66666670  0.50003002  1
  C  C10  1  0.66666666  0.33333335  0.22481901  1
  C  C11  1  0.66666666  0.33333335  0.92482203  1
  C  C12  1  0.00000000  0.00000000  0.32511001  1
  C  C13  1  0.00000000  0.00000000  0.72507202  1
  C  C14  1  0.33333335  0.66666670  0.82501103  1
  C  C15  1  0.33333335  0.66666670  0.42482201  1
  C  C16  1  0.00000000  0.00000000  0.52511102  1
  C  C17  1  0.33333335  0.66666670  0.02508800  1
  C  C18  1  0.66666666  0.33333335  0.62482402  1
  C  C19  1  0.00000000  0.00000000  0.12499600  1
