# generated using pymatgen
data_Li2O2
_symmetry_space_group_name_H-M   'P 1'
_cell_length_a   3.76422405
_cell_length_b   3.93003201
_cell_length_c   7.49184179
_cell_angle_alpha   103.42524719
_cell_angle_beta   90.00000000
_cell_angle_gamma   90.00000000
_symmetry_Int_Tables_number   1
_chemical_formula_structural   Li2O2
_chemical_formula_sum   'Li4 O4'
_cell_volume   107.80212179
_cell_formula_units_Z   2
loop_
 _symmetry_equiv_pos_site_id
 _symmetry_equiv_pos_as_xyz
  1  'x, y, z'
loop_
 _atom_site_type_symbol
 _atom_site_label
 _atom_site_symmetry_multiplicity
 _atom_site_fract_x
 _atom_site_fract_y
 _atom_site_fract_z
 _atom_site_occupancy
  Li  Li0  1  0.74999999  0.34276000  0.29568599  1
  Li  Li1  1  0.25000000  0.65723999  0.70431397  1
  Li  Li2  1  0.74999999  0.90124899  0.32320298  1
  Li  Li3  1  0.25000000  0.09875100  0.67679698  1
  O  O4  1  0.25000000  0.43573000  0.36939199  1
  O  O5  1  0.74999999  0.56426999  0.63060798  1
  O  O6  1  0.74999999  0.27713500  0.06299199  1
  O  O7  1  0.25000000  0.72286499  0.93700797  1
