# generated using pymatgen
data_Sr2TiMo2(WO6)2
_symmetry_space_group_name_H-M   'P 1'
_cell_length_a   3.83810592
_cell_length_b   3.83810592
_cell_length_c   16.84103584
_cell_angle_alpha   96.54312134
_cell_angle_beta   96.54312134
_cell_angle_gamma   90.00000000
_symmetry_Int_Tables_number   1
_chemical_formula_structural   Sr2TiMo2(WO6)2
_chemical_formula_sum   'Sr2 Ti1 Mo2 W2 O12'
_cell_volume   244.84371368
_cell_formula_units_Z   1
loop_
 _symmetry_equiv_pos_site_id
 _symmetry_equiv_pos_as_xyz
  1  'x, y, z'
loop_
 _atom_site_type_symbol
 _atom_site_label
 _atom_site_symmetry_multiplicity
 _atom_site_fract_x
 _atom_site_fract_y
 _atom_site_fract_z
 _atom_site_occupancy
  Sr  Sr0  1  0.50000000  0.50000001  -0.00000001  1
  Ti  Ti1  1  0.37222400  0.37222401  0.74444798  1
  Mo  Mo2  1  0.62777600  0.62777601  0.25555198  1
  Sr  Sr3  1  0.78865100  0.78865101  0.57730197  1
  Mo  Mo4  1  0.21134900  0.21134900  0.42269799  1
  W  W5  1  0.93338100  0.93338101  0.86676196  1
  W  W6  1  0.06661900  0.06661900  0.13323800  1
  O  O7  1  0.55960000  0.55960001  0.11919998  1
  O  O8  1  0.38461699  0.88461701  0.76923397  1
  O  O9  1  0.11538299  0.61538301  0.23076599  1
  O  O10  1  0.61538301  0.11538300  0.23076599  1
  O  O11  1  -0.00000001  0.50000001  -0.00000001  1
  O  O12  1  0.50000001  0.00000000  -0.00000001  1
  O  O13  1  0.24999999  0.75000001  0.49999998  1
  O  O14  1  0.68178900  0.68178901  0.36357797  1
  O  O15  1  0.44040000  0.44040001  0.88079997  1
  O  O16  1  0.75000001  0.25000000  0.49999998  1
  O  O17  1  0.31821100  0.31821100  0.63642198  1
  O  O18  1  0.88461701  0.38461701  0.76923397  1
