# generated using pymatgen
data_B4C
_symmetry_space_group_name_H-M   'P 1'
_cell_length_a   5.18446636
_cell_length_b   5.18446636
_cell_length_c   5.18446636
_cell_angle_alpha   65.98122406
_cell_angle_beta   65.98122406
_cell_angle_gamma   65.98121643
_symmetry_Int_Tables_number   1
_chemical_formula_structural   B4C
_chemical_formula_sum   'B12 C3'
_cell_volume   111.29297567
_cell_formula_units_Z   3
loop_
 _symmetry_equiv_pos_site_id
 _symmetry_equiv_pos_as_xyz
  1  'x, y, z'
loop_
 _atom_site_type_symbol
 _atom_site_label
 _atom_site_symmetry_multiplicity
 _atom_site_fract_x
 _atom_site_fract_y
 _atom_site_fract_z
 _atom_site_occupancy
  B  B0  1  0.69138999  0.19352800  0.19352799  1
  B  B1  1  0.19352799  0.19352800  0.69139001  1
  B  B2  1  0.19352798  0.69139000  0.19352799  1
  B  B3  1  0.30860998  0.80647200  0.80647200  1
  B  B4  1  0.80647197  0.80647200  0.30860998  1
  B  B5  1  0.80647198  0.30861000  0.80647200  1
  B  B6  1  0.32957300  0.00617000  0.00616999  1
  B  B7  1  0.00617000  0.00617000  0.32957301  1
  C  C8  1  0.00616999  0.32957300  0.00616999  1
  B  B9  1  0.67042697  0.99382999  0.99382999  1
  B  B10  1  0.99382997  0.99382999  0.67042698  1
  B  B11  1  0.99382997  0.67042700  0.99382999  1
  B  B12  1  0.38981099  0.38981100  0.38981099  1
  C  C13  1  0.61018898  0.61018900  0.61018899  1
  C  C14  1  0.49999998  0.50000000  0.49999999  1
