# generated using pymatgen
data_CuAs3Se2
_symmetry_space_group_name_H-M   'P 1'
_cell_length_a   6.09847689
_cell_length_b   6.11158419
_cell_length_c   6.11168909
_cell_angle_alpha   90.00000000
_cell_angle_beta   90.00000000
_cell_angle_gamma   90.00000000
_symmetry_Int_Tables_number   1
_chemical_formula_structural   CuAs3Se2
_chemical_formula_sum   'Cu2 As6 Se4'
_cell_volume   227.79093316
_cell_formula_units_Z   2
loop_
 _symmetry_equiv_pos_site_id
 _symmetry_equiv_pos_as_xyz
  1  'x, y, z'
loop_
 _atom_site_type_symbol
 _atom_site_label
 _atom_site_symmetry_multiplicity
 _atom_site_fract_x
 _atom_site_fract_y
 _atom_site_fract_z
 _atom_site_occupancy
  Cu  Cu0  1  0.63396301  0.37965899  0.38226699  1
  As  As1  1  0.36603701  0.62034098  0.88226699  1
  Cu  Cu2  1  0.63396301  0.12034100  0.88226699  1
  As  As3  1  0.36603701  0.87965897  0.38226699  1
  As  As4  1  0.76698701  0.51101398  0.99914899  1
  As  As5  1  0.23301300  0.48898599  0.49914899  1
  As  As6  1  0.76698701  0.98898597  0.49914899  1
  As  As7  1  0.23301300  0.01101400  0.99914899  1
  Se  Se8  1  0.12624200  0.11814900  0.62078399  1
  Se  Se9  1  0.87375802  0.88185097  0.12078400  1
  Se  Se10  1  0.12624200  0.38185099  0.12078400  1
  Se  Se11  1  0.87375802  0.61814898  0.62078399  1
