# generated using pymatgen
data_Ba2LaTaO6
_symmetry_space_group_name_H-M   'P 1'
_cell_length_a   6.15465403
_cell_length_b   6.18161678
_cell_length_c   8.69229794
_cell_angle_alpha   89.60423279
_cell_angle_beta   90.00000000
_cell_angle_gamma   90.00000000
_symmetry_Int_Tables_number   1
_chemical_formula_structural   Ba2LaTaO6
_chemical_formula_sum   'Ba4 La2 Ta2 O12'
_cell_volume   330.69677989
_cell_formula_units_Z   2
loop_
 _symmetry_equiv_pos_site_id
 _symmetry_equiv_pos_as_xyz
  1  'x, y, z'
loop_
 _atom_site_type_symbol
 _atom_site_label
 _atom_site_symmetry_multiplicity
 _atom_site_fract_x
 _atom_site_fract_y
 _atom_site_fract_z
 _atom_site_occupancy
  Ba  Ba0  1  0.48487200  0.49445402  0.74887403  1
  Ba  Ba1  1  0.01512800  0.99445403  0.24887401  1
  Ba  Ba2  1  0.98487200  0.00554600  0.75112604  1
  Ba  Ba3  1  0.51512800  0.50554602  0.25112601  1
  La  La4  1  0.50000000  0.00000000  0.50000002  1
  La  La5  1  0.00000000  0.50000002  -0.00000000  1
  Ta  Ta6  1  0.50000000  0.00000000  -0.00000000  1
  Ta  Ta7  1  0.00000000  0.50000002  0.50000002  1
  O  O8  1  0.00956000  0.56507102  0.72933003  1
  O  O9  1  0.50956000  0.93492903  0.77067003  1
  O  O10  1  0.99044000  0.43492902  0.27067001  1
  O  O11  1  0.49044000  0.06507100  0.22933001  1
  O  O12  1  0.21272200  0.25240401  0.53441603  1
  O  O13  1  0.71272200  0.24759601  0.96558405  1
  O  O14  1  0.78727800  0.74759603  0.46558402  1
  O  O15  1  0.28727800  0.75240403  0.03441600  1
  O  O16  1  0.75142500  0.79066503  0.03562400  1
  O  O17  1  0.25142500  0.70933502  0.46437602  1
  O  O18  1  0.24857500  0.20933501  0.96437605  1
  O  O19  1  0.74857500  0.29066501  0.53562403  1
