# generated using pymatgen
data_Li2Co3O7
_symmetry_space_group_name_H-M   'P 1'
_cell_length_a   2.98206306
_cell_length_b   4.96901608
_cell_length_c   9.55646515
_cell_angle_alpha   90.00000000
_cell_angle_beta   90.00000000
_cell_angle_gamma   90.00000000
_symmetry_Int_Tables_number   1
_chemical_formula_structural   Li2Co3O7
_chemical_formula_sum   'Li2 Co3 O7'
_cell_volume   141.60692896
_cell_formula_units_Z   1
loop_
 _symmetry_equiv_pos_site_id
 _symmetry_equiv_pos_as_xyz
  1  'x, y, z'
loop_
 _atom_site_type_symbol
 _atom_site_label
 _atom_site_symmetry_multiplicity
 _atom_site_fract_x
 _atom_site_fract_y
 _atom_site_fract_z
 _atom_site_occupancy
  Li  Li0  1  0.25000000  0.57665999  0.63781099  1
  Li  Li1  1  0.74999999  0.42333999  0.36218899  1
  Co  Co2  1  0.74999999  0.07666000  0.86218899  1
  Co  Co3  1  0.25000000  0.92333999  0.13781100  1
  Co  Co4  1  0.25000000  0.29688200  0.46896199  1
  O  O5  1  0.74999999  0.70311799  0.53103799  1
  O  O6  1  0.74999999  0.79688199  0.03103800  1
  O  O7  1  0.25000000  0.20311800  0.96896198  1
  O  O8  1  0.25000000  0.63849999  0.26773400  1
  O  O9  1  0.74999999  0.36149999  0.73226599  1
  O  O10  1  0.74999999  0.13850000  0.23226600  1
  O  O11  1  0.25000000  0.86149999  0.76773399  1
