# generated using pymatgen
data_Na3Ag
_symmetry_space_group_name_H-M   'P 1'
_cell_length_a   4.24507999
_cell_length_b   4.24508095
_cell_length_c   6.97856283
_cell_angle_alpha   90.00000000
_cell_angle_beta   90.00000000
_cell_angle_gamma   119.99999237
_symmetry_Int_Tables_number   1
_chemical_formula_structural   Na3Ag
_chemical_formula_sum   'Na3 Ag1'
_cell_volume   108.91018924
_cell_formula_units_Z   1
loop_
 _symmetry_equiv_pos_site_id
 _symmetry_equiv_pos_as_xyz
  1  'x, y, z'
loop_
 _atom_site_type_symbol
 _atom_site_label
 _atom_site_symmetry_multiplicity
 _atom_site_fract_x
 _atom_site_fract_y
 _atom_site_fract_z
 _atom_site_occupancy
  Na  Na0  1  0.00000000  0.00000000  0.00000000  1
  Na  Na1  1  0.00000000  0.00000000  0.50000001  1
  Na  Na2  1  0.66666666  0.33333331  0.75000002  1
  Ag  Ag3  1  0.33333331  0.66666663  0.25000001  1
