# generated using pymatgen
data_Li2TiO5
_symmetry_space_group_name_H-M   'P 1'
_cell_length_a   5.19238663
_cell_length_b   5.19238663
_cell_length_c   5.45869637
_cell_angle_alpha   90.54484558
_cell_angle_beta   117.88631439
_cell_angle_gamma   119.88729858
_symmetry_Int_Tables_number   1
_chemical_formula_structural   Li2TiO5
_chemical_formula_sum   'Li2 Ti1 O5'
_cell_volume   106.98224969
_cell_formula_units_Z   1
loop_
 _symmetry_equiv_pos_site_id
 _symmetry_equiv_pos_as_xyz
  1  'x, y, z'
loop_
 _atom_site_type_symbol
 _atom_site_label
 _atom_site_symmetry_multiplicity
 _atom_site_fract_x
 _atom_site_fract_y
 _atom_site_fract_z
 _atom_site_occupancy
  Li  Li0  1  -0.00000006  0.49999995  0.49999996  1
  Li  Li1  1  0.00000000  0.00000000  0.00000000  1
  Ti  Ti2  1  0.90004300  0.25862398  0.76058502  1
  O  O3  1  0.87627401  0.12627399  0.25000002  1
  O  O4  1  0.49803894  0.63945794  0.73941497  1
  O  O5  1  0.09995691  0.74137593  0.23941493  1
  O  O6  1  0.12372590  0.87372592  0.74999993  1
  O  O7  1  0.50196097  0.36054197  0.26058498  1
