# generated using pymatgen
data_Na2Li2CuSe4
_symmetry_space_group_name_H-M   'P 1'
_cell_length_a   6.14088106
_cell_length_b   6.14088106
_cell_length_c   6.14088106
_cell_angle_alpha   90.00000000
_cell_angle_beta   90.00000000
_cell_angle_gamma   90.00000000
_symmetry_Int_Tables_number   1
_chemical_formula_structural   Na2Li2CuSe4
_chemical_formula_sum   'Na2 Li2 Cu1 Se4'
_cell_volume   231.57520530
_cell_formula_units_Z   1
loop_
 _symmetry_equiv_pos_site_id
 _symmetry_equiv_pos_as_xyz
  1  'x, y, z'
loop_
 _atom_site_type_symbol
 _atom_site_label
 _atom_site_symmetry_multiplicity
 _atom_site_fract_x
 _atom_site_fract_y
 _atom_site_fract_z
 _atom_site_occupancy
  Na  Na0  1  0.49999999  0.49999999  0.49999999  1
  Na  Na1  1  0.00000000  0.00000000  0.00000000  1
  Li  Li2  1  0.00000000  0.49999999  -0.00000000  1
  Li  Li3  1  0.00000000  0.00000000  0.49999999  1
  Cu  Cu4  1  0.49999999  0.00000000  0.00000000  1
  Se  Se5  1  0.21696400  0.21696400  0.21696400  1
  Se  Se6  1  0.78303599  0.78303599  0.21696400  1
  Se  Se7  1  0.21696400  0.78303599  0.78303599  1
  Se  Se8  1  0.78303599  0.21696400  0.78303599  1
