# generated using pymatgen
data_Li4CoO5
_symmetry_space_group_name_H-M   'P 1'
_cell_length_a   5.22905159
_cell_length_b   5.22905159
_cell_length_c   5.78674793
_cell_angle_alpha   63.13996887
_cell_angle_beta   63.13996887
_cell_angle_gamma   60.00000381
_symmetry_Int_Tables_number   1
_chemical_formula_structural   Li4CoO5
_chemical_formula_sum   'Li4 Co1 O5'
_cell_volume   116.90235075
_cell_formula_units_Z   1
loop_
 _symmetry_equiv_pos_site_id
 _symmetry_equiv_pos_as_xyz
  1  'x, y, z'
loop_
 _atom_site_type_symbol
 _atom_site_label
 _atom_site_symmetry_multiplicity
 _atom_site_fract_x
 _atom_site_fract_y
 _atom_site_fract_z
 _atom_site_occupancy
  Li  Li0  1  0.87334997  0.87335001  0.37995000  1
  Li  Li1  1  0.12665000  0.12665000  0.62005001  1
  Li  Li2  1  0.66080097  0.66080101  0.01759700  1
  Li  Li3  1  0.33919899  0.33919900  0.98240301  1
  Co  Co4  1  0.52970599  0.30981700  0.21618800  1
  O  O5  1  0.30981697  0.94428901  0.21618801  1
  O  O6  1  0.94428898  0.52970600  0.21618800  1
  O  O7  1  0.05571098  0.47029400  0.78381201  1
  O  O8  1  0.69018300  0.05571100  0.78381201  1
  O  O9  1  0.47029397  0.69018301  0.78381201  1
