# generated using pymatgen
data_Ca2TaWO6
_symmetry_space_group_name_H-M   'P 1'
_cell_length_a   5.47245789
_cell_length_b   5.50854492
_cell_length_c   7.73527098
_cell_angle_alpha   90.00000000
_cell_angle_beta   90.00000000
_cell_angle_gamma   90.00000000
_symmetry_Int_Tables_number   1
_chemical_formula_structural   Ca2TaWO6
_chemical_formula_sum   'Ca4 Ta2 W2 O12'
_cell_volume   233.18191023
_cell_formula_units_Z   2
loop_
 _symmetry_equiv_pos_site_id
 _symmetry_equiv_pos_as_xyz
  1  'x, y, z'
loop_
 _atom_site_type_symbol
 _atom_site_label
 _atom_site_symmetry_multiplicity
 _atom_site_fract_x
 _atom_site_fract_y
 _atom_site_fract_z
 _atom_site_occupancy
  Ca  Ca0  1  0.49708501  0.76545301  0.50000000  1
  Ca  Ca1  1  0.99708502  0.23454700  0.00000000  1
  Ca  Ca2  1  0.00953500  0.28415400  0.50000000  1
  Ca  Ca3  1  0.50953501  0.71584601  0.00000000  1
  Ta  Ta4  1  0.50196401  0.24500000  0.75081800  1
  Ta  Ta5  1  0.00196400  0.75500001  0.25081800  1
  W  W6  1  0.50196401  0.24500000  0.24918200  1
  W  W7  1  0.00196400  0.75500001  0.74918200  1
  O  O8  1  0.27222501  0.52378301  0.71367600  1
  O  O9  1  0.21596500  0.03331500  0.28906400  1
  O  O10  1  0.71596501  0.96668501  0.21093600  1
  O  O11  1  0.77222502  0.47621701  0.78632400  1
  O  O12  1  0.71596501  0.96668501  0.78906400  1
  O  O13  1  0.77222502  0.47621701  0.21367600  1
  O  O14  1  0.27222501  0.52378301  0.28632400  1
  O  O15  1  0.21596500  0.03331500  0.71093600  1
  O  O16  1  0.57745701  0.23936900  0.50000000  1
  O  O17  1  0.93561502  0.73641001  0.50000000  1
  O  O18  1  0.43561501  0.26359000  -0.00000000  1
  O  O19  1  0.07745700  0.76063101  -0.00000000  1
