# generated using pymatgen
data_LaTi3O6
_symmetry_space_group_name_H-M   'P 1'
_cell_length_a   5.28457117
_cell_length_b   5.37112617
_cell_length_c   7.51058483
_cell_angle_alpha   90.00000000
_cell_angle_beta   90.00000000
_cell_angle_gamma   90.00000000
_symmetry_Int_Tables_number   1
_chemical_formula_structural   LaTi3O6
_chemical_formula_sum   'La2 Ti6 O12'
_cell_volume   213.18117993
_cell_formula_units_Z   2
loop_
 _symmetry_equiv_pos_site_id
 _symmetry_equiv_pos_as_xyz
  1  'x, y, z'
loop_
 _atom_site_type_symbol
 _atom_site_label
 _atom_site_symmetry_multiplicity
 _atom_site_fract_x
 _atom_site_fract_y
 _atom_site_fract_z
 _atom_site_occupancy
  La  La0  1  0.01007100  0.95642697  0.75000002  1
  La  La1  1  0.51007098  0.54357298  0.25000001  1
  Ti  Ti2  1  0.48992898  0.45642699  0.75000002  1
  Ti  Ti3  1  0.98992897  0.04357300  0.25000001  1
  Ti  Ti4  1  0.49999998  0.00000000  0.50000001  1
  Ti  Ti5  1  0.00000000  0.49999998  0.50000001  1
  Ti  Ti6  1  0.00000000  0.49999998  -0.00000000  1
  Ti  Ti7  1  0.49999998  0.00000000  0.00000000  1
  O  O8  1  0.71290298  0.28759199  0.45898601  1
  O  O9  1  0.21290299  0.21240799  0.54101401  1
  O  O10  1  0.78709697  0.78759197  0.04101400  1
  O  O11  1  0.28709699  0.71240798  0.95898602  1
  O  O12  1  0.28709699  0.71240798  0.54101401  1
  O  O13  1  0.78709697  0.78759197  0.45898601  1
  O  O14  1  0.21290299  0.21240799  0.95898602  1
  O  O15  1  0.71290298  0.28759199  0.04101400  1
  O  O16  1  0.07718100  0.48259398  0.25000001  1
  O  O17  1  0.57718098  0.01740600  0.75000002  1
  O  O18  1  0.42281899  0.98259397  0.25000001  1
  O  O19  1  0.92281897  0.51740598  0.75000002  1
