# generated using pymatgen
data_Li3PdO4
_symmetry_space_group_name_H-M   'P 1'
_cell_length_a   3.15720725
_cell_length_b   5.35091782
_cell_length_c   5.36007977
_cell_angle_alpha   108.44216156
_cell_angle_beta   91.08669281
_cell_angle_gamma   91.65991974
_symmetry_Int_Tables_number   1
_chemical_formula_structural   Li3PdO4
_chemical_formula_sum   'Li3 Pd1 O4'
_cell_volume   85.82863484
_cell_formula_units_Z   1
loop_
 _symmetry_equiv_pos_site_id
 _symmetry_equiv_pos_as_xyz
  1  'x, y, z'
loop_
 _atom_site_type_symbol
 _atom_site_label
 _atom_site_symmetry_multiplicity
 _atom_site_fract_x
 _atom_site_fract_y
 _atom_site_fract_z
 _atom_site_occupancy
  Li  Li0  1  0.50000101  0.00000000  0.50000102  1
  Li  Li1  1  0.50000104  0.50000000  0.00000102  1
  Li  Li2  1  0.99999709  0.99999900  0.99999807  1
  Pd  Pd3  1  0.00000104  0.50000100  0.50000003  1
  O  O4  1  0.97937804  0.25052800  0.73044704  1
  O  O5  1  0.47943603  0.25013600  0.23045302  1
  O  O6  1  0.02062205  0.74947200  0.26955404  1
  O  O7  1  0.52056406  0.74986400  0.76954706  1
