# generated using pymatgen
data_LaTiF7
_symmetry_space_group_name_H-M   'P 1'
_cell_length_a   5.82307291
_cell_length_b   6.26707411
_cell_length_c   8.44516754
_cell_angle_alpha   101.58436584
_cell_angle_beta   90.00000000
_cell_angle_gamma   90.00000000
_symmetry_Int_Tables_number   1
_chemical_formula_structural   LaTiF7
_chemical_formula_sum   'La2 Ti2 F14'
_cell_volume   301.91691154
_cell_formula_units_Z   2
loop_
 _symmetry_equiv_pos_site_id
 _symmetry_equiv_pos_as_xyz
  1  'x, y, z'
loop_
 _atom_site_type_symbol
 _atom_site_label
 _atom_site_symmetry_multiplicity
 _atom_site_fract_x
 _atom_site_fract_y
 _atom_site_fract_z
 _atom_site_occupancy
  La  La0  1  0.69948301  0.65789499  0.68808504  1
  La  La1  1  0.19948300  0.34210500  0.31191502  1
  Ti  Ti2  1  0.70878601  0.81145999  0.22418202  1
  Ti  Ti3  1  0.20878600  0.18854000  0.77581803  1
  F  F4  1  0.88438801  0.44828399  0.47397303  1
  F  F5  1  0.38438801  0.55171599  0.52602703  1
  F  F6  1  0.42058301  0.93379299  0.76938705  1
  F  F7  1  0.92058301  0.06620700  0.23061301  1
  F  F8  1  0.94919101  0.97175899  0.76105705  1
  F  F9  1  0.44919101  0.02824100  0.23894301  1
  F  F10  1  0.00053500  0.44698599  0.78641404  1
  F  F11  1  0.50053501  0.55301399  0.21358602  1
  F  F12  1  0.70601101  0.75762899  0.98257705  1
  F  F13  1  0.20601100  0.24237100  0.01742301  1
  F  F14  1  0.71333301  0.85844299  0.46684603  1
  F  F15  1  0.21333300  0.14155700  0.53315402  1
  F  F16  1  0.49405001  0.37401699  0.78350704  1
  F  F17  1  0.99405002  0.62598299  0.21649302  1
