# generated using pymatgen
data_Li2HCO4
_symmetry_space_group_name_H-M   'P 1'
_cell_length_a   6.18781805
_cell_length_b   6.18781805
_cell_length_c   6.55427313
_cell_angle_alpha   108.26503754
_cell_angle_beta   112.32798004
_cell_angle_gamma   105.40374756
_symmetry_Int_Tables_number   1
_chemical_formula_structural   Li2HCO4
_chemical_formula_sum   'Li4 H2 C2 O8'
_cell_volume   198.18231256
_cell_formula_units_Z   2
loop_
 _symmetry_equiv_pos_site_id
 _symmetry_equiv_pos_as_xyz
  1  'x, y, z'
loop_
 _atom_site_type_symbol
 _atom_site_label
 _atom_site_symmetry_multiplicity
 _atom_site_fract_x
 _atom_site_fract_y
 _atom_site_fract_z
 _atom_site_occupancy
  Li  Li0  1  0.25445801  0.13664500  0.39110300  1
  Li  Li1  1  0.74554200  0.86335501  0.60889700  1
  Li  Li2  1  0.79372301  0.64097601  0.97027600  1
  Li  Li3  1  0.67070000  0.82344801  0.02972400  1
  H  H4  1  0.20627600  0.35902400  0.02972400  1
  H  H5  1  0.32930001  0.17655300  0.97027599  1
  C  C6  1  0.89606903  0.39606900  0.50000002  1
  C  C7  1  0.10393098  0.60393101  0.49999998  1
  O  O8  1  0.36832799  0.76197401  0.13030199  1
  O  O9  1  0.63167202  0.23802600  0.86969800  1
  O  O10  1  0.93910504  0.20882000  0.50726202  1
  O  O11  1  0.70155802  0.43184300  0.49273801  1
  O  O12  1  0.06089498  0.79118001  0.49273797  1
  O  O13  1  0.29844199  0.56815701  0.50726199  1
  O  O14  1  0.81396401  0.81396401  0.00000001  1
  O  O15  1  0.18603600  0.18603600  0.00000000  1
