# generated using pymatgen
data_Li2C2O5
_symmetry_space_group_name_H-M   'P 1'
_cell_length_a   4.11280107
_cell_length_b   5.66387558
_cell_length_c   5.66387558
_cell_angle_alpha   109.56954193
_cell_angle_beta   93.72935486
_cell_angle_gamma   93.72935486
_symmetry_Int_Tables_number   1
_chemical_formula_structural   Li2C2O5
_chemical_formula_sum   'Li2 C2 O5'
_cell_volume   123.52196216
_cell_formula_units_Z   1
loop_
 _symmetry_equiv_pos_site_id
 _symmetry_equiv_pos_as_xyz
  1  'x, y, z'
loop_
 _atom_site_type_symbol
 _atom_site_label
 _atom_site_symmetry_multiplicity
 _atom_site_fract_x
 _atom_site_fract_y
 _atom_site_fract_z
 _atom_site_occupancy
  Li  Li0  1  0.99999999  0.00250300  0.99749701  1
  Li  Li1  1  0.50000003  0.59262500  0.40737502  1
  C  C2  1  0.40465902  0.48611600  0.87080302  1
  C  C3  1  0.59534100  0.12919700  0.51388401  1
  O  O4  1  0.50000001  0.23823400  0.76176601  1
  O  O5  1  0.53305001  0.23497800  0.33248801  1
  O  O6  1  0.46695003  0.66751200  0.76502202  1
  O  O7  1  0.24585803  0.53896300  0.08333802  1
  O  O8  1  0.75414204  0.91666200  0.46103704  1
