# generated using pymatgen
data_Sr2NbWO6
_symmetry_space_group_name_H-M   'P 1'
_cell_length_a   5.81958389
_cell_length_b   5.93820667
_cell_length_c   10.29171944
_cell_angle_alpha   105.91940308
_cell_angle_beta   90.00000000
_cell_angle_gamma   119.34136200
_symmetry_Int_Tables_number   1
_chemical_formula_structural   Sr2NbWO6
_chemical_formula_sum   'Sr4 Nb2 W2 O12'
_cell_volume   294.28724568
_cell_formula_units_Z   2
loop_
 _symmetry_equiv_pos_site_id
 _symmetry_equiv_pos_as_xyz
  1  'x, y, z'
loop_
 _atom_site_type_symbol
 _atom_site_label
 _atom_site_symmetry_multiplicity
 _atom_site_fract_x
 _atom_site_fract_y
 _atom_site_fract_z
 _atom_site_occupancy
  Sr  Sr0  1  0.12769698  0.25539398  0.37540101  1
  Sr  Sr1  1  0.87230396  0.74460695  0.62459901  1
  Sr  Sr2  1  0.71424198  0.42848397  0.14548300  1
  Sr  Sr3  1  0.28575797  0.57151596  0.85451702  1
  Nb  Nb4  1  0.59580800  0.19161599  0.78428101  1
  Nb  Nb5  1  0.40419195  0.80838395  0.21571901  1
  W  W6  1  0.00000000  0.00000000  0.00000000  1
  W  W7  1  0.50000001  0.00000000  0.50000001  1
  O  O8  1  0.36580896  0.73161795  0.59687301  1
  O  O9  1  0.63419099  0.26838198  0.40312701  1
  O  O10  1  0.80992201  0.09631899  0.88578502  1
  O  O11  1  0.62538096  0.78973195  0.36951301  1
  O  O12  1  0.81442997  0.62885996  0.87431502  1
  O  O13  1  0.71360295  0.90368094  0.11421500  1
  O  O14  1  0.16435095  0.78973195  0.36951301  1
  O  O15  1  0.28639700  0.09631899  0.88578502  1
  O  O16  1  0.37461899  0.21026799  0.63048701  1
  O  O17  1  0.19007794  0.90368094  0.11421500  1
  O  O18  1  0.18556998  0.37113998  0.12568500  1
  O  O19  1  0.83564900  0.21026799  0.63048701  1
