# generated using pymatgen
data_NaBO3
_symmetry_space_group_name_H-M   'P 1'
_cell_length_a   3.62158680
_cell_length_b   4.91961622
_cell_length_c   7.91111994
_cell_angle_alpha   90.00000000
_cell_angle_beta   90.00000000
_cell_angle_gamma   111.37535858
_symmetry_Int_Tables_number   1
_chemical_formula_structural   NaBO3
_chemical_formula_sum   'Na2 B2 O6'
_cell_volume   131.25533385
_cell_formula_units_Z   2
loop_
 _symmetry_equiv_pos_site_id
 _symmetry_equiv_pos_as_xyz
  1  'x, y, z'
loop_
 _atom_site_type_symbol
 _atom_site_label
 _atom_site_symmetry_multiplicity
 _atom_site_fract_x
 _atom_site_fract_y
 _atom_site_fract_z
 _atom_site_occupancy
  Na  Na0  1  0.97758800  0.99956898  0.99993801  1
  Na  Na1  1  0.97758800  0.99956898  0.50006200  1
  B  B2  1  0.70232600  0.45076599  0.25000000  1
  B  B3  1  0.24618099  0.54944899  0.75000001  1
  O  O4  1  0.85227800  0.74441699  0.25000000  1
  O  O5  1  0.61492901  0.27870699  0.39349200  1
  O  O6  1  0.61492901  0.27870699  0.10650800  1
  O  O7  1  0.33791799  0.72099399  0.89358901  1
  O  O8  1  0.33791799  0.72099399  0.60641100  1
  O  O9  1  0.08834400  0.25582599  0.75000001  1
