# generated using pymatgen
data_SrTiO3
_symmetry_space_group_name_H-M   'P 1'
_cell_length_a   5.74992990
_cell_length_b   5.81383896
_cell_length_c   8.20083332
_cell_angle_alpha   90.00000000
_cell_angle_beta   90.00000000
_cell_angle_gamma   89.95568085
_symmetry_Int_Tables_number   1
_chemical_formula_structural   SrTiO3
_chemical_formula_sum   'Sr4 Ti4 O12'
_cell_volume   274.14694043
_cell_formula_units_Z   4
loop_
 _symmetry_equiv_pos_site_id
 _symmetry_equiv_pos_as_xyz
  1  'x, y, z'
loop_
 _atom_site_type_symbol
 _atom_site_label
 _atom_site_symmetry_multiplicity
 _atom_site_fract_x
 _atom_site_fract_y
 _atom_site_fract_z
 _atom_site_occupancy
  Sr  Sr0  1  0.00375100  0.02961600  0.49999998  1
  Sr  Sr1  1  0.50694600  0.47307798  0.00000000  1
  Sr  Sr2  1  0.99287700  0.96651996  0.00000000  1
  Sr  Sr3  1  0.50195600  0.53882598  0.49999998  1
  Ti  Ti4  1  0.99990101  0.49914798  0.25251199  1
  Ti  Ti5  1  0.50024501  0.00113700  0.74802597  1
  Ti  Ti6  1  0.99990101  0.49914798  0.74748797  1
  Ti  Ti7  1  0.50024501  0.00113700  0.25197399  1
  O  O8  1  0.56501599  0.96358396  0.49999998  1
  O  O9  1  0.91368301  0.48479898  0.49999998  1
  O  O10  1  0.43286801  0.02223600  0.00000000  1
  O  O11  1  0.06384499  0.50900898  0.00000000  1
  O  O12  1  0.20911699  0.79055997  0.28232699  1
  O  O13  1  0.29725300  0.29724999  0.70313897  1
  O  O14  1  0.79263801  0.20743699  0.78200397  1
  O  O15  1  0.71037400  0.71063397  0.21620599  1
  O  O16  1  0.79263801  0.20743699  0.21799599  1
  O  O17  1  0.71037400  0.71063397  0.78379397  1
  O  O18  1  0.20911699  0.79055997  0.71767297  1
  O  O19  1  0.29725300  0.29724999  0.29686099  1
