# generated using pymatgen
data_K3H2O5
_symmetry_space_group_name_H-M   'P 1'
_cell_length_a   4.68979502
_cell_length_b   5.91308594
_cell_length_c   8.90497684
_cell_angle_alpha   98.71094513
_cell_angle_beta   90.00000000
_cell_angle_gamma   90.00000000
_symmetry_Int_Tables_number   1
_chemical_formula_structural   K3H2O5
_chemical_formula_sum   'K3 H2 O5'
_cell_volume   244.09682520
_cell_formula_units_Z   1
loop_
 _symmetry_equiv_pos_site_id
 _symmetry_equiv_pos_as_xyz
  1  'x, y, z'
loop_
 _atom_site_type_symbol
 _atom_site_label
 _atom_site_symmetry_multiplicity
 _atom_site_fract_x
 _atom_site_fract_y
 _atom_site_fract_z
 _atom_site_occupancy
  K  K0  1  0.75000000  0.78989700  0.69858901  1
  K  K1  1  0.25000000  0.21010300  0.30141101  1
  K  K2  1  0.25000000  0.39393700  0.84561602  1
  H  H3  1  0.75000000  0.60606300  0.15438399  1
  H  H4  1  0.75000000  0.85985600  0.10389598  1
  O  O5  1  0.25000000  0.14014400  0.89610403  1
  O  O6  1  0.25000000  0.57901100  0.80904802  1
  O  O7  1  0.75000000  0.42098900  0.19095200  1
  O  O8  1  0.25000000  0.74782600  0.45163200  1
  O  O9  1  0.75000000  0.25217400  0.54836802  1
