# generated using pymatgen
data_CeBi3Sb2O3
_symmetry_space_group_name_H-M   'P 1'
_cell_length_a   3.94525003
_cell_length_b   6.97260141
_cell_length_c   8.19554806
_cell_angle_alpha   85.02094269
_cell_angle_beta   76.07245636
_cell_angle_gamma   73.56598663
_symmetry_Int_Tables_number   1
_chemical_formula_structural   CeBi3Sb2O3
_chemical_formula_sum   'Ce1 Bi3 Sb2 O3'
_cell_volume   209.83854357
_cell_formula_units_Z   1
loop_
 _symmetry_equiv_pos_site_id
 _symmetry_equiv_pos_as_xyz
  1  'x, y, z'
loop_
 _atom_site_type_symbol
 _atom_site_label
 _atom_site_symmetry_multiplicity
 _atom_site_fract_x
 _atom_site_fract_y
 _atom_site_fract_z
 _atom_site_occupancy
  Ce  Ce0  1  0.24095103  0.87666799  0.64142999  1
  Bi  Bi1  1  0.75904899  0.12333300  0.35857002  1
  Bi  Bi2  1  0.55801302  0.73155699  0.15241699  1
  Bi  Bi3  1  0.44198700  0.26844300  0.84758302  1
  Sb  Sb4  1  0.00000000  0.00000000  0.00000000  1
  Sb  Sb5  1  0.83089601  0.56312999  0.77507802  1
  O  O6  1  0.16910401  0.43686999  0.22492200  1
  O  O7  1  0.35294503  0.93129198  0.36281799  1
  O  O8  1  0.64705499  0.06870800  0.63718203  1
