# generated using pymatgen
data_Li3CoO4
_symmetry_space_group_name_H-M   'P 1'
_cell_length_a   5.87080097
_cell_length_b   5.87088442
_cell_length_c   5.88256788
_cell_angle_alpha   118.90324402
_cell_angle_beta   118.90153503
_cell_angle_gamma   91.26045990
_symmetry_Int_Tables_number   1
_chemical_formula_structural   Li3CoO4
_chemical_formula_sum   'Li6 Co2 O8'
_cell_volume   146.49462833
_cell_formula_units_Z   2
loop_
 _symmetry_equiv_pos_site_id
 _symmetry_equiv_pos_as_xyz
  1  'x, y, z'
loop_
 _atom_site_type_symbol
 _atom_site_label
 _atom_site_symmetry_multiplicity
 _atom_site_fract_x
 _atom_site_fract_y
 _atom_site_fract_z
 _atom_site_occupancy
  Li  Li0  1  0.50242497  0.50212100  0.00062900  1
  Li  Li1  1  0.00301200  0.00146900  0.50108201  1
  Li  Li2  1  0.50303998  0.00213000  0.00052498  1
  Li  Li3  1  0.50260998  0.00219700  0.50057999  1
  Li  Li4  1  0.00384600  0.00301600  0.00158100  1
  Li  Li5  1  0.50385597  0.50307400  0.50137601  1
  Co  Co6  1  0.00324199  0.50233200  0.50111803  1
  Co  Co7  1  0.00302099  0.50227000  0.00096102  1
  O  O8  1  0.24183599  0.24916800  0.47766801  1
  O  O9  1  0.74980096  0.74084300  0.97746102  1
  O  O10  1  0.25776999  0.26499800  0.02518300  1
  O  O11  1  0.76600396  0.75712400  0.52535001  1
  O  O12  1  0.24626698  0.72833700  0.49280103  1
  O  O13  1  0.77726096  0.25951700  0.00893398  1
  O  O14  1  0.22913998  0.74541800  0.99290004  1
  O  O15  1  0.76036497  0.27646800  0.50886399  1
