# generated using pymatgen
data_NaCuO4
_symmetry_space_group_name_H-M   'P 1'
_cell_length_a   5.67290020
_cell_length_b   5.82000017
_cell_length_c   5.82000017
_cell_angle_alpha   64.54806519
_cell_angle_beta   60.83262634
_cell_angle_gamma   60.83262634
_symmetry_Int_Tables_number   1
_chemical_formula_structural   NaCuO4
_chemical_formula_sum   'Na2 Cu2 O8'
_cell_volume   141.78096780
_cell_formula_units_Z   2
loop_
 _symmetry_equiv_pos_site_id
 _symmetry_equiv_pos_as_xyz
  1  'x, y, z'
loop_
 _atom_site_type_symbol
 _atom_site_label
 _atom_site_symmetry_multiplicity
 _atom_site_fract_x
 _atom_site_fract_y
 _atom_site_fract_z
 _atom_site_occupancy
  Na  Na0  1  0.78264998  0.46735001  0.96735001  1
  Na  Na1  1  0.21735001  0.53265001  0.03264998  1
  Cu  Cu2  1  0.99999995  0.00000000  0.50000003  1
  Cu  Cu3  1  0.49999998  0.00000000  0.50000002  1
  O  O4  1  0.27028902  0.78813801  0.67128398  1
  O  O5  1  0.33337801  0.65889601  0.15889698  1
  O  O6  1  0.66662198  0.34110401  0.84110301  1
  O  O7  1  0.15117201  0.34105834  0.84110300  1
  O  O8  1  0.72971200  0.82871601  0.71186098  1
  O  O9  1  0.72971097  0.21186200  0.32871601  1
  O  O10  1  0.84882798  0.65889701  0.15889699  1
  O  O11  1  0.27028799  0.17128400  0.28813900  1
