# generated using pymatgen
data_Ba3Ti(WO7)2
_symmetry_space_group_name_H-M   'P 1'
_cell_length_a   3.96600890
_cell_length_b   8.94319153
_cell_length_c   8.94319248
_cell_angle_alpha   120.00000000
_cell_angle_beta   90.00000000
_cell_angle_gamma   90.00000000
_symmetry_Int_Tables_number   1
_chemical_formula_structural   Ba3Ti(WO7)2
_chemical_formula_sum   'Ba3 Ti1 W2 O14'
_cell_volume   274.70681025
_cell_formula_units_Z   1
loop_
 _symmetry_equiv_pos_site_id
 _symmetry_equiv_pos_as_xyz
  1  'x, y, z'
loop_
 _atom_site_type_symbol
 _atom_site_label
 _atom_site_symmetry_multiplicity
 _atom_site_fract_x
 _atom_site_fract_y
 _atom_site_fract_z
 _atom_site_occupancy
  Ba  Ba0  1  0.50000001  0.59585504  0.59585502  1
  Ba  Ba1  1  0.50000001  0.40414503  0.00000001  1
  Ba  Ba2  1  0.50000001  0.00000000  0.40414500  1
  Ti  Ti3  1  1.00000002  0.24701302  0.24701301  1
  W  W4  1  1.00000002  0.75298705  0.00000003  1
  W  W5  1  1.00000002  0.00000000  0.75298700  1
  O  O6  1  1.00000002  0.33333336  0.66666668  1
  O  O7  1  0.00000000  0.66666671  0.33333336  1
  O  O8  1  1.00000002  0.81036706  0.49587603  1
  O  O9  1  1.00000002  0.31449102  0.50412401  1
  O  O10  1  1.00000002  0.18963301  0.68550901  1
  O  O11  1  1.00000002  0.49587604  0.81036702  1
  O  O12  1  1.00000002  0.68550905  0.18963302  1
  O  O13  1  1.00000002  0.50412404  0.31449102  1
  O  O14  1  0.50000001  0.26436402  0.26436401  1
  O  O15  1  0.50000001  0.73563605  0.00000003  1
  O  O16  1  0.50000001  0.00000000  0.73563600  1
  O  O17  1  1.00000002  0.82206706  0.82206703  1
  O  O18  1  1.00000002  0.17793301  0.00000001  1
  O  O19  1  1.00000002  0.00000000  0.17793300  1
