# generated using pymatgen
data_KCuBr2
_symmetry_space_group_name_H-M   'P 1'
_cell_length_a   6.80392790
_cell_length_b   6.80392790
_cell_length_c   6.80392790
_cell_angle_alpha   105.30286407
_cell_angle_beta   105.30286407
_cell_angle_gamma   118.17443848
_symmetry_Int_Tables_number   1
_chemical_formula_structural   KCuBr2
_chemical_formula_sum   'K2 Cu2 Br4'
_cell_volume   238.21578632
_cell_formula_units_Z   2
loop_
 _symmetry_equiv_pos_site_id
 _symmetry_equiv_pos_as_xyz
  1  'x, y, z'
loop_
 _atom_site_type_symbol
 _atom_site_label
 _atom_site_symmetry_multiplicity
 _atom_site_fract_x
 _atom_site_fract_y
 _atom_site_fract_z
 _atom_site_occupancy
  K  K0  1  0.25000002  0.25000002  0.00000002  1
  K  K1  1  0.75000007  0.75000005  0.00000007  1
  Cu  Cu2  1  0.75000004  0.25000002  0.50000005  1
  Cu  Cu3  1  0.25000005  0.75000005  0.50000007  1
  Br  Br4  1  0.32928102  0.17072001  0.50000004  1
  Br  Br5  1  0.67071907  0.82928006  0.50000009  1
  Br  Br6  1  0.17071904  0.67071905  0.84143807  1
  Br  Br7  1  0.82928105  0.32928102  0.15856205  1
