# generated using pymatgen
data_La2CeZrO6
_symmetry_space_group_name_H-M   'P 1'
_cell_length_a   5.76038313
_cell_length_b   5.98177814
_cell_length_c   8.27381420
_cell_angle_alpha   90.00000000
_cell_angle_beta   90.00000000
_cell_angle_gamma   90.00000000
_symmetry_Int_Tables_number   1
_chemical_formula_structural   La2CeZrO6
_chemical_formula_sum   'La4 Ce2 Zr2 O12'
_cell_volume   285.09357863
_cell_formula_units_Z   2
loop_
 _symmetry_equiv_pos_site_id
 _symmetry_equiv_pos_as_xyz
  1  'x, y, z'
loop_
 _atom_site_type_symbol
 _atom_site_label
 _atom_site_symmetry_multiplicity
 _atom_site_fract_x
 _atom_site_fract_y
 _atom_site_fract_z
 _atom_site_occupancy
  La  La0  1  0.98418498  0.05866200  0.24999999  1
  La  La1  1  0.48418499  0.44133799  0.74999998  1
  La  La2  1  0.51581499  0.55866199  0.24999999  1
  La  La3  1  0.01581500  0.94133798  0.74999998  1
  Ce  Ce4  1  0.49999999  0.00000000  0.00000000  1
  Ce  Ce5  1  0.00000000  0.49999999  -0.00000000  1
  Zr  Zr6  1  0.00000000  0.49999999  0.49999999  1
  Zr  Zr7  1  0.49999999  0.00000000  0.49999999  1
  O  O8  1  0.68871398  0.30660699  0.43274999  1
  O  O9  1  0.18871400  0.19339300  0.56724999  1
  O  O10  1  0.81128598  0.80660698  0.06725000  1
  O  O11  1  0.31128599  0.69339298  0.93274998  1
  O  O12  1  0.31128599  0.69339298  0.56724999  1
  O  O13  1  0.81128598  0.80660698  0.43274999  1
  O  O14  1  0.18871400  0.19339300  0.93274998  1
  O  O15  1  0.68871398  0.30660699  0.06725000  1
  O  O16  1  0.12841800  0.43680199  0.24999999  1
  O  O17  1  0.62841799  0.06319800  0.74999998  1
  O  O18  1  0.37158199  0.93680198  0.24999999  1
  O  O19  1  0.87158198  0.56319799  0.74999998  1
