# generated using pymatgen
data_Tl2Se3
_symmetry_space_group_name_H-M   'P 1'
_cell_length_a   6.70624018
_cell_length_b   7.79002142
_cell_length_c   7.79786301
_cell_angle_alpha   80.84174347
_cell_angle_beta   68.29871368
_cell_angle_gamma   64.50465393
_symmetry_Int_Tables_number   1
_chemical_formula_structural   Tl2Se3
_chemical_formula_sum   'Tl4 Se6'
_cell_volume   341.64276937
_cell_formula_units_Z   2
loop_
 _symmetry_equiv_pos_site_id
 _symmetry_equiv_pos_as_xyz
  1  'x, y, z'
loop_
 _atom_site_type_symbol
 _atom_site_label
 _atom_site_symmetry_multiplicity
 _atom_site_fract_x
 _atom_site_fract_y
 _atom_site_fract_z
 _atom_site_occupancy
  Tl  Tl0  1  0.14699206  0.70601599  0.74999999  1
  Tl  Tl1  1  0.85300801  0.29398400  0.24999997  1
  Tl  Tl2  1  0.57670106  0.84659799  0.24999997  1
  Tl  Tl3  1  0.42329901  0.15340200  0.74999999  1
  Se  Se4  1  0.62758601  0.17801400  0.94228899  1
  Se  Se5  1  0.80560006  0.82198599  0.44228896  1
  Se  Se6  1  0.37241406  0.82198599  0.05771097  1
  Se  Se7  1  0.19440001  0.17801400  0.55771100  1
  Se  Se8  1  0.80712302  0.38575400  0.74999998  1
  Se  Se9  1  0.19287705  0.61424599  0.24999998  1
