# generated using pymatgen
data_KNa(PO4)2
_symmetry_space_group_name_H-M   'P 1'
_cell_length_a   5.11461830
_cell_length_b   5.11461830
_cell_length_c   8.01650715
_cell_angle_alpha   87.23094940
_cell_angle_beta   87.23094940
_cell_angle_gamma   63.51561737
_symmetry_Int_Tables_number   1
_chemical_formula_structural   KNa(PO4)2
_chemical_formula_sum   'K1 Na1 P2 O8'
_cell_volume   187.39573694
_cell_formula_units_Z   1
loop_
 _symmetry_equiv_pos_site_id
 _symmetry_equiv_pos_as_xyz
  1  'x, y, z'
loop_
 _atom_site_type_symbol
 _atom_site_label
 _atom_site_symmetry_multiplicity
 _atom_site_fract_x
 _atom_site_fract_y
 _atom_site_fract_z
 _atom_site_occupancy
  K  K0  1  0.00000000  0.00000000  0.49999997  1
  Na  Na1  1  0.00000000  0.00000000  0.00000000  1
  P  P2  1  0.36229098  0.36229099  0.77865299  1
  P  P3  1  0.63770896  0.63770898  0.22134704  1
  O  O4  1  0.68666895  0.68666897  0.40082303  1
  O  O5  1  0.31333098  0.31333099  0.59917699  1
  O  O6  1  0.22711397  0.69764997  0.80994199  1
  O  O7  1  0.69764996  0.22711399  0.80994199  1
  O  O8  1  0.22649998  0.22649999  0.91184697  1
  O  O9  1  0.77288596  0.30234999  0.19005803  1
  O  O10  1  0.77349995  0.77349997  0.08815305  1
  O  O11  1  0.30234997  0.77288597  0.19005803  1
