# generated using pymatgen
data_NaTiO2
_symmetry_space_group_name_H-M   'P 1'
_cell_length_a   6.48901939
_cell_length_b   6.49864054
_cell_length_c   6.93274641
_cell_angle_alpha   103.65472412
_cell_angle_beta   106.76036835
_cell_angle_gamma   104.63457489
_symmetry_Int_Tables_number   1
_chemical_formula_structural   NaTiO2
_chemical_formula_sum   'Na4 Ti4 O8'
_cell_volume   255.34969167
_cell_formula_units_Z   4
loop_
 _symmetry_equiv_pos_site_id
 _symmetry_equiv_pos_as_xyz
  1  'x, y, z'
loop_
 _atom_site_type_symbol
 _atom_site_label
 _atom_site_symmetry_multiplicity
 _atom_site_fract_x
 _atom_site_fract_y
 _atom_site_fract_z
 _atom_site_occupancy
  Na  Na0  1  0.65347108  0.72915505  0.26532004  1
  Na  Na1  1  0.65352004  0.22913901  0.26522302  1
  Na  Na2  1  0.34648203  0.27086902  0.73477902  1
  Na  Na3  1  0.34653808  0.77083605  0.73468004  1
  Ti  Ti4  1  0.89022711  0.91951406  0.78874605  1
  Ti  Ti5  1  0.10977701  0.08044601  0.21117200  1
  Ti  Ti6  1  0.89018907  0.41953803  0.78878603  1
  Ti  Ti7  1  0.10979905  0.58050204  0.21129703  1
  O  O8  1  0.20652501  0.04557600  0.97435000  1
  O  O9  1  0.20647605  0.54560704  0.97439203  1
  O  O10  1  0.79351111  0.95438806  0.02560105  1
  O  O11  1  0.79348107  0.45442903  0.02565803  1
  O  O12  1  0.18147608  0.88401206  0.35298504  1
  O  O13  1  0.18150404  0.38399502  0.35296802  1
  O  O14  1  0.81850204  0.11601701  0.64703302  1
  O  O15  1  0.81852108  0.61597604  0.64701204  1
