# generated using pymatgen
data_Ca2TiO4
_symmetry_space_group_name_H-M   'P 1'
_cell_length_a   5.37866783
_cell_length_b   5.38163996
_cell_length_c   7.01746607
_cell_angle_alpha   67.45269775
_cell_angle_beta   90.00000000
_cell_angle_gamma   90.00000000
_symmetry_Int_Tables_number   1
_chemical_formula_structural   Ca2TiO4
_chemical_formula_sum   'Ca4 Ti2 O8'
_cell_volume   187.60151596
_cell_formula_units_Z   2
loop_
 _symmetry_equiv_pos_site_id
 _symmetry_equiv_pos_as_xyz
  1  'x, y, z'
loop_
 _atom_site_type_symbol
 _atom_site_label
 _atom_site_symmetry_multiplicity
 _atom_site_fract_x
 _atom_site_fract_y
 _atom_site_fract_z
 _atom_site_occupancy
  Ca  Ca0  1  0.50000002  0.85891899  0.28216205  1
  Ca  Ca1  1  -0.00000000  0.99418998  0.01162005  1
  Ca  Ca2  1  -0.00000000  0.64246199  0.71507605  1
  Ca  Ca3  1  1.00000003  0.36015399  0.27969202  1
  Ti  Ti4  1  0.50000002  0.13867600  0.72264802  1
  Ti  Ti5  1  0.50000002  0.50252899  0.99494205  1
  O  O6  1  0.00000000  0.81977499  0.36045005  1
  O  O7  1  0.50000002  0.66732899  0.66534205  1
  O  O8  1  1.00000003  0.18138400  0.63723202  1
  O  O9  1  0.50000002  0.32252499  0.35495002  1
  O  O10  1  0.25553201  0.74392299  0.99434406  1
  O  O11  1  0.74446802  0.74392299  0.99434406  1
  O  O12  1  0.74446802  0.26173300  0.99434404  1
  O  O13  1  0.25553201  0.26173300  0.99434404  1
