# generated using pymatgen
data_Li3TiO6
_symmetry_space_group_name_H-M   'P 1'
_cell_length_a   5.62075853
_cell_length_b   5.72751188
_cell_length_c   9.73754025
_cell_angle_alpha   73.51003265
_cell_angle_beta   89.97202301
_cell_angle_gamma   60.64733124
_symmetry_Int_Tables_number   1
_chemical_formula_structural   Li3TiO6
_chemical_formula_sum   'Li6 Ti2 O12'
_cell_volume   258.36669629
_cell_formula_units_Z   2
loop_
 _symmetry_equiv_pos_site_id
 _symmetry_equiv_pos_as_xyz
  1  'x, y, z'
loop_
 _atom_site_type_symbol
 _atom_site_label
 _atom_site_symmetry_multiplicity
 _atom_site_fract_x
 _atom_site_fract_y
 _atom_site_fract_z
 _atom_site_occupancy
  Li  Li0  1  0.39993400  0.18431901  0.13965602  1
  Li  Li1  1  0.89975499  0.18482801  0.63950903  1
  Li  Li2  1  0.64757599  0.68881902  0.88867603  1
  Li  Li3  1  0.14764200  0.68870802  0.38874801  1
  Li  Li4  1  0.74246899  0.49921202  0.25371803  1
  Li  Li5  1  0.24241700  0.49944102  0.75376502  1
  Ti  Ti6  1  0.48168100  0.02105100  0.50001102  1
  Ti  Ti7  1  0.98164399  0.02104200  0.00001503  1
  O  O8  1  0.30182100  0.80678303  0.56997702  1
  O  O9  1  0.80191499  0.80663303  0.06993403  1
  O  O10  1  0.62401900  0.28331301  0.43054402  1
  O  O11  1  0.12402100  0.28330601  0.93059101  1
  O  O12  1  0.68021799  0.80780203  0.37458603  1
  O  O13  1  0.18014800  0.80801903  0.87445802  1
  O  O14  1  0.78392599  0.80622703  0.66179904  1
  O  O15  1  0.28387300  0.80613303  0.16182102  1
  O  O16  1  0.17457200  0.28325001  0.33278001  1
  O  O17  1  0.67454000  0.28328901  0.83270103  1
  O  O18  1  0.25307700  0.28280101  0.60634101  1
  O  O19  1  0.75299099  0.28266201  0.10634303  1
