# generated using pymatgen
data_La2TiWO6
_symmetry_space_group_name_H-M   'P 1'
_cell_length_a   5.68707609
_cell_length_b   5.70402718
_cell_length_c   8.00404739
_cell_angle_alpha   90.00000000
_cell_angle_beta   89.82526398
_cell_angle_gamma   90.00000000
_symmetry_Int_Tables_number   1
_chemical_formula_structural   La2TiWO6
_chemical_formula_sum   'La4 Ti2 W2 O12'
_cell_volume   259.64397954
_cell_formula_units_Z   2
loop_
 _symmetry_equiv_pos_site_id
 _symmetry_equiv_pos_as_xyz
  1  'x, y, z'
loop_
 _atom_site_type_symbol
 _atom_site_label
 _atom_site_symmetry_multiplicity
 _atom_site_fract_x
 _atom_site_fract_y
 _atom_site_fract_z
 _atom_site_occupancy
  La  La0  1  0.00630200  0.24567399  0.25025099  1
  La  La1  1  0.50630199  0.75432598  0.75025098  1
  La  La2  1  0.98530198  0.26033299  0.74985598  1
  La  La3  1  0.48530199  0.73966698  0.24985599  1
  Ti  Ti4  1  0.49873999  0.24898999  0.49773699  1
  Ti  Ti5  1  0.99873998  0.75100998  0.99773697  1
  W  W6  1  0.99942898  0.75134698  0.50106798  1
  W  W7  1  0.49942899  0.24865299  0.00106800  1
  O  O8  1  0.90451299  0.75483498  0.25830999  1
  O  O9  1  0.40451299  0.24516499  0.75830998  1
  O  O10  1  0.08149300  0.74275498  0.74381598  1
  O  O11  1  0.58149299  0.25724499  0.24381599  1
  O  O12  1  0.25776600  0.98005697  0.45158199  1
  O  O13  1  0.75776599  0.01994300  0.95158198  1
  O  O14  1  0.75389599  0.50791998  0.54739798  1
  O  O15  1  0.25389600  0.49207998  0.04739800  1
  O  O16  1  0.23927300  0.50156698  0.45211399  1
  O  O17  1  0.73927299  0.49843298  0.95211398  1
  O  O18  1  0.77328599  0.01123500  0.54786798  1
  O  O19  1  0.27328600  0.98876497  0.04786800  1
