# generated using pymatgen
data_Ba3LaHf2(WO6)2
_symmetry_space_group_name_H-M   'P 1'
_cell_length_a   5.76907110
_cell_length_b   5.77006197
_cell_length_c   8.11836529
_cell_angle_alpha   90.00018311
_cell_angle_beta   90.17786407
_cell_angle_gamma   89.99980164
_symmetry_Int_Tables_number   1
_chemical_formula_structural   Ba3LaHf2(WO6)2
_chemical_formula_sum   'Ba3 La1 Hf2 W2 O12'
_cell_volume   270.24201160
_cell_formula_units_Z   1
loop_
 _symmetry_equiv_pos_site_id
 _symmetry_equiv_pos_as_xyz
  1  'x, y, z'
loop_
 _atom_site_type_symbol
 _atom_site_label
 _atom_site_symmetry_multiplicity
 _atom_site_fract_x
 _atom_site_fract_y
 _atom_site_fract_z
 _atom_site_occupancy
  Ba  Ba0  1  0.00479100  0.47578500  0.24966301  1
  Ba  Ba1  1  0.99522197  0.52430000  0.75035000  1
  Ba  Ba2  1  0.49520799  0.97568701  0.25035704  1
  La  La3  1  0.50476699  0.02418400  0.74966697  1
  Hf  Hf4  1  0.49992399  0.50018800  0.99981498  1
  Hf  Hf5  1  0.99999897  0.99991201  0.49997903  1
  W  W6  1  0.00000400  0.00004400  0.00002600  1
  W  W7  1  0.50003499  0.49995300  0.49997401  1
  O  O8  1  0.26531599  0.20763300  0.03348401  1
  O  O9  1  0.73468298  0.79225200  0.96656800  1
  O  O10  1  0.23467099  0.70774000  0.46655401  1
  O  O11  1  0.76530298  0.29234800  0.53348000  1
  O  O12  1  0.93626697  0.01210600  0.23703401  1
  O  O13  1  0.06370800  0.98788701  0.76293300  1
  O  O14  1  0.56372599  0.51209200  0.26300002  1
  O  O15  1  0.43630599  0.48789800  0.73709899  1
  O  O16  1  0.20503600  0.73278200  0.03416203  1
  O  O17  1  0.79502698  0.26715000  0.96585098  1
  O  O18  1  0.29499499  0.23284800  0.46584599  1
  O  O19  1  0.70501298  0.76721000  0.53415702  1
