# generated using pymatgen
data_Li8FeP4S
_symmetry_space_group_name_H-M   'P 1'
_cell_length_a   5.95362091
_cell_length_b   6.08156157
_cell_length_c   7.15543795
_cell_angle_alpha   89.99952698
_cell_angle_beta   89.99806976
_cell_angle_gamma   87.27722168
_symmetry_Int_Tables_number   1
_chemical_formula_structural   Li8FeP4S
_chemical_formula_sum   'Li8 Fe1 P4 S1'
_cell_volume   258.78669219
_cell_formula_units_Z   1
loop_
 _symmetry_equiv_pos_site_id
 _symmetry_equiv_pos_as_xyz
  1  'x, y, z'
loop_
 _atom_site_type_symbol
 _atom_site_label
 _atom_site_symmetry_multiplicity
 _atom_site_fract_x
 _atom_site_fract_y
 _atom_site_fract_z
 _atom_site_occupancy
  Li  Li0  1  0.49999701  0.50000600  0.24999897  1
  Li  Li1  1  0.49999801  0.50000700  0.75000196  1
  Li  Li2  1  0.49995403  0.99995400  0.99997593  1
  Li  Li3  1  0.50007299  0.00004300  0.49999599  1
  Li  Li4  1  0.99999697  0.00001700  0.99999798  1
  Li  Li5  1  0.00002200  0.00001500  0.50000199  1
  Li  Li6  1  0.25321902  0.69100500  0.00000497  1
  Li  Li7  1  0.25326502  0.69110600  0.50000796  1
  P  P8  1  0.26174000  0.15916000  0.25004599  1
  Fe  Fe9  1  0.26174600  0.15916400  0.74997198  1
  S  S10  1  0.73827302  0.84082000  0.25003695  1
  P  P11  1  0.73827302  0.84081800  0.74996494  1
  P  P12  1  0.74674199  0.30893100  0.49999998  1
  P  P13  1  0.74670199  0.30895300  0.99999496  1
