# generated using pymatgen
data_Na4LiNbS7
_symmetry_space_group_name_H-M   'P 1'
_cell_length_a   6.96285820
_cell_length_b   6.96285820
_cell_length_c   7.93656826
_cell_angle_alpha   63.98179245
_cell_angle_beta   63.98179245
_cell_angle_gamma   60.00000000
_symmetry_Int_Tables_number   1
_chemical_formula_structural   Na4LiNbS7
_chemical_formula_sum   'Na4 Li1 Nb1 S7'
_cell_volume   287.31715172
_cell_formula_units_Z   1
loop_
 _symmetry_equiv_pos_site_id
 _symmetry_equiv_pos_as_xyz
  1  'x, y, z'
loop_
 _atom_site_type_symbol
 _atom_site_label
 _atom_site_symmetry_multiplicity
 _atom_site_fract_x
 _atom_site_fract_y
 _atom_site_fract_z
 _atom_site_occupancy
  Na  Na0  1  0.82894500  0.82894498  0.51316504  1
  Na  Na1  1  0.15813100  0.15813100  0.52560700  1
  Na  Na2  1  0.06100101  0.47059299  0.99781300  1
  Na  Na3  1  0.47059300  0.47059299  0.99781301  1
  Li  Li4  1  0.47059299  0.06100100  0.99781300  1
  Nb  Nb5  1  0.89898500  0.89898498  0.79675704  1
  S  S6  1  0.89898499  0.40527299  0.79675702  1
  S  S7  1  0.58602099  0.09345400  0.22707102  1
  S  S8  1  0.40527301  0.89898498  0.79675702  1
  S  S9  1  0.41864900  0.41864899  0.74405301  1
  S  S10  1  0.09345401  0.58602099  0.22707101  1
  S  S11  1  0.60535100  0.60535099  0.18394703  1
  S  S12  1  0.09345400  0.09345400  0.22707100  1
