# generated using pymatgen
data_Y5BiTe6Ru5
_symmetry_space_group_name_H-M   'P 1'
_cell_length_a   7.47789574
_cell_length_b   7.47789574
_cell_length_c   7.47789574
_cell_angle_alpha   109.47122192
_cell_angle_beta   109.47122192
_cell_angle_gamma   109.47122192
_symmetry_Int_Tables_number   1
_chemical_formula_structural   Y5BiTe6Ru5
_chemical_formula_sum   'Y5 Bi1 Te6 Ru5'
_cell_volume   321.89653748
_cell_formula_units_Z   1
loop_
 _symmetry_equiv_pos_site_id
 _symmetry_equiv_pos_as_xyz
  1  'x, y, z'
loop_
 _atom_site_type_symbol
 _atom_site_label
 _atom_site_symmetry_multiplicity
 _atom_site_fract_x
 _atom_site_fract_y
 _atom_site_fract_z
 _atom_site_occupancy
  Y  Y0  1  0.00000000  0.00000000  0.00000000  1
  Y  Y1  1  0.14922202  0.34621000  0.49543201  1
  Y  Y2  1  0.85077802  0.65379001  0.50456804  1
  Y  Y3  1  0.14922204  0.65379101  0.80301202  1
  Ru  Ru4  1  0.85077801  0.34620900  0.19698803  1
  Y  Y5  1  0.65379002  0.50456801  0.85077802  1
  Ru  Ru6  1  0.34621002  0.49543201  0.14922203  1
  Ru  Ru7  1  0.34621001  0.19698800  0.85077900  1
  Bi  Bi8  1  0.65379004  0.80301201  0.14922106  1
  Te  Te9  1  0.80301199  0.14922200  0.65379001  1
  Te  Te10  1  0.19698805  0.85077801  0.34621004  1
  Ru  Ru11  1  0.49543100  0.14922100  0.34620901  1
  Ru  Ru12  1  0.50456904  0.85077901  0.65379104  1
  Te  Te13  1  0.50000002  0.50000001  0.50000003  1
  Te  Te14  1  0.00000000  0.00000000  0.49999999  1
  Te  Te15  1  0.00000003  0.50000001  0.00000003  1
  Te  Te16  1  0.50000005  1.00000001  1.00000004  1
