# generated using pymatgen
data_K2H3O5
_symmetry_space_group_name_H-M   'P 1'
_cell_length_a   5.67536211
_cell_length_b   5.85114145
_cell_length_c   5.67536211
_cell_angle_alpha   60.98889923
_cell_angle_beta   90.00000000
_cell_angle_gamma   119.01110077
_symmetry_Int_Tables_number   1
_chemical_formula_structural   K2H3O5
_chemical_formula_sum   'K2 H3 O5'
_cell_volume   137.15065629
_cell_formula_units_Z   1
loop_
 _symmetry_equiv_pos_site_id
 _symmetry_equiv_pos_as_xyz
  1  'x, y, z'
loop_
 _atom_site_type_symbol
 _atom_site_label
 _atom_site_symmetry_multiplicity
 _atom_site_fract_x
 _atom_site_fract_y
 _atom_site_fract_z
 _atom_site_occupancy
  K  K0  1  0.75000001  0.50000002  0.24999997  1
  H  H1  1  0.25000002  0.50000002  0.74999997  1
  K  K2  1  0.12876700  0.00000000  0.62876699  1
  H  H3  1  0.62876699  0.00000000  0.87123298  1
  H  H4  1  0.37123299  0.00000000  0.12876700  1
  O  O5  1  0.87123298  0.00000000  0.37123299  1
  O  O6  1  0.16602800  0.00000000  0.33397199  1
  O  O7  1  0.66602799  0.00000000  0.16602800  1
  O  O8  1  0.83397198  0.00000000  0.66602799  1
  O  O9  1  0.33397199  0.00000000  0.83397198  1
