# generated using pymatgen
data_Li2CoO4
_symmetry_space_group_name_H-M   'P 1'
_cell_length_a   5.89020491
_cell_length_b   5.97984457
_cell_length_c   6.19262266
_cell_angle_alpha   61.83771896
_cell_angle_beta   61.60246277
_cell_angle_gamma   90.00039673
_symmetry_Int_Tables_number   1
_chemical_formula_structural   Li2CoO4
_chemical_formula_sum   'Li4 Co2 O8'
_cell_volume   161.91746789
_cell_formula_units_Z   2
loop_
 _symmetry_equiv_pos_site_id
 _symmetry_equiv_pos_as_xyz
  1  'x, y, z'
loop_
 _atom_site_type_symbol
 _atom_site_label
 _atom_site_symmetry_multiplicity
 _atom_site_fract_x
 _atom_site_fract_y
 _atom_site_fract_z
 _atom_site_occupancy
  Li  Li0  1  0.62293410  0.87245704  0.75413592  1
  Li  Li1  1  0.62761705  0.37544302  0.74478996  1
  Li  Li2  1  0.13257504  0.37931202  0.23980697  1
  Li  Li3  1  0.62763905  0.37936102  0.23974695  1
  Co  Co4  1  0.00159809  0.98901604  0.99679193  1
  Co  Co5  1  0.24705308  0.75937403  0.50587294  1
  O  O6  1  0.39153507  0.63786803  0.76012595  1
  O  O7  1  0.37160507  0.59134203  0.25686494  1
  O  O8  1  0.88156204  0.15487401  0.23690096  1
  O  O9  1  0.38316903  0.16370901  0.23362898  1
  O  O10  1  0.38530502  0.10593200  0.75689399  1
  O  O11  1  0.84833009  0.63787403  0.76012493  1
  O  O12  1  0.85778304  0.10598200  0.75689898  1
  O  O13  1  0.87129708  0.59745703  0.25741393  1
