# generated using pymatgen
data_Cs2NbWO6
_symmetry_space_group_name_H-M   'P 1'
_cell_length_a   5.18070602
_cell_length_b   8.62019920
_cell_length_c   9.16663837
_cell_angle_alpha   115.04157257
_cell_angle_beta   93.48352814
_cell_angle_gamma   94.48014832
_symmetry_Int_Tables_number   1
_chemical_formula_structural   Cs2NbWO6
_chemical_formula_sum   'Cs4 Nb2 W2 O12'
_cell_volume   367.75627657
_cell_formula_units_Z   2
loop_
 _symmetry_equiv_pos_site_id
 _symmetry_equiv_pos_as_xyz
  1  'x, y, z'
loop_
 _atom_site_type_symbol
 _atom_site_label
 _atom_site_symmetry_multiplicity
 _atom_site_fract_x
 _atom_site_fract_y
 _atom_site_fract_z
 _atom_site_occupancy
  Cs  Cs0  1  0.50000002  0.50000000  -0.00000003  1
  Cs  Cs1  1  0.50000002  0.50000000  0.49999999  1
  Cs  Cs2  1  0.90965000  0.20249900  0.59659399  1
  Cs  Cs3  1  0.09035004  0.79750101  0.40340599  1
  Nb  Nb4  1  0.99783004  0.78345901  0.85505298  1
  Nb  Nb5  1  0.00217001  0.21654100  0.14494700  1
  W  W6  1  0.47444005  0.98851801  0.18524097  1
  W  W7  1  0.52556000  0.01148200  0.81475901  1
  O  O8  1  0.14975502  0.43934200  0.23197699  1
  O  O9  1  0.85024502  0.56065800  0.76802299  1
  O  O10  1  0.59686704  0.89147901  0.31314997  1
  O  O11  1  0.40313300  0.10852100  0.68685001  1
  O  O12  1  0.21983604  0.78356601  0.03907998  1
  O  O13  1  0.78016401  0.21643400  0.96092000  1
  O  O14  1  0.71812001  0.21854600  0.27447498  1
  O  O15  1  0.28188004  0.78145401  0.72552500  1
  O  O16  1  0.79407504  0.87451001  0.70487298  1
  O  O17  1  0.20592501  0.12549000  0.29512700  1
  O  O18  1  0.73735405  0.92422101  0.00832896  1
  O  O19  1  0.26264600  0.07577900  0.99167102  1
