# generated using pymatgen
data_TmMg2O2
_symmetry_space_group_name_H-M   'P 1'
_cell_length_a   3.47922802
_cell_length_b   3.47922826
_cell_length_c   6.04689217
_cell_angle_alpha   90.00000000
_cell_angle_beta   90.00000000
_cell_angle_gamma   120.00000000
_symmetry_Int_Tables_number   1
_chemical_formula_structural   TmMg2O2
_chemical_formula_sum   'Tm1 Mg2 O2'
_cell_volume   63.39115574
_cell_formula_units_Z   1
loop_
 _symmetry_equiv_pos_site_id
 _symmetry_equiv_pos_as_xyz
  1  'x, y, z'
loop_
 _atom_site_type_symbol
 _atom_site_label
 _atom_site_symmetry_multiplicity
 _atom_site_fract_x
 _atom_site_fract_y
 _atom_site_fract_z
 _atom_site_occupancy
  Tm  Tm0  1  0.00000000  0.00000000  0.49999999  1
  Mg  Mg1  1  0.33333335  0.66666665  0.86073898  1
  Mg  Mg2  1  0.66666667  0.33333333  0.13926100  1
  O  O3  1  0.33333335  0.66666665  0.24121999  1
  O  O4  1  0.66666667  0.33333333  0.75877998  1
