# generated using pymatgen
data_CsIOF3
_symmetry_space_group_name_H-M   'P 1'
_cell_length_a   3.64413905
_cell_length_b   6.53816319
_cell_length_c   7.74926519
_cell_angle_alpha   90.00000000
_cell_angle_beta   90.00000000
_cell_angle_gamma   90.00000000
_symmetry_Int_Tables_number   1
_chemical_formula_structural   CsIOF3
_chemical_formula_sum   'Cs2 I2 O2 F6'
_cell_volume   184.63380488
_cell_formula_units_Z   2
loop_
 _symmetry_equiv_pos_site_id
 _symmetry_equiv_pos_as_xyz
  1  'x, y, z'
loop_
 _atom_site_type_symbol
 _atom_site_label
 _atom_site_symmetry_multiplicity
 _atom_site_fract_x
 _atom_site_fract_y
 _atom_site_fract_z
 _atom_site_occupancy
  Cs  Cs0  1  0.74999999  0.20334699  0.09829100  1
  Cs  Cs1  1  0.25000000  0.29665299  0.59829099  1
  I  I2  1  0.74999999  0.70334698  0.40170899  1
  I  I3  1  0.25000000  0.79665298  0.90170898  1
  O  O4  1  0.74999999  0.00605500  0.86201498  1
  F  F5  1  0.25000000  0.49394499  0.36201499  1
  F  F6  1  0.74999999  0.50605499  0.63798498  1
  O  O7  1  0.25000000  0.99394497  0.13798500  1
  F  F8  1  0.74999999  0.14531400  0.41717299  1
  F  F9  1  0.25000000  0.35468599  0.91717298  1
  F  F10  1  0.74999999  0.64531398  0.08282700  1
  F  F11  1  0.25000000  0.85468598  0.58282699  1
