# generated using pymatgen
data_LaTiO3
_symmetry_space_group_name_H-M   'P 1'
_cell_length_a   5.52575302
_cell_length_b   5.56496286
_cell_length_c   7.82857180
_cell_angle_alpha   89.94409180
_cell_angle_beta   89.95780945
_cell_angle_gamma   89.90447235
_symmetry_Int_Tables_number   1
_chemical_formula_structural   LaTiO3
_chemical_formula_sum   'La4 Ti4 O12'
_cell_volume   240.73284679
_cell_formula_units_Z   4
loop_
 _symmetry_equiv_pos_site_id
 _symmetry_equiv_pos_as_xyz
  1  'x, y, z'
loop_
 _atom_site_type_symbol
 _atom_site_label
 _atom_site_symmetry_multiplicity
 _atom_site_fract_x
 _atom_site_fract_y
 _atom_site_fract_z
 _atom_site_occupancy
  La  La0  1  0.49427797  0.53150799  0.75814900  1
  La  La1  1  0.98931494  0.96419098  0.24176500  1
  La  La2  1  0.00998900  0.03269300  0.76170900  1
  La  La3  1  0.50362397  0.47588099  0.23880000  1
  Ti  Ti4  1  0.00007097  0.50123099  0.99979299  1
  Ti  Ti5  1  0.50144900  0.00041600  0.49911502  1
  Ti  Ti6  1  0.00070997  0.50267799  0.50136299  1
  Ti  Ti7  1  0.50037194  0.99938998  0.00055498  1
  O  O8  1  0.57480494  0.98242598  0.74607699  1
  O  O9  1  0.91984497  0.48267199  0.73885301  1
  O  O10  1  0.41836300  0.01299400  0.25395201  1
  O  O11  1  0.07557797  0.51784099  0.26055699  1
  O  O12  1  0.22504796  0.79026398  0.96209798  1
  O  O13  1  0.28557298  0.28142599  0.54271400  1
  O  O14  1  0.78068199  0.21373699  0.45669302  1
  O  O15  1  0.70901796  0.72236698  0.03793700  1
  O  O16  1  0.77803999  0.20609900  0.04083502  1
  O  O17  1  0.71737996  0.72069998  0.45918500  1
  O  O18  1  0.22103896  0.78303198  0.54140598  1
  O  O19  1  0.29482198  0.27845399  0.95844300  1
