# generated using pymatgen
data_Cs2TaMo2WO12
_symmetry_space_group_name_H-M   'P 1'
_cell_length_a   7.14561367
_cell_length_b   7.14561367
_cell_length_c   7.43163300
_cell_angle_alpha   61.26517487
_cell_angle_beta   61.26517487
_cell_angle_gamma   60.00000381
_symmetry_Int_Tables_number   1
_chemical_formula_structural   Cs2TaMo2WO12
_chemical_formula_sum   'Cs2 Ta1 Mo2 W1 O12'
_cell_volume   273.33416965
_cell_formula_units_Z   1
loop_
 _symmetry_equiv_pos_site_id
 _symmetry_equiv_pos_as_xyz
  1  'x, y, z'
loop_
 _atom_site_type_symbol
 _atom_site_label
 _atom_site_symmetry_multiplicity
 _atom_site_fract_x
 _atom_site_fract_y
 _atom_site_fract_z
 _atom_site_occupancy
  Cs  Cs0  1  0.62298902  0.62298900  0.13103302  1
  Cs  Cs1  1  0.37701101  0.37701100  0.86896699  1
  Ta  Ta2  1  0.00000000  0.00000000  0.00000000  1
  Mo  Mo3  1  0.00000001  0.50000000  0.49999999  1
  Mo  Mo4  1  0.00000000  0.00000000  0.49999999  1
  W  W5  1  0.50000000  0.00000000  0.50000000  1
  O  O6  1  0.08475400  0.08475400  0.21303800  1
  O  O7  1  0.08475402  0.61745400  0.21303801  1
  O  O8  1  0.61745400  0.08475400  0.21303801  1
  O  O9  1  0.38254602  0.91524600  0.78696200  1
  O  O10  1  0.91524603  0.91524600  0.78696201  1
  O  O11  1  0.91524601  0.38254600  0.78696201  1
  O  O12  1  0.29711302  0.92254000  0.48323401  1
  O  O13  1  0.29711301  0.29711300  0.48323400  1
  O  O14  1  0.92254001  0.29711300  0.48323401  1
  O  O15  1  0.07746002  0.70288700  0.51676600  1
  O  O16  1  0.70288700  0.07746000  0.51676600  1
  O  O17  1  0.70288702  0.70288700  0.51676601  1
