# generated using pymatgen
data_V2OF3
_symmetry_space_group_name_H-M   'P 1'
_cell_length_a   5.62918329
_cell_length_b   5.62918329
_cell_length_c   7.27774715
_cell_angle_alpha   72.86956787
_cell_angle_beta   72.86956787
_cell_angle_gamma   73.10410309
_symmetry_Int_Tables_number   1
_chemical_formula_structural   V2OF3
_chemical_formula_sum   'V6 O3 F9'
_cell_volume   205.29212859
_cell_formula_units_Z   3
loop_
 _symmetry_equiv_pos_site_id
 _symmetry_equiv_pos_as_xyz
  1  'x, y, z'
loop_
 _atom_site_type_symbol
 _atom_site_label
 _atom_site_symmetry_multiplicity
 _atom_site_fract_x
 _atom_site_fract_y
 _atom_site_fract_z
 _atom_site_occupancy
  V  V0  1  0.67050200  0.67050200  0.83900009  1
  V  V1  1  0.66182800  0.66182800  0.32578808  1
  V  V2  1  0.33614700  0.33614700  0.66071705  1
  V  V3  1  0.33606700  0.33606700  0.17217704  1
  V  V4  1  0.99926300  0.99926300  0.50055511  1
  V  V5  1  0.99535700  0.99535700  0.99918712  1
  O  O6  1  0.76784000  0.76784000  0.03554108  1
  O  O7  1  0.43418500  0.43418500  0.36950605  1
  F  F8  1  0.63648800  0.03122600  0.66649605  1
  O  O9  1  0.96984000  0.36324000  0.33333341  1
  F  F10  1  0.89587100  0.89587100  0.29949410  1
  F  F11  1  0.56999200  0.56999200  0.63235107  1
  F  F12  1  0.23198500  0.23198500  0.96448804  1
  F  F13  1  0.10152900  0.10152900  0.70229802  1
  F  F14  1  0.69629000  0.30235200  0.99963407  1
  F  F15  1  0.36324000  0.96984000  0.33333341  1
  F  F16  1  0.03122600  0.63648800  0.66649605  1
  F  F17  1  0.30235200  0.69629000  0.99963407  1
