# generated using pymatgen
data_LiFePO5
_symmetry_space_group_name_H-M   'P 1'
_cell_length_a   5.37981796
_cell_length_b   5.38046598
_cell_length_c   7.06653976
_cell_angle_alpha   69.50544739
_cell_angle_beta   69.43515015
_cell_angle_gamma   90.19390106
_symmetry_Int_Tables_number   1
_chemical_formula_structural   LiFePO5
_chemical_formula_sum   'Li2 Fe2 P2 O10'
_cell_volume   177.51905687
_cell_formula_units_Z   2
loop_
 _symmetry_equiv_pos_site_id
 _symmetry_equiv_pos_as_xyz
  1  'x, y, z'
loop_
 _atom_site_type_symbol
 _atom_site_label
 _atom_site_symmetry_multiplicity
 _atom_site_fract_x
 _atom_site_fract_y
 _atom_site_fract_z
 _atom_site_occupancy
  Li  Li0  1  0.00000003  0.50000002  0.49999999  1
  Li  Li1  1  0.00000000  0.00000000  0.50000000  1
  Fe  Fe2  1  0.00000000  0.00000000  0.00000000  1
  Fe  Fe3  1  0.49999998  0.00000000  -0.00000000  1
  P  P4  1  0.62115900  0.38157702  0.24975899  1
  P  P5  1  0.37884102  0.61842303  0.75024099  1
  O  O6  1  0.09677705  0.90612504  0.24930299  1
  O  O7  1  0.90322297  0.09387500  0.75069699  1
  O  O8  1  0.68408202  0.69091103  0.13367499  1
  O  O9  1  0.21669404  0.70089703  0.60042399  1
  O  O10  1  0.68675402  0.68821503  0.62715899  1
  O  O11  1  0.70440699  0.22753801  0.09360399  1
  O  O12  1  0.31591801  0.30909001  0.86632399  1
  O  O13  1  0.78330699  0.29910301  0.39957599  1
  O  O14  1  0.31324601  0.31178502  0.37284100  1
  O  O15  1  0.29559204  0.77246104  0.90639599  1
