# generated using pymatgen
data_SmTmO4
_symmetry_space_group_name_H-M   'P 1'
_cell_length_a   4.00126648
_cell_length_b   4.00126648
_cell_length_c   7.20520878
_cell_angle_alpha   73.87910461
_cell_angle_beta   73.87910461
_cell_angle_gamma   59.99998856
_symmetry_Int_Tables_number   1
_chemical_formula_structural   SmTmO4
_chemical_formula_sum   'Sm1 Tm1 O4'
_cell_volume   94.62751314
_cell_formula_units_Z   1
loop_
 _symmetry_equiv_pos_site_id
 _symmetry_equiv_pos_as_xyz
  1  'x, y, z'
loop_
 _atom_site_type_symbol
 _atom_site_label
 _atom_site_symmetry_multiplicity
 _atom_site_fract_x
 _atom_site_fract_y
 _atom_site_fract_z
 _atom_site_occupancy
  Tm  Tm0  1  0.76093604  0.76093604  0.71719196  1
  Sm  Sm1  1  0.23906401  0.23906401  0.28280799  1
  O  O2  1  0.12805701  0.12805701  0.61582898  1
  O  O3  1  0.87194305  0.87194305  0.38417096  1
  O  O4  1  0.37757502  0.37757502  0.86727497  1
  O  O5  1  0.62242504  0.62242503  0.13272497  1
