# generated using pymatgen
data_Na3TbCl6
_symmetry_space_group_name_H-M   'P 1'
_cell_length_a   7.61774969
_cell_length_b   7.61774969
_cell_length_c   7.88325024
_cell_angle_alpha   61.10798264
_cell_angle_beta   61.10798264
_cell_angle_gamma   60.00000381
_symmetry_Int_Tables_number   1
_chemical_formula_structural   Na3TbCl6
_chemical_formula_sum   'Na3 Tb1 Cl6'
_cell_volume   328.78911891
_cell_formula_units_Z   1
loop_
 _symmetry_equiv_pos_site_id
 _symmetry_equiv_pos_as_xyz
  1  'x, y, z'
loop_
 _atom_site_type_symbol
 _atom_site_label
 _atom_site_symmetry_multiplicity
 _atom_site_fract_x
 _atom_site_fract_y
 _atom_site_fract_z
 _atom_site_occupancy
  Na  Na0  1  0.35653100  0.35653100  0.93040697  1
  Na  Na1  1  0.14346900  0.14346900  0.56959299  1
  Na  Na2  1  0.85653101  0.85653099  0.43040694  1
  Tb  Tb3  1  0.64346901  0.64346899  0.06959295  1
  Cl  Cl4  1  0.46086700  0.03913300  0.74999998  1
  Cl  Cl5  1  0.75000000  0.46086699  0.74999996  1
  Cl  Cl6  1  0.03913301  0.74999999  0.74999997  1
  Cl  Cl7  1  0.96086700  0.25000000  0.24999996  1
  Cl  Cl8  1  0.25000001  0.53913299  0.24999997  1
  Cl  Cl9  1  0.53913301  0.96086699  0.24999994  1
