# generated using pymatgen
data_K6Na2NbO9
_symmetry_space_group_name_H-M   'P 1'
_cell_length_a   6.15021563
_cell_length_b   6.40283823
_cell_length_c   9.41086102
_cell_angle_alpha   78.29640961
_cell_angle_beta   77.96278381
_cell_angle_gamma   75.99387360
_symmetry_Int_Tables_number   1
_chemical_formula_structural   K6Na2NbO9
_chemical_formula_sum   'K6 Na2 Nb1 O9'
_cell_volume   347.10166367
_cell_formula_units_Z   1
loop_
 _symmetry_equiv_pos_site_id
 _symmetry_equiv_pos_as_xyz
  1  'x, y, z'
loop_
 _atom_site_type_symbol
 _atom_site_label
 _atom_site_symmetry_multiplicity
 _atom_site_fract_x
 _atom_site_fract_y
 _atom_site_fract_z
 _atom_site_occupancy
  K  K0  1  0.76123403  0.58517901  0.13069700  1
  K  K1  1  0.23876602  0.41482101  0.86930296  1
  K  K2  1  0.71138702  0.16003400  0.99127898  1
  K  K3  1  0.28861303  0.83996602  0.00872097  1
  K  K4  1  0.76642603  0.40286001  0.61443699  1
  K  K5  1  0.23357402  0.59714001  0.38556297  1
  Na  Na6  1  0.24330203  0.94596202  0.62466794  1
  Na  Na7  1  0.75669802  0.05403800  0.37533201  1
  O  O8  1  0.75672104  0.80846902  0.76970596  1
  Nb  Nb9  1  0.24327901  0.19153100  0.23029399  1
  O  O10  1  0.90512104  0.76739402  0.58341298  1
  O  O11  1  0.09487901  0.23260601  0.41658698  1
  O  O12  1  0.97065204  0.81347802  0.88306897  1
  O  O13  1  0.02934801  0.18652200  0.11693099  1
  O  O14  1  0.62789003  0.57415201  0.84722496  1
  O  O15  1  0.37211002  0.42584801  0.15277499  1
  O  O16  1  0.46871903  0.93843202  0.21854897  1
  O  O17  1  0.53128101  0.06156800  0.78145099  1
