# generated using pymatgen
data_FeB2N3
_symmetry_space_group_name_H-M   'P 1'
_cell_length_a   5.08672380
_cell_length_b   5.15126848
_cell_length_c   5.08672380
_cell_angle_alpha   119.58637238
_cell_angle_beta   90.00000000
_cell_angle_gamma   119.58637238
_symmetry_Int_Tables_number   1
_chemical_formula_structural   FeB2N3
_chemical_formula_sum   'Fe1 B2 N3'
_cell_volume   95.41504203
_cell_formula_units_Z   1
loop_
 _symmetry_equiv_pos_site_id
 _symmetry_equiv_pos_as_xyz
  1  'x, y, z'
loop_
 _atom_site_type_symbol
 _atom_site_label
 _atom_site_symmetry_multiplicity
 _atom_site_fract_x
 _atom_site_fract_y
 _atom_site_fract_z
 _atom_site_occupancy
  B  B0  1  0.00000000  0.00000000  0.00000000  1
  Fe  Fe1  1  0.74999999  0.49999997  0.24999998  1
  B  B2  1  0.85351101  0.26622699  0.25613999  1
  N  N3  1  0.41271500  0.26622599  0.01008598  1
  N  N4  1  0.98991299  0.73377296  0.14648795  1
  N  N5  1  0.74385998  0.73377396  0.58728497  1
