# generated using pymatgen
data_Li2Ti2O5
_symmetry_space_group_name_H-M   'P 1'
_cell_length_a   4.55250120
_cell_length_b   6.65929699
_cell_length_c   6.65929699
_cell_angle_alpha   90.00000000
_cell_angle_beta   90.00000000
_cell_angle_gamma   90.00000000
_symmetry_Int_Tables_number   1
_chemical_formula_structural   Li2Ti2O5
_chemical_formula_sum   'Li4 Ti4 O10'
_cell_volume   201.88629447
_cell_formula_units_Z   2
loop_
 _symmetry_equiv_pos_site_id
 _symmetry_equiv_pos_as_xyz
  1  'x, y, z'
loop_
 _atom_site_type_symbol
 _atom_site_label
 _atom_site_symmetry_multiplicity
 _atom_site_fract_x
 _atom_site_fract_y
 _atom_site_fract_z
 _atom_site_occupancy
  Li  Li0  1  0.49999998  0.75000000  0.25000000  1
  Li  Li1  1  0.49999998  0.25000000  0.25000000  1
  Li  Li2  1  0.49999998  0.25000000  0.75000000  1
  Li  Li3  1  0.49999998  0.75000000  0.75000000  1
  Ti  Ti4  1  0.10436300  0.00000000  0.50000000  1
  Ti  Ti5  1  0.89563696  0.50000000  -0.00000000  1
  Ti  Ti6  1  0.00000000  0.50000000  0.50000000  1
  Ti  Ti7  1  0.00000000  0.00000000  0.00000000  1
  O  O8  1  0.76849997  0.50000000  0.71356800  1
  O  O9  1  0.76849997  0.50000000  0.28643200  1
  O  O10  1  0.27260699  0.50000000  -0.00000000  1
  O  O11  1  0.72739297  0.00000000  0.50000000  1
  O  O12  1  0.23149999  0.71356800  0.50000000  1
  O  O13  1  0.23149999  0.00000000  0.78643200  1
  O  O14  1  0.23149999  0.00000000  0.21356800  1
  O  O15  1  0.23149999  0.28643200  0.50000000  1
  O  O16  1  0.76849997  0.78643200  0.00000000  1
  O  O17  1  0.76849997  0.21356800  -0.00000000  1
