# generated using pymatgen
data_K6BC(ClO3)2
_symmetry_space_group_name_H-M   'P 1'
_cell_length_a   5.57506800
_cell_length_b   5.57506752
_cell_length_c   13.70876026
_cell_angle_alpha   90.00000000
_cell_angle_beta   90.00000000
_cell_angle_gamma   120.00000000
_symmetry_Int_Tables_number   1
_chemical_formula_structural   K6BC(ClO3)2
_chemical_formula_sum   'K6 B1 C1 Cl2 O6'
_cell_volume   369.00233427
_cell_formula_units_Z   1
loop_
 _symmetry_equiv_pos_site_id
 _symmetry_equiv_pos_as_xyz
  1  'x, y, z'
loop_
 _atom_site_type_symbol
 _atom_site_label
 _atom_site_symmetry_multiplicity
 _atom_site_fract_x
 _atom_site_fract_y
 _atom_site_fract_z
 _atom_site_occupancy
  K  K0  1  0.66666665  0.33333333  0.59816499  1
  K  K1  1  0.00000000  0.00000000  0.74999999  1
  K  K2  1  0.00000000  0.00000000  0.25000000  1
  K  K3  1  0.33333330  0.66666665  0.09816500  1
  K  K4  1  0.33333330  0.66666665  0.40183499  1
  K  K5  1  0.66666665  0.33333333  0.90183498  1
  B  B6  1  0.33333330  0.66666665  0.74999999  1
  C  C7  1  0.66666665  0.33333333  0.25000000  1
  Cl  Cl8  1  0.00000000  0.00000000  0.00000000  1
  Cl  Cl9  1  0.00000000  0.00000000  0.49999999  1
  O  O10  1  0.52184897  0.47814999  0.25000000  1
  O  O11  1  0.47815095  0.95630198  0.74999999  1
  O  O12  1  0.47815097  0.52184999  0.74999999  1
  O  O13  1  0.95630097  0.47814999  0.25000000  1
  O  O14  1  0.52184900  0.04369800  0.25000000  1
  O  O15  1  0.04369897  0.52184999  0.74999999  1
