# generated using pymatgen
data_Cs5NaBeCuF12
_symmetry_space_group_name_H-M   'P 1'
_cell_length_a   6.27687073
_cell_length_b   6.27687073
_cell_length_c   10.75842476
_cell_angle_alpha   73.03910828
_cell_angle_beta   73.03910828
_cell_angle_gamma   59.99999237
_symmetry_Int_Tables_number   1
_chemical_formula_structural   Cs5NaBeCuF12
_chemical_formula_sum   'Cs5 Na1 Be1 Cu1 F12'
_cell_volume   345.63142305
_cell_formula_units_Z   1
loop_
 _symmetry_equiv_pos_site_id
 _symmetry_equiv_pos_as_xyz
  1  'x, y, z'
loop_
 _atom_site_type_symbol
 _atom_site_label
 _atom_site_symmetry_multiplicity
 _atom_site_fract_x
 _atom_site_fract_y
 _atom_site_fract_z
 _atom_site_occupancy
  Cs  Cs0  1  0.21946799  0.21946800  0.34159599  1
  Cs  Cs1  1  0.78053198  0.78053200  0.65840396  1
  Cs  Cs2  1  0.62813999  0.62814000  0.11557996  1
  Cs  Cs3  1  0.37185999  0.37186000  0.88442000  1
  Cs  Cs4  1  0.90210298  0.90210300  0.29369094  1
  Na  Na5  1  0.09789700  0.09789700  0.70630902  1
  Be  Be6  1  0.00000000  0.00000000  0.00000000  1
  Cu  Cu7  1  0.49999999  0.50000000  0.49999998  1
  F  F8  1  0.32469999  0.74620400  0.60439598  1
  F  F9  1  0.67529998  0.67530000  0.39560396  1
  F  F10  1  0.25379599  0.67530000  0.39560398  1
  F  F11  1  0.74620399  0.32470000  0.60439598  1
  F  F12  1  0.10017199  0.69113200  0.10852397  1
  F  F13  1  0.10017200  0.10017200  0.10852400  1
  F  F14  1  0.69113199  0.10017200  0.10852397  1
  F  F15  1  0.32469999  0.32470000  0.60439600  1
  F  F16  1  0.89982799  0.30886800  0.89147598  1
  F  F17  1  0.89982798  0.89982800  0.89147596  1
  F  F18  1  0.30886799  0.89982800  0.89147598  1
  F  F19  1  0.67529999  0.25379600  0.39560398  1
