# generated using pymatgen
data_Y3Si2Sn2O5
_symmetry_space_group_name_H-M   'P 1'
_cell_length_a   5.05461311
_cell_length_b   5.46987820
_cell_length_c   9.59852982
_cell_angle_alpha   90.00000000
_cell_angle_beta   90.00000000
_cell_angle_gamma   102.03899384
_symmetry_Int_Tables_number   1
_chemical_formula_structural   Y3Si2Sn2O5
_chemical_formula_sum   'Y3 Si2 Sn2 O5'
_cell_volume   259.54445655
_cell_formula_units_Z   1
loop_
 _symmetry_equiv_pos_site_id
 _symmetry_equiv_pos_as_xyz
  1  'x, y, z'
loop_
 _atom_site_type_symbol
 _atom_site_label
 _atom_site_symmetry_multiplicity
 _atom_site_fract_x
 _atom_site_fract_y
 _atom_site_fract_z
 _atom_site_occupancy
  Y  Y0  1  0.00790498  0.34804100  0.75000001  1
  Y  Y1  1  0.99209493  0.65195900  0.25000000  1
  Si  Si2  1  0.28866393  0.89949600  0.75000001  1
  Si  Si3  1  0.71133598  0.10050400  0.25000000  1
  Y  Y4  1  0.61489292  0.95232800  0.59067301  1
  Sn  Sn5  1  0.38510699  0.04767200  0.09067300  1
  Sn  Sn6  1  0.38510699  0.04767200  0.40932701  1
  O  O7  1  0.61489292  0.95232800  0.90932702  1
  O  O8  1  0.70719994  0.59707900  0.52975001  1
  O  O9  1  0.29279997  0.40292100  0.02975000  1
  O  O10  1  0.29279997  0.40292100  0.47025001  1
  O  O11  1  0.70719994  0.59707900  0.97025002  1
