# generated using pymatgen
data_Li5Co3O8
_symmetry_space_group_name_H-M   'P 1'
_cell_length_a   5.14628696
_cell_length_b   5.92948055
_cell_length_c   5.96595430
_cell_angle_alpha   60.20869446
_cell_angle_beta   73.07072449
_cell_angle_gamma   89.99865723
_symmetry_Int_Tables_number   1
_chemical_formula_structural   Li5Co3O8
_chemical_formula_sum   'Li5 Co3 O8'
_cell_volume   148.83207855
_cell_formula_units_Z   1
loop_
 _symmetry_equiv_pos_site_id
 _symmetry_equiv_pos_as_xyz
  1  'x, y, z'
loop_
 _atom_site_type_symbol
 _atom_site_label
 _atom_site_symmetry_multiplicity
 _atom_site_fract_x
 _atom_site_fract_y
 _atom_site_fract_z
 _atom_site_occupancy
  Li  Li0  1  0.99329700  0.99847598  0.00312693  1
  Li  Li1  1  0.00673699  0.50152199  0.99683100  1
  Li  Li2  1  0.50000400  0.74999599  0.00001496  1
  Li  Li3  1  0.49999500  0.24999200  0.99999299  1
  Li  Li4  1  0.50008100  0.24997600  0.49996898  1
  Co  Co5  1  0.50014500  0.75008099  0.50009897  1
  Co  Co6  1  0.99987401  0.49878199  0.49999195  1
  Co  Co7  1  0.99988102  0.00114300  0.49999796  1
  O  O8  1  0.23867200  0.36512599  0.26971199  1
  O  O9  1  0.76130501  0.13484400  0.73026697  1
  O  O10  1  0.24256699  0.86160599  0.27672697  1
  O  O11  1  0.75747700  0.63839699  0.72324496  1
  O  O12  1  0.74395000  0.61502699  0.27326196  1
  O  O13  1  0.25603299  0.88501199  0.72674398  1
  O  O14  1  0.25595500  0.38834199  0.72683199  1
  O  O15  1  0.74402501  0.11168000  0.27318497  1
