# generated using pymatgen
data_Ba3ThO5
_symmetry_space_group_name_H-M   'P 1'
_cell_length_a   4.13191509
_cell_length_b   4.13191509
_cell_length_c   9.99634743
_cell_angle_alpha   101.92734528
_cell_angle_beta   101.92735291
_cell_angle_gamma   90.00000000
_symmetry_Int_Tables_number   1
_chemical_formula_structural   Ba3ThO5
_chemical_formula_sum   'Ba3 Th1 O5'
_cell_volume   163.21254790
_cell_formula_units_Z   1
loop_
 _symmetry_equiv_pos_site_id
 _symmetry_equiv_pos_as_xyz
  1  'x, y, z'
loop_
 _atom_site_type_symbol
 _atom_site_label
 _atom_site_symmetry_multiplicity
 _atom_site_fract_x
 _atom_site_fract_y
 _atom_site_fract_z
 _atom_site_occupancy
  Ba  Ba0  1  0.41494899  0.41494999  0.82989899  1
  Ba  Ba1  1  0.58505099  0.58504998  0.17010099  1
  Ba  Ba2  1  0.74999998  0.24999999  0.49999999  1
  Th  Th3  1  0.24999999  0.74999998  0.49999999  1
  O  O4  1  0.00000000  0.00000000  0.00000000  1
  O  O5  1  0.16834500  0.16834400  0.33668899  1
  O  O6  1  0.83165498  0.83165598  0.66331099  1
  O  O7  1  0.49999999  0.00000000  0.00000000  1
  O  O8  1  -0.00000000  0.49999999  -0.00000000  1
