# generated using pymatgen
data_Na2TlV(PO4)2
_symmetry_space_group_name_H-M   'P 1'
_cell_length_a   5.96356392
_cell_length_b   5.96356392
_cell_length_c   7.76894093
_cell_angle_alpha   90.00000000
_cell_angle_beta   90.00000000
_cell_angle_gamma   120.00000000
_symmetry_Int_Tables_number   1
_chemical_formula_structural   Na2TlV(PO4)2
_chemical_formula_sum   'Na2 Tl1 V1 P2 O8'
_cell_volume   239.27879218
_cell_formula_units_Z   1
loop_
 _symmetry_equiv_pos_site_id
 _symmetry_equiv_pos_as_xyz
  1  'x, y, z'
loop_
 _atom_site_type_symbol
 _atom_site_label
 _atom_site_symmetry_multiplicity
 _atom_site_fract_x
 _atom_site_fract_y
 _atom_site_fract_z
 _atom_site_occupancy
  Na  Na0  1  0.66666668  0.33333334  0.29852200  1
  Na  Na1  1  0.33333334  0.66666669  0.70147801  1
  Tl  Tl2  1  0.00000000  0.00000000  0.00000000  1
  V  V3  1  0.00000000  0.00000000  0.50000000  1
  P  P4  1  0.66666668  0.33333334  0.74562801  1
  P  P5  1  0.33333334  0.66666669  0.25437200  1
  O  O6  1  0.66666668  0.33333334  0.96236701  1
  O  O7  1  0.33333334  0.66666669  0.03763300  1
  O  O8  1  0.82767602  0.65535202  0.66838501  1
  O  O9  1  0.17232401  0.34464801  0.33161500  1
  O  O10  1  0.82767601  0.17232301  0.66838501  1
  O  O11  1  0.17232401  0.82767702  0.33161500  1
  O  O12  1  0.34464701  0.17232301  0.66838501  1
  O  O13  1  0.65535302  0.82767702  0.33161500  1
