# generated using pymatgen
data_Li2Ti5O11
_symmetry_space_group_name_H-M   'P 1'
_cell_length_a   4.74426699
_cell_length_b   4.74426699
_cell_length_c   9.30729294
_cell_angle_alpha   90.00000000
_cell_angle_beta   90.00000000
_cell_angle_gamma   90.00000000
_symmetry_Int_Tables_number   1
_chemical_formula_structural   Li2Ti5O11
_chemical_formula_sum   'Li2 Ti5 O11'
_cell_volume   209.48919391
_cell_formula_units_Z   1
loop_
 _symmetry_equiv_pos_site_id
 _symmetry_equiv_pos_as_xyz
  1  'x, y, z'
loop_
 _atom_site_type_symbol
 _atom_site_label
 _atom_site_symmetry_multiplicity
 _atom_site_fract_x
 _atom_site_fract_y
 _atom_site_fract_z
 _atom_site_occupancy
  Li  Li0  1  0.00000000  0.00000000  0.66698200  1
  Li  Li1  1  0.50000000  0.50000000  0.16698200  1
  Ti  Ti2  1  0.00000000  0.00000000  0.33157600  1
  Ti  Ti3  1  0.50000000  0.50000000  0.83157601  1
  Ti  Ti4  1  0.00000000  0.00000000  0.00355100  1
  Ti  Ti5  1  0.50000000  0.50000000  0.50355100  1
  O  O6  1  0.69983300  0.69983300  0.66784000  1
  Ti  Ti7  1  0.80016700  0.19983300  0.16784000  1
  O  O8  1  0.19983300  0.80016700  0.16784000  1
  O  O9  1  0.30016700  0.30016700  0.66784000  1
  O  O10  1  0.29761500  0.29761500  0.99686901  1
  O  O11  1  0.20238500  0.79761500  0.49686900  1
  O  O12  1  0.79761500  0.20238500  0.49686900  1
  O  O13  1  0.70238500  0.70238500  0.99686901  1
  O  O14  1  0.29775800  0.29775800  0.33778700  1
  O  O15  1  0.20224200  0.79775800  0.83778701  1
  O  O16  1  0.79775800  0.20224200  0.83778701  1
  O  O17  1  0.70224200  0.70224200  0.33778700  1
