# generated using pymatgen
data_Mg2FeRuO6
_symmetry_space_group_name_H-M   'P 1'
_cell_length_a   5.37902546
_cell_length_b   5.37902546
_cell_length_c   5.68761396
_cell_angle_alpha   61.77912140
_cell_angle_beta   61.77912140
_cell_angle_gamma   60.00000381
_symmetry_Int_Tables_number   1
_chemical_formula_structural   Mg2FeRuO6
_chemical_formula_sum   'Mg2 Fe1 Ru1 O6'
_cell_volume   119.39662229
_cell_formula_units_Z   1
loop_
 _symmetry_equiv_pos_site_id
 _symmetry_equiv_pos_as_xyz
  1  'x, y, z'
loop_
 _atom_site_type_symbol
 _atom_site_label
 _atom_site_symmetry_multiplicity
 _atom_site_fract_x
 _atom_site_fract_y
 _atom_site_fract_z
 _atom_site_occupancy
  Mg  Mg0  1  0.36546199  0.36546201  0.90361403  1
  Mg  Mg1  1  0.63453798  0.63453802  0.09638603  1
  Fe  Fe2  1  0.14996200  0.14996200  0.55011401  1
  Ru  Ru3  1  0.85003798  0.85003803  0.44988604  1
  O  O4  1  0.04998697  0.75984602  0.74440503  1
  O  O5  1  0.75984599  0.44576201  0.74440503  1
  O  O6  1  0.44576200  0.04998700  0.74440502  1
  O  O7  1  0.95001300  0.24015401  0.25559502  1
  O  O8  1  0.55423797  0.95001303  0.25559503  1
  O  O9  1  0.24015398  0.55423802  0.25559502  1
