# generated using pymatgen
data_Li4VO6
_symmetry_space_group_name_H-M   'P 1'
_cell_length_a   5.10125923
_cell_length_b   5.84026909
_cell_length_c   5.84026909
_cell_angle_alpha   75.46906281
_cell_angle_beta   81.79328918
_cell_angle_gamma   98.20671082
_symmetry_Int_Tables_number   1
_chemical_formula_structural   Li4VO6
_chemical_formula_sum   'Li4 V1 O6'
_cell_volume   163.78620506
_cell_formula_units_Z   1
loop_
 _symmetry_equiv_pos_site_id
 _symmetry_equiv_pos_as_xyz
  1  'x, y, z'
loop_
 _atom_site_type_symbol
 _atom_site_label
 _atom_site_symmetry_multiplicity
 _atom_site_fract_x
 _atom_site_fract_y
 _atom_site_fract_z
 _atom_site_occupancy
  Li  Li0  1  0.90589496  0.22593701  0.77406302  1
  Li  Li1  1  0.09410497  0.77406302  0.22593697  1
  Li  Li2  1  0.49999997  0.30800301  0.30800300  1
  Li  Li3  1  0.49999996  0.69199702  0.69199699  1
  V  V4  1  0.28235296  0.92046602  0.38925397  1
  O  O5  1  0.71764696  0.38925401  0.92046601  1
  O  O6  1  0.71764697  0.07953400  0.61074602  1
  O  O7  1  0.28235297  0.61074602  0.07953398  1
  O  O8  1  0.00000000  0.00000000  0.00000000  1
  O  O9  1  0.78965795  0.60312602  0.39687400  1
  O  O10  1  0.21034198  0.39687401  0.60312600  1
