# generated using pymatgen
data_NaCuPHO7
_symmetry_space_group_name_H-M   'P 1'
_cell_length_a   4.52687931
_cell_length_b   5.23697805
_cell_length_c   5.23697805
_cell_angle_alpha   76.98016357
_cell_angle_beta   81.63824463
_cell_angle_gamma   98.36175537
_symmetry_Int_Tables_number   1
_chemical_formula_structural   NaCuPHO7
_chemical_formula_sum   'Na1 Cu1 P1 H1 O7'
_cell_volume   117.61386677
_cell_formula_units_Z   1
loop_
 _symmetry_equiv_pos_site_id
 _symmetry_equiv_pos_as_xyz
  1  'x, y, z'
loop_
 _atom_site_type_symbol
 _atom_site_label
 _atom_site_symmetry_multiplicity
 _atom_site_fract_x
 _atom_site_fract_y
 _atom_site_fract_z
 _atom_site_occupancy
  Na  Na0  1  0.49999995  0.69356600  0.69356601  1
  Cu  Cu1  1  0.49999998  0.06538800  0.06538801  1
  P  P2  1  0.09064799  0.19102600  0.61191600  1
  H  H3  1  0.90935194  0.61191600  0.19102602  1
  O  O4  1  0.21245396  0.76155700  0.01029600  1
  O  O5  1  0.74953096  0.41098600  0.06352502  1
  O  O6  1  0.69837694  0.79223500  0.28965002  1
  O  O7  1  0.25046899  0.06352500  0.41098601  1
  O  O8  1  -0.00000002  0.46535200  0.46535200  1
  O  O9  1  0.78754597  0.01029600  0.76155702  1
  O  O10  1  0.30162298  0.28964900  0.79223501  1
