# generated using pymatgen
data_Ba3Pb
_symmetry_space_group_name_H-M   'P 1'
_cell_length_a   5.57010412
_cell_length_b   7.90980911
_cell_length_c   11.09713650
_cell_angle_alpha   90.00000000
_cell_angle_beta   90.00000000
_cell_angle_gamma   90.00000000
_symmetry_Int_Tables_number   1
_chemical_formula_structural   Ba3Pb
_chemical_formula_sum   'Ba6 Pb2'
_cell_volume   488.92274830
_cell_formula_units_Z   2
loop_
 _symmetry_equiv_pos_site_id
 _symmetry_equiv_pos_as_xyz
  1  'x, y, z'
loop_
 _atom_site_type_symbol
 _atom_site_label
 _atom_site_symmetry_multiplicity
 _atom_site_fract_x
 _atom_site_fract_y
 _atom_site_fract_z
 _atom_site_occupancy
  Ba  Ba0  1  0.25000001  0.25072462  0.11718447  1
  Ba  Ba1  1  0.25000001  0.24927536  0.61718445  1
  Ba  Ba2  1  0.75000003  0.74927535  0.88281551  1
  Ba  Ba3  1  0.75000003  0.75072461  0.38281552  1
  Ba  Ba4  1  0.25000001  0.75178262  0.13067738  1
  Ba  Ba5  1  0.25000001  0.74821734  0.63067736  1
  Pb  Pb6  1  0.75000003  0.24821735  0.86932260  1
  Pb  Pb7  1  0.75000003  0.25178263  0.36932261  1
