# generated using pymatgen
data_Mg(ZnS)2
_symmetry_space_group_name_H-M   'P 1'
_cell_length_a   3.89215207
_cell_length_b   3.89215207
_cell_length_c   14.02683258
_cell_angle_alpha   97.97491455
_cell_angle_beta   97.97491455
_cell_angle_gamma   90.00000000
_symmetry_Int_Tables_number   1
_chemical_formula_structural   Mg(ZnS)2
_chemical_formula_sum   'Mg2 Zn4 S4'
_cell_volume   208.36005603
_cell_formula_units_Z   2
loop_
 _symmetry_equiv_pos_site_id
 _symmetry_equiv_pos_as_xyz
  1  'x, y, z'
loop_
 _atom_site_type_symbol
 _atom_site_label
 _atom_site_symmetry_multiplicity
 _atom_site_fract_x
 _atom_site_fract_y
 _atom_site_fract_z
 _atom_site_occupancy
  Mg  Mg0  1  0.30347899  0.30347899  0.60695800  1
  Mg  Mg1  1  0.69652099  0.69652099  0.39304200  1
  Zn  Zn2  1  0.09919100  0.09919100  0.19838200  1
  Zn  Zn3  1  0.49999999  0.49999999  0.99999999  1
  Zn  Zn4  1  0.90080899  0.90080898  0.80161800  1
  Zn  Zn5  1  0.25000000  0.74999999  0.50000000  1
  S  S6  1  0.64807999  0.14808000  0.29616000  1
  S  S7  1  0.04974700  0.54974699  0.09949400  1
  S  S8  1  0.45025299  0.95025298  0.90050599  1
  S  S9  1  0.85191999  0.35191999  0.70384000  1
