# generated using pymatgen
data_Na2LiTlN2
_symmetry_space_group_name_H-M   'P 1'
_cell_length_a   4.27696657
_cell_length_b   4.27696657
_cell_length_c   8.29058838
_cell_angle_alpha   75.05207825
_cell_angle_beta   75.05207825
_cell_angle_gamma   59.99998856
_symmetry_Int_Tables_number   1
_chemical_formula_structural   Na2LiTlN2
_chemical_formula_sum   'Na2 Li1 Tl1 N2'
_cell_volume   125.37634911
_cell_formula_units_Z   1
loop_
 _symmetry_equiv_pos_site_id
 _symmetry_equiv_pos_as_xyz
  1  'x, y, z'
loop_
 _atom_site_type_symbol
 _atom_site_label
 _atom_site_symmetry_multiplicity
 _atom_site_fract_x
 _atom_site_fract_y
 _atom_site_fract_z
 _atom_site_occupancy
  Li  Li0  1  0.50000003  0.50000002  0.50000001  1
  Na  Na1  1  0.00000000  0.00000000  0.00000000  1
  Na  Na2  1  0.63271903  0.63271903  0.10184300  1
  Tl  Tl3  1  0.36728102  0.36728102  0.89815702  1
  N  N4  1  0.25336301  0.25336301  0.23991101  1
  N  N5  1  0.74663704  0.74663703  0.76008902  1
