# generated using pymatgen
data_MgZn3Cu3S7
_symmetry_space_group_name_H-M   'P 1'
_cell_length_a   6.97949600
_cell_length_b   6.98942900
_cell_length_c   6.99149942
_cell_angle_alpha   60.30277252
_cell_angle_beta   60.23468399
_cell_angle_gamma   60.25232697
_symmetry_Int_Tables_number   1
_chemical_formula_structural   MgZn3Cu3S7
_chemical_formula_sum   'Mg1 Zn3 Cu3 S7'
_cell_volume   242.60567516
_cell_formula_units_Z   1
loop_
 _symmetry_equiv_pos_site_id
 _symmetry_equiv_pos_as_xyz
  1  'x, y, z'
loop_
 _atom_site_type_symbol
 _atom_site_label
 _atom_site_symmetry_multiplicity
 _atom_site_fract_x
 _atom_site_fract_y
 _atom_site_fract_z
 _atom_site_occupancy
  Mg  Mg0  1  0.37538101  0.87532697  0.87540402  1
  Zn  Zn1  1  0.62460698  0.12467500  0.12458601  1
  Zn  Zn2  1  0.99999898  0.49994998  0.50005402  1
  Zn  Zn3  1  0.50000500  0.50000798  0.49998001  1
  Cu  Cu4  1  0.00000601  0.50000298  0.99999600  1
  Cu  Cu5  1  0.00000000  0.00000800  0.49998900  1
  S  S6  1  0.80049400  0.73733597  0.73757902  1
  Cu  Cu7  1  0.76226998  0.26229599  0.70024501  1
  S  S8  1  0.76914198  0.26879799  0.26901701  1
  S  S9  1  0.76259500  0.70023298  0.26234102  1
  S  S10  1  0.23087101  0.73121298  0.73094901  1
  S  S11  1  0.23743600  0.29975599  0.73766800  1
  S  S12  1  0.19948700  0.26269499  0.26244101  1
  S  S13  1  0.23770601  0.73770697  0.29975201  1
