# generated using pymatgen
data_SrTlZn3CuPS4N
_symmetry_space_group_name_H-M   'P 1'
_cell_length_a   4.16776419
_cell_length_b   4.16776466
_cell_length_c   22.37240601
_cell_angle_alpha   90.00000000
_cell_angle_beta   90.00000000
_cell_angle_gamma   120.00000000
_symmetry_Int_Tables_number   1
_chemical_formula_structural   SrTlZn3CuPS4N
_chemical_formula_sum   'Sr1 Tl1 Zn3 Cu1 P1 S4 N1'
_cell_volume   336.55004310
_cell_formula_units_Z   1
loop_
 _symmetry_equiv_pos_site_id
 _symmetry_equiv_pos_as_xyz
  1  'x, y, z'
loop_
 _atom_site_type_symbol
 _atom_site_label
 _atom_site_symmetry_multiplicity
 _atom_site_fract_x
 _atom_site_fract_y
 _atom_site_fract_z
 _atom_site_occupancy
  Sr  Sr0  1  0.00000000  0.00000000  0.21814500  1
  Zn  Zn1  1  0.66666666  0.33333333  0.94870200  1
  Zn  Zn2  1  0.00000000  0.00000000  0.55139000  1
  Cu  Cu3  1  0.00000000  0.00000000  0.88494800  1
  Tl  Tl4  1  0.33333336  0.66666665  0.28186400  1
  Zn  Zn5  1  0.66666666  0.33333333  0.61503700  1
  S  S6  1  0.00000000  0.00000000  0.66825900  1
  P  P7  1  0.00000000  0.00000000  0.33501600  1
  S  S8  1  0.66666666  0.33333333  0.83177400  1
  S  S9  1  0.66666666  0.33333333  0.49814400  1
  N  N10  1  0.33333336  0.66666665  0.16492700  1
  S  S11  1  0.00000000  0.00000000  0.00182400  1
