# generated using pymatgen
data_LaZrO4
_symmetry_space_group_name_H-M   'P 1'
_cell_length_a   3.90193391
_cell_length_b   5.28345108
_cell_length_c   9.86520481
_cell_angle_alpha   74.52711487
_cell_angle_beta   78.59385681
_cell_angle_gamma   68.33001709
_symmetry_Int_Tables_number   1
_chemical_formula_structural   LaZrO4
_chemical_formula_sum   'La2 Zr2 O8'
_cell_volume   181.03238828
_cell_formula_units_Z   2
loop_
 _symmetry_equiv_pos_site_id
 _symmetry_equiv_pos_as_xyz
  1  'x, y, z'
loop_
 _atom_site_type_symbol
 _atom_site_label
 _atom_site_symmetry_multiplicity
 _atom_site_fract_x
 _atom_site_fract_y
 _atom_site_fract_z
 _atom_site_occupancy
  La  La0  1  0.27878603  0.23622799  0.20620001  1
  La  La1  1  0.72121408  0.76377196  0.79380002  1
  Zr  Zr2  1  0.88179509  0.80631696  0.43009301  1
  Zr  Zr3  1  0.11820502  0.19368299  0.56990702  1
  O  O4  1  0.61513307  0.67541396  0.09432000  1
  O  O5  1  0.38486704  0.32458598  0.90568003  1
  O  O6  1  0.84796203  0.05121900  0.25285701  1
  O  O7  1  0.15203808  0.94878095  0.74714302  1
  O  O8  1  0.66692902  0.10157799  0.56456402  1
  O  O9  1  0.33307108  0.89842195  0.43543601  1
  O  O10  1  0.92083406  0.53316897  0.62516302  1
  O  O11  1  0.07916604  0.46683097  0.37483701  1
