# generated using pymatgen
data_Na6LiO7
_symmetry_space_group_name_H-M   'P 1'
_cell_length_a   5.75533724
_cell_length_b   5.75533724
_cell_length_c   10.08856201
_cell_angle_alpha   91.70815277
_cell_angle_beta   105.06445313
_cell_angle_gamma   119.48258209
_symmetry_Int_Tables_number   1
_chemical_formula_structural   Na6LiO7
_chemical_formula_sum   'Na6 Li1 O7'
_cell_volume   275.91290680
_cell_formula_units_Z   1
loop_
 _symmetry_equiv_pos_site_id
 _symmetry_equiv_pos_as_xyz
  1  'x, y, z'
loop_
 _atom_site_type_symbol
 _atom_site_label
 _atom_site_symmetry_multiplicity
 _atom_site_fract_x
 _atom_site_fract_y
 _atom_site_fract_z
 _atom_site_occupancy
  Na  Na0  1  0.52666906  0.52372303  0.49771101  1
  Na  Na1  1  0.47398808  0.97104206  0.99771099  1
  Na  Na2  1  0.25991803  0.38324702  0.12759700  1
  Na  Na3  1  0.24435006  0.86767905  0.62759699  1
  Li  Li4  1  0.00321501  0.25231502  0.75188799  1
  Na  Na5  1  0.99957309  0.74867305  0.25188802  1
  O  O6  1  0.22021902  0.08384901  0.22293300  1
  Na  Na7  1  0.20468303  0.29722802  0.92983699  1
  O  O8  1  0.64786007  0.68238104  0.21845701  1
  O  O9  1  0.03607603  0.57059704  0.71845699  1
  O  O10  1  0.13260905  0.72515404  0.42983699  1
  O  O11  1  0.13222401  0.13724501  0.63657800  1
  O  O12  1  0.99933308  0.50435403  0.13657803  1
  O  O13  1  0.63908403  0.00271400  0.72293301  1
