# generated using pymatgen
data_YGeO4
_symmetry_space_group_name_H-M   'P 1'
_cell_length_a   5.88612986
_cell_length_b   5.88612986
_cell_length_c   5.88612986
_cell_angle_alpha   106.15859222
_cell_angle_beta   106.15859222
_cell_angle_gamma   116.32139587
_symmetry_Int_Tables_number   1
_chemical_formula_structural   YGeO4
_chemical_formula_sum   'Y2 Ge2 O8'
_cell_volume   155.28599720
_cell_formula_units_Z   2
loop_
 _symmetry_equiv_pos_site_id
 _symmetry_equiv_pos_as_xyz
  1  'x, y, z'
loop_
 _atom_site_type_symbol
 _atom_site_label
 _atom_site_symmetry_multiplicity
 _atom_site_fract_x
 _atom_site_fract_y
 _atom_site_fract_z
 _atom_site_occupancy
  Y  Y0  1  0.74999998  0.24999999  0.49999998  1
  Y  Y1  1  0.00000000  0.00000000  0.00000000  1
  Ge  Ge2  1  0.24999999  0.74999998  0.49999998  1
  Ge  Ge3  1  0.49999999  0.49999999  0.99999997  1
  O  O4  1  0.67803898  0.86472398  0.18668498  1
  O  O5  1  0.61472399  0.92803898  0.68668497  1
  O  O6  1  0.24135399  0.92803898  0.31331498  1
  O  O7  1  0.67803899  0.49135399  0.81331497  1
  O  O8  1  0.13527600  0.32196099  0.81331498  1
  O  O9  1  0.07196100  0.38527599  0.31331499  1
  O  O10  1  0.07196100  0.75864598  0.68668498  1
  O  O11  1  0.50864599  0.32196099  0.18668499  1
