# generated using pymatgen
data_Mg3N2
_symmetry_space_group_name_H-M   'P 1'
_cell_length_a   4.71051502
_cell_length_b   4.72411203
_cell_length_c   7.15368223
_cell_angle_alpha   99.63615417
_cell_angle_beta   90.00000000
_cell_angle_gamma   90.00000000
_symmetry_Int_Tables_number   1
_chemical_formula_structural   Mg3N2
_chemical_formula_sum   'Mg6 N4'
_cell_volume   156.94480900
_cell_formula_units_Z   2
loop_
 _symmetry_equiv_pos_site_id
 _symmetry_equiv_pos_as_xyz
  1  'x, y, z'
loop_
 _atom_site_type_symbol
 _atom_site_label
 _atom_site_symmetry_multiplicity
 _atom_site_fract_x
 _atom_site_fract_y
 _atom_site_fract_z
 _atom_site_occupancy
  Mg  Mg0  1  0.80965700  0.78423200  0.25139701  1
  Mg  Mg1  1  0.30965700  0.21576800  0.24860300  1
  Mg  Mg2  1  0.19034300  0.21576800  0.74860299  1
  Mg  Mg3  1  0.69034300  0.78423200  0.75139700  1
  Mg  Mg4  1  0.34801700  0.62261800  0.91117899  1
  Mg  Mg5  1  0.84801700  0.37738200  0.58882099  1
  N  N6  1  0.65198300  0.37738200  0.08882100  1
  N  N7  1  0.15198300  0.62261800  0.41117900  1
  N  N8  1  0.50000000  0.00000000  0.49999999  1
  N  N9  1  0.00000000  0.00000000  0.00000000  1
