# generated using pymatgen
data_LiFeO2
_symmetry_space_group_name_H-M   'P 1'
_cell_length_a   2.91987157
_cell_length_b   2.91987157
_cell_length_c   5.51386309
_cell_angle_alpha   74.64639282
_cell_angle_beta   74.64639282
_cell_angle_gamma   60.00001144
_symmetry_Int_Tables_number   1
_chemical_formula_structural   LiFeO2
_chemical_formula_sum   'Li1 Fe1 O2'
_cell_volume   38.76181686
_cell_formula_units_Z   1
loop_
 _symmetry_equiv_pos_site_id
 _symmetry_equiv_pos_as_xyz
  1  'x, y, z'
loop_
 _atom_site_type_symbol
 _atom_site_label
 _atom_site_symmetry_multiplicity
 _atom_site_fract_x
 _atom_site_fract_y
 _atom_site_fract_z
 _atom_site_occupancy
  Li  Li0  1  0.00000000  0.00000000  0.00000000  1
  Fe  Fe1  1  0.49999997  0.49999999  0.50000000  1
  O  O2  1  0.22992099  0.22992099  0.31023700  1
  O  O3  1  0.77007896  0.77007898  0.68976300  1
