# generated using pymatgen
data_VH5O8
_symmetry_space_group_name_H-M   'P 1'
_cell_length_a   4.97040606
_cell_length_b   5.26565695
_cell_length_c   5.94900846
_cell_angle_alpha   112.27829742
_cell_angle_beta   90.00000000
_cell_angle_gamma   90.00000000
_symmetry_Int_Tables_number   1
_chemical_formula_structural   VH5O8
_chemical_formula_sum   'V1 H5 O8'
_cell_volume   144.07765638
_cell_formula_units_Z   1
loop_
 _symmetry_equiv_pos_site_id
 _symmetry_equiv_pos_as_xyz
  1  'x, y, z'
loop_
 _atom_site_type_symbol
 _atom_site_label
 _atom_site_symmetry_multiplicity
 _atom_site_fract_x
 _atom_site_fract_y
 _atom_site_fract_z
 _atom_site_occupancy
  V  V0  1  0.25054100  0.52509400  0.99800598  1
  H  H1  1  0.74945899  0.02509400  0.99800599  1
  H  H2  1  0.07333900  0.50508100  0.37915899  1
  H  H3  1  0.51446499  0.75193100  0.61919098  1
  H  H4  1  0.48553499  0.25193100  0.61919099  1
  H  H5  1  0.92666099  0.00508100  0.37915900  1
  O  O6  1  0.11878100  0.66059800  0.33073998  1
  O  O7  1  0.61612199  0.92635800  0.66787597  1
  O  O8  1  0.38387800  0.42635800  0.66787598  1
  O  O9  1  0.88121899  0.16059800  0.33073999  1
  O  O10  1  0.93769099  0.67434400  0.88800798  1
  O  O11  1  0.43203800  0.87885400  0.10509398  1
  O  O12  1  0.56796199  0.37885400  0.10509399  1
  O  O13  1  0.06230900  0.17434400  0.88800799  1
