# generated using pymatgen
data_Pr3NdBi2O5
_symmetry_space_group_name_H-M   'P 1'
_cell_length_a   4.07259178
_cell_length_b   6.88949442
_cell_length_c   8.54234123
_cell_angle_alpha   90.00000000
_cell_angle_beta   90.00000000
_cell_angle_gamma   107.19144440
_symmetry_Int_Tables_number   1
_chemical_formula_structural   Pr3NdBi2O5
_chemical_formula_sum   'Pr3 Nd1 Bi2 O5'
_cell_volume   228.97346639
_cell_formula_units_Z   1
loop_
 _symmetry_equiv_pos_site_id
 _symmetry_equiv_pos_as_xyz
  1  'x, y, z'
loop_
 _atom_site_type_symbol
 _atom_site_label
 _atom_site_symmetry_multiplicity
 _atom_site_fract_x
 _atom_site_fract_y
 _atom_site_fract_z
 _atom_site_occupancy
  Nd  Nd0  1  0.68398705  0.36797400  0.23801199  1
  Pr  Pr1  1  0.68398705  0.36797400  0.76198798  1
  Pr  Pr2  1  0.01638800  0.03277600  0.49999999  1
  Pr  Pr3  1  0.00194800  0.00389600  0.99999997  1
  Bi  Bi4  1  0.35599405  0.71198799  0.64884398  1
  Bi  Bi5  1  0.31494704  0.62989399  0.99999997  1
  O  O6  1  0.35599405  0.71198799  0.35115599  1
  O  O7  1  0.08882501  0.17765000  0.24431899  1
  O  O8  1  0.58942204  0.17884400  0.00000000  1
  O  O9  1  0.08882501  0.17765000  0.75568098  1
  O  O10  1  0.61436104  0.22872200  0.49999999  1
