# generated using pymatgen
data_Li5Co2BO6
_symmetry_space_group_name_H-M   'P 1'
_cell_length_a   5.30144930
_cell_length_b   5.32057381
_cell_length_c   7.48468494
_cell_angle_alpha   97.79679871
_cell_angle_beta   110.57968140
_cell_angle_gamma   108.25464630
_symmetry_Int_Tables_number   1
_chemical_formula_structural   Li5Co2BO6
_chemical_formula_sum   'Li5 Co2 B1 O6'
_cell_volume   180.38518393
_cell_formula_units_Z   1
loop_
 _symmetry_equiv_pos_site_id
 _symmetry_equiv_pos_as_xyz
  1  'x, y, z'
loop_
 _atom_site_type_symbol
 _atom_site_label
 _atom_site_symmetry_multiplicity
 _atom_site_fract_x
 _atom_site_fract_y
 _atom_site_fract_z
 _atom_site_occupancy
  Li  Li0  1  0.77487675  0.52753318  0.24542081  1
  Li  Li1  1  0.21439320  0.46867541  0.74351066  1
  Li  Li2  1  0.99773186  0.99496339  0.99943305  1
  Li  Li3  1  0.50139402  0.99930132  0.49929806  1
  Li  Li4  1  0.87659020  0.12383194  0.74998967  1
  Co  Co5  1  0.12515660  0.86977571  0.24791567  1
  Co  Co6  1  0.35861327  0.20810957  0.62295925  1
  B  B7  1  0.08591780  0.73238931  0.87396483  1
  O  O8  1  0.62907699  0.70289782  0.95248960  1
  O  O9  1  0.25684406  0.67901502  0.54252295  1
  O  O10  1  0.36777362  0.27920868  0.04817036  1
  O  O11  1  0.74713816  0.32190554  0.45410612  1
  O  O12  1  0.91142032  0.25925589  0.12580518  1
  O  O13  1  0.64558623  0.79361216  0.37327179  1
