# generated using pymatgen
data_Li6PdO7
_symmetry_space_group_name_H-M   'P 1'
_cell_length_a   3.39901710
_cell_length_b   5.74554873
_cell_length_c   9.70230484
_cell_angle_alpha   90.00000000
_cell_angle_beta   90.00000000
_cell_angle_gamma   92.04124451
_symmetry_Int_Tables_number   1
_chemical_formula_structural   Li6PdO7
_chemical_formula_sum   'Li6 Pd1 O7'
_cell_volume   189.35819525
_cell_formula_units_Z   1
loop_
 _symmetry_equiv_pos_site_id
 _symmetry_equiv_pos_as_xyz
  1  'x, y, z'
loop_
 _atom_site_type_symbol
 _atom_site_label
 _atom_site_symmetry_multiplicity
 _atom_site_fract_x
 _atom_site_fract_y
 _atom_site_fract_z
 _atom_site_occupancy
  Li  Li0  1  0.48400001  0.57756601  0.18107900  1
  Li  Li1  1  0.51600002  0.92243402  0.68107901  1
  Li  Li2  1  0.48399999  0.07756600  0.31892101  1
  Li  Li3  1  0.51600000  0.42243401  0.81892101  1
  Li  Li4  1  0.00000000  0.00000000  0.00000000  1
  Li  Li5  1  0.00000002  0.50000001  0.50000001  1
  O  O6  1  0.99036499  0.36961901  0.30587201  1
  Pd  Pd7  1  0.00963501  0.13038100  0.80587201  1
  O  O8  1  0.00963503  0.63038102  0.69412801  1
  O  O9  1  0.99036501  0.86961902  0.19412800  1
  O  O10  1  0.43330400  0.24140301  0.04730700  1
  O  O11  1  0.56669599  0.25859701  0.54730701  1
  O  O12  1  0.43330402  0.74140302  0.45269301  1
  O  O13  1  0.56669602  0.75859702  0.95269302  1
