# generated using pymatgen
data_Li5V3O10
_symmetry_space_group_name_H-M   'P 1'
_cell_length_a   5.65364504
_cell_length_b   5.93405581
_cell_length_c   8.25895977
_cell_angle_alpha   68.94588470
_cell_angle_beta   71.47916412
_cell_angle_gamma   90.00000000
_symmetry_Int_Tables_number   1
_chemical_formula_structural   Li5V3O10
_chemical_formula_sum   'Li5 V3 O10'
_cell_volume   243.14298906
_cell_formula_units_Z   1
loop_
 _symmetry_equiv_pos_site_id
 _symmetry_equiv_pos_as_xyz
  1  'x, y, z'
loop_
 _atom_site_type_symbol
 _atom_site_label
 _atom_site_symmetry_multiplicity
 _atom_site_fract_x
 _atom_site_fract_y
 _atom_site_fract_z
 _atom_site_occupancy
  Li  Li0  1  0.92172191  0.92544700  0.73065608  1
  Li  Li1  1  0.58231294  0.65173000  0.26944306  1
  Li  Li2  1  0.08231299  0.07882700  0.26944300  1
  Li  Li3  1  0.42172196  0.34389700  0.73065602  1
  Li  Li4  1  0.70748995  0.32896800  0.00462204  1
  V  V5  1  0.20748996  0.66641000  0.00462205  1
  V  V6  1  0.50373193  0.99825800  0.50151007  1
  V  V7  1  0.00373198  0.50023200  0.50151002  1
  O  O8  1  0.39450296  0.41569500  0.00738504  1
  O  O9  1  0.89450293  0.57692000  0.00738507  1
  O  O10  1  0.32761394  0.92587500  0.79908206  1
  O  O11  1  0.68629896  0.07029900  0.20272903  1
  O  O12  1  0.82761395  0.27504300  0.79908203  1
  O  O13  1  0.18629896  0.72697200  0.20272905  1
  O  O14  1  0.70312495  0.33021800  0.46441404  1
  O  O15  1  0.80433092  0.79299200  0.53946807  1
  O  O16  1  0.30433095  0.66754000  0.53946804  1
  O  O17  1  0.20312498  0.20536800  0.46441401  1
