# generated using pymatgen
data_SmFeO3
_symmetry_space_group_name_H-M   'P 1'
_cell_length_a   5.24554682
_cell_length_b   5.56617880
_cell_length_c   7.59400797
_cell_angle_alpha   90.00000000
_cell_angle_beta   90.00000000
_cell_angle_gamma   90.00000000
_symmetry_Int_Tables_number   1
_chemical_formula_structural   SmFeO3
_chemical_formula_sum   'Sm4 Fe4 O12'
_cell_volume   221.72719805
_cell_formula_units_Z   4
loop_
 _symmetry_equiv_pos_site_id
 _symmetry_equiv_pos_as_xyz
  1  'x, y, z'
loop_
 _atom_site_type_symbol
 _atom_site_label
 _atom_site_symmetry_multiplicity
 _atom_site_fract_x
 _atom_site_fract_y
 _atom_site_fract_z
 _atom_site_occupancy
  Sm  Sm0  1  0.52070202  0.56964102  0.25000000  1
  Sm  Sm1  1  0.97929803  0.06964100  0.25000000  1
  Sm  Sm2  1  0.47929802  0.43035902  0.75000000  1
  Sm  Sm3  1  0.02070200  0.93035903  0.75000000  1
  Fe  Fe4  1  0.00000000  0.50000002  -0.00000000  1
  Fe  Fe5  1  0.50000002  0.00000000  0.50000000  1
  Fe  Fe6  1  0.00000000  0.50000002  0.50000000  1
  Fe  Fe7  1  0.50000002  0.00000000  -0.00000000  1
  O  O8  1  0.37893901  0.95222703  0.25000000  1
  O  O9  1  0.12106100  0.45222702  0.25000000  1
  O  O10  1  0.62106102  0.04777300  0.75000000  1
  O  O11  1  0.87893903  0.54777302  0.75000000  1
  O  O12  1  0.81034703  0.80525903  0.06147900  1
  O  O13  1  0.68965302  0.30525901  0.43852100  1
  O  O14  1  0.18965301  0.19474101  0.56147900  1
  O  O15  1  0.31034701  0.69474103  0.93852100  1
  O  O16  1  0.18965301  0.19474101  0.93852100  1
  O  O17  1  0.31034701  0.69474103  0.56147900  1
  O  O18  1  0.81034703  0.80525903  0.43852100  1
  O  O19  1  0.68965302  0.30525901  0.06147900  1
