# generated using pymatgen
data_Na4B2PO10
_symmetry_space_group_name_H-M   'P 1'
_cell_length_a   5.27281618
_cell_length_b   6.61286306
_cell_length_c   7.40968847
_cell_angle_alpha   107.57907104
_cell_angle_beta   96.30717468
_cell_angle_gamma   104.04707336
_symmetry_Int_Tables_number   1
_chemical_formula_structural   Na4B2PO10
_chemical_formula_sum   'Na4 B2 P1 O10'
_cell_volume   234.20025433
_cell_formula_units_Z   1
loop_
 _symmetry_equiv_pos_site_id
 _symmetry_equiv_pos_as_xyz
  1  'x, y, z'
loop_
 _atom_site_type_symbol
 _atom_site_label
 _atom_site_symmetry_multiplicity
 _atom_site_fract_x
 _atom_site_fract_y
 _atom_site_fract_z
 _atom_site_occupancy
  Na  Na0  1  0.29741400  0.67748601  0.27348801  1
  Na  Na1  1  0.70258602  0.32251401  0.72651203  1
  Na  Na2  1  0.00000000  0.00000000  0.00000000  1
  Na  Na3  1  0.89775003  0.03888900  0.29841903  1
  B  B4  1  0.10224999  0.96111102  0.70158101  1
  P  P5  1  0.64705902  0.28869900  0.21714602  1
  B  B6  1  0.35294100  0.71130101  0.78285402  1
  O  O7  1  0.02627599  0.96976902  0.23124700  1
  O  O8  1  0.97372403  0.03023100  0.76875304  1
  O  O9  1  0.85498602  0.25381200  0.08659403  1
  O  O10  1  0.14501400  0.74618801  0.91340602  1
  O  O11  1  0.26037900  0.47769801  0.65893402  1
  O  O12  1  0.73962102  0.52230201  0.34106603  1
  O  O13  1  0.38896601  0.24443100  0.08550501  1
  O  O14  1  0.61103401  0.75556901  0.91449503  1
  O  O15  1  0.63230602  0.13526600  0.32842002  1
  O  O16  1  0.36769400  0.86473401  0.67158002  1
