# generated using pymatgen
data_Li3MgMn4F12
_symmetry_space_group_name_H-M   'P 1'
_cell_length_a   5.12702990
_cell_length_b   5.12702990
_cell_length_c   9.64977074
_cell_angle_alpha   90.00000000
_cell_angle_beta   90.00000000
_cell_angle_gamma   120.00000000
_symmetry_Int_Tables_number   1
_chemical_formula_structural   Li3MgMn4F12
_chemical_formula_sum   'Li3 Mg1 Mn4 F12'
_cell_volume   219.67433818
_cell_formula_units_Z   1
loop_
 _symmetry_equiv_pos_site_id
 _symmetry_equiv_pos_as_xyz
  1  'x, y, z'
loop_
 _atom_site_type_symbol
 _atom_site_label
 _atom_site_symmetry_multiplicity
 _atom_site_fract_x
 _atom_site_fract_y
 _atom_site_fract_z
 _atom_site_occupancy
  Mg  Mg0  1  0.66666667  0.33333332  0.05447500  1
  Li  Li1  1  0.00000000  0.00000000  0.75000002  1
  Li  Li2  1  0.00000000  0.00000000  0.25000001  1
  Li  Li3  1  0.66666667  0.33333332  0.44552501  1
  Mn  Mn4  1  0.33333332  0.66666665  0.94552503  1
  Mn  Mn5  1  0.33333332  0.66666665  0.55447502  1
  Mn  Mn6  1  0.66666667  0.33333332  0.75000002  1
  Mn  Mn7  1  0.33333332  0.66666665  0.25000001  1
  F  F8  1  0.97237200  0.64490598  0.63160702  1
  F  F9  1  0.67253400  0.64490598  0.86839302  1
  F  F10  1  0.97237201  0.32746599  0.86839302  1
  F  F11  1  0.67253401  0.02762800  0.63160702  1
  F  F12  1  0.35509400  0.32746599  0.63160702  1
  F  F13  1  0.64490599  0.97237197  0.13160700  1
  F  F14  1  0.35509401  0.02762800  0.86839302  1
  F  F15  1  0.64490600  0.67253398  0.36839301  1
  F  F16  1  0.32746598  0.97237197  0.36839301  1
  F  F17  1  0.02762798  0.67253398  0.13160700  1
  F  F18  1  0.32746600  0.35509399  0.13160700  1
  F  F19  1  0.02762799  0.35509399  0.36839301  1
