# generated using pymatgen
data_Ba2ICl7
_symmetry_space_group_name_H-M   'P 1'
_cell_length_a   7.60244465
_cell_length_b   7.60244465
_cell_length_c   7.60244465
_cell_angle_alpha   107.14418793
_cell_angle_beta   107.14418793
_cell_angle_gamma   114.23281097
_symmetry_Int_Tables_number   1
_chemical_formula_structural   Ba2ICl7
_chemical_formula_sum   'Ba2 I1 Cl7'
_cell_volume   336.48297229
_cell_formula_units_Z   1
loop_
 _symmetry_equiv_pos_site_id
 _symmetry_equiv_pos_as_xyz
  1  'x, y, z'
loop_
 _atom_site_type_symbol
 _atom_site_label
 _atom_site_symmetry_multiplicity
 _atom_site_fract_x
 _atom_site_fract_y
 _atom_site_fract_z
 _atom_site_occupancy
  Ba  Ba0  1  0.75000001  0.25000001  0.50000000  1
  Ba  Ba1  1  0.00000000  0.00000000  0.00000000  1
  I  I2  1  0.06980203  0.38356201  0.31376001  1
  Cl  Cl3  1  0.13356302  0.31980301  0.81376100  1
  Cl  Cl4  1  0.61643706  0.93019703  0.68623901  1
  Cl  Cl5  1  0.68019806  0.86643803  0.18624001  1
  Cl  Cl6  1  0.68019803  0.49395802  0.81376100  1
  Cl  Cl7  1  0.24395807  0.93019803  0.31376002  1
  Cl  Cl8  1  0.06980206  0.75604202  0.68623901  1
  Cl  Cl9  1  0.50604202  0.31980201  0.18624000  1
