# generated using pymatgen
data_ZrO3
_symmetry_space_group_name_H-M   'P 1'
_cell_length_a   3.33280325
_cell_length_b   3.33280325
_cell_length_c   6.68418312
_cell_angle_alpha   75.56360626
_cell_angle_beta   75.56360626
_cell_angle_gamma   60.00001144
_symmetry_Int_Tables_number   1
_chemical_formula_structural   ZrO3
_chemical_formula_sum   'Zr1 O3'
_cell_volume   61.57630958
_cell_formula_units_Z   1
loop_
 _symmetry_equiv_pos_site_id
 _symmetry_equiv_pos_as_xyz
  1  'x, y, z'
loop_
 _atom_site_type_symbol
 _atom_site_label
 _atom_site_symmetry_multiplicity
 _atom_site_fract_x
 _atom_site_fract_y
 _atom_site_fract_z
 _atom_site_occupancy
  Zr  Zr0  1  0.49999998  0.50000002  0.50000004  1
  O  O1  1  0.00000000  0.00000000  0.00000000  1
  O  O2  1  0.89001796  0.89001803  0.32994606  1
  O  O3  1  0.10998199  0.10998200  0.67005401  1
