# generated using pymatgen
data_TiNi5O8
_symmetry_space_group_name_H-M   'P 1'
_cell_length_a   6.10230494
_cell_length_b   6.10229540
_cell_length_c   6.10230541
_cell_angle_alpha   90.00000763
_cell_angle_beta   59.99987793
_cell_angle_gamma   119.99979401
_symmetry_Int_Tables_number   1
_chemical_formula_structural   TiNi5O8
_chemical_formula_sum   'Ti1 Ni5 O8'
_cell_volume   160.68178755
_cell_formula_units_Z   1
loop_
 _symmetry_equiv_pos_site_id
 _symmetry_equiv_pos_as_xyz
  1  'x, y, z'
loop_
 _atom_site_type_symbol
 _atom_site_label
 _atom_site_symmetry_multiplicity
 _atom_site_fract_x
 _atom_site_fract_y
 _atom_site_fract_z
 _atom_site_occupancy
  Ti  Ti0  1  0.25000099  0.12500000  0.12500000  1
  Ni  Ni1  1  0.74999992  0.87500198  0.87500104  1
  Ni  Ni2  1  0.50001299  0.00002000  0.49999298  1
  Ni  Ni3  1  0.99998595  0.49999299  0.00002202  1
  Ni  Ni4  1  0.99998495  0.49999199  0.49999101  1
  Ni  Ni5  1  0.50001595  0.49999399  0.49999202  1
  O  O6  1  0.51969597  0.25984899  0.25984901  1
  O  O7  1  0.51969597  0.25984899  0.72045600  1
  O  O8  1  0.98030493  0.72045598  0.25984703  1
  O  O9  1  0.01974898  0.27962299  0.74012601  1
  O  O10  1  0.48024894  0.74012598  0.74012504  1
  O  O11  1  0.98030196  0.25984599  0.25984900  1
  O  O12  1  0.48024994  0.74012498  0.27962504  1
  O  O13  1  0.01974995  0.74012498  0.74012404  1
