# generated using pymatgen
data_Li4V3O8
_symmetry_space_group_name_H-M   'P 1'
_cell_length_a   5.93241215
_cell_length_b   5.94255209
_cell_length_c   5.99692249
_cell_angle_alpha   60.40597534
_cell_angle_beta   60.35521317
_cell_angle_gamma   60.05643082
_symmetry_Int_Tables_number   1
_chemical_formula_structural   Li4V3O8
_chemical_formula_sum   'Li4 V3 O8'
_cell_volume   150.41082888
_cell_formula_units_Z   1
loop_
 _symmetry_equiv_pos_site_id
 _symmetry_equiv_pos_as_xyz
  1  'x, y, z'
loop_
 _atom_site_type_symbol
 _atom_site_label
 _atom_site_symmetry_multiplicity
 _atom_site_fract_x
 _atom_site_fract_y
 _atom_site_fract_z
 _atom_site_occupancy
  Li  Li0  1  0.50000000  0.49999999  0.50000001  1
  Li  Li1  1  0.00000000  0.00000000  0.50000001  1
  Li  Li2  1  0.49999999  0.00000000  0.49999999  1
  Li  Li3  1  0.00000000  0.00000000  0.00000000  1
  V  V4  1  0.50000000  0.49999999  -0.00000000  1
  V  V5  1  0.00000001  0.49999999  0.00000001  1
  V  V6  1  0.49999999  0.00000000  -0.00000001  1
  O  O7  1  0.76559100  0.24325800  0.22555999  1
  O  O8  1  0.26292400  0.25773600  0.21641600  1
  O  O9  1  0.76473201  0.76967099  0.21661100  1
  O  O10  1  0.24898601  0.76967099  0.21661102  1
  O  O11  1  0.75101400  0.23032900  0.78338900  1
  O  O12  1  0.23526800  0.23032900  0.78338901  1
  O  O13  1  0.73707601  0.74226399  0.78358401  1
  O  O14  1  0.23440901  0.75674199  0.77444003  1
