# generated using pymatgen
data_Sr3Mn(PbO3)4
_symmetry_space_group_name_H-M   'P 1'
_cell_length_a   4.25015116
_cell_length_b   5.93701363
_cell_length_c   11.72818756
_cell_angle_alpha   90.00000000
_cell_angle_beta   90.00000000
_cell_angle_gamma   91.18540955
_symmetry_Int_Tables_number   1
_chemical_formula_structural   Sr3Mn(PbO3)4
_chemical_formula_sum   'Sr3 Mn1 Pb4 O12'
_cell_volume   295.87642911
_cell_formula_units_Z   1
loop_
 _symmetry_equiv_pos_site_id
 _symmetry_equiv_pos_as_xyz
  1  'x, y, z'
loop_
 _atom_site_type_symbol
 _atom_site_label
 _atom_site_symmetry_multiplicity
 _atom_site_fract_x
 _atom_site_fract_y
 _atom_site_fract_z
 _atom_site_occupancy
  Sr  Sr0  1  0.96878395  0.52719900  0.75433503  1
  Sr  Sr1  1  0.96913796  0.02921000  0.50000002  1
  Mn  Mn2  1  0.96878395  0.52719900  0.24566501  1
  Sr  Sr3  1  0.94628096  0.03092200  1.00000004  1
  Pb  Pb4  1  0.41691097  0.57833500  0.50000002  1
  Pb  Pb5  1  0.41304898  0.07186400  0.24028701  1
  Pb  Pb6  1  0.41929097  0.58635200  -0.00000000  1
  Pb  Pb7  1  0.41304898  0.07186400  0.75971303  1
  O  O8  1  0.01286498  0.74533700  0.37948701  1
  O  O9  1  0.01266299  0.23920600  0.12179300  1
  O  O10  1  0.02082098  0.76465600  0.88428803  1
  O  O11  1  0.01463799  0.24873500  0.63477202  1
  O  O12  1  0.01286498  0.74533700  0.62051302  1
  O  O13  1  0.01463799  0.24873500  0.36522801  1
  O  O14  1  0.02082098  0.76465600  0.11571200  1
  O  O15  1  0.01266299  0.23920600  0.87820703  1
  O  O16  1  0.48847896  0.98422600  0.50000002  1
  O  O17  1  0.48777297  0.48740700  0.24170801  1
  O  O18  1  0.52079698  0.00006000  -0.00000000  1
  O  O19  1  0.48777297  0.48740700  0.75829203  1
