# generated using pymatgen
data_NaH
_symmetry_space_group_name_H-M   'P 1'
_cell_length_a   4.00228310
_cell_length_b   4.00228310
_cell_length_c   10.66105938
_cell_angle_alpha   79.18107605
_cell_angle_beta   79.18107605
_cell_angle_gamma   60.00001526
_symmetry_Int_Tables_number   1
_chemical_formula_structural   NaH
_chemical_formula_sum   'Na4 H4'
_cell_volume   144.37704486
_cell_formula_units_Z   4
loop_
 _symmetry_equiv_pos_site_id
 _symmetry_equiv_pos_as_xyz
  1  'x, y, z'
loop_
 _atom_site_type_symbol
 _atom_site_label
 _atom_site_symmetry_multiplicity
 _atom_site_fract_x
 _atom_site_fract_y
 _atom_site_fract_z
 _atom_site_occupancy
  Na  Na0  1  0.61869501  0.61869500  0.14391497  1
  Na  Na1  1  0.38130501  0.38130500  0.85608495  1
  Na  Na2  1  0.19612300  0.19612300  0.41163098  1
  Na  Na3  1  0.80387701  0.80387700  0.58836895  1
  H  H4  1  0.11418000  0.11418000  0.65745997  1
  H  H5  1  0.88582002  0.88582000  0.34253995  1
  H  H6  1  0.69493301  0.69493300  0.91520094  1
  H  H7  1  0.30506701  0.30506700  0.08479898  1
