# generated using pymatgen
data_SmFeO3
_symmetry_space_group_name_H-M   'P 1'
_cell_length_a   5.33306408
_cell_length_b   5.65585518
_cell_length_c   7.71307182
_cell_angle_alpha   90.00000000
_cell_angle_beta   90.00000000
_cell_angle_gamma   90.00000000
_symmetry_Int_Tables_number   1
_chemical_formula_structural   SmFeO3
_chemical_formula_sum   'Sm4 Fe4 O12'
_cell_volume   232.64967921
_cell_formula_units_Z   4
loop_
 _symmetry_equiv_pos_site_id
 _symmetry_equiv_pos_as_xyz
  1  'x, y, z'
loop_
 _atom_site_type_symbol
 _atom_site_label
 _atom_site_symmetry_multiplicity
 _atom_site_fract_x
 _atom_site_fract_y
 _atom_site_fract_z
 _atom_site_occupancy
  Sm  Sm0  1  0.01898100  0.93074497  0.75000002  1
  Sm  Sm1  1  0.51898099  0.56925498  0.25000001  1
  Sm  Sm2  1  0.48101899  0.43074499  0.75000002  1
  Sm  Sm3  1  0.98101899  0.06925500  0.25000001  1
  Fe  Fe4  1  0.49999999  0.00000000  0.50000001  1
  Fe  Fe5  1  0.00000000  0.49999998  0.50000001  1
  Fe  Fe6  1  0.00000000  0.49999998  -0.00000000  1
  Fe  Fe7  1  0.49999999  0.00000000  -0.00000000  1
  O  O8  1  0.30904300  0.69360798  0.55953301  1
  O  O9  1  0.80904299  0.80639197  0.44046701  1
  O  O10  1  0.19095700  0.19360799  0.94046702  1
  O  O11  1  0.69095699  0.30639199  0.05953300  1
  O  O12  1  0.69095699  0.30639199  0.44046701  1
  O  O13  1  0.19095700  0.19360799  0.55953301  1
  O  O14  1  0.80904299  0.80639197  0.05953300  1
  O  O15  1  0.30904300  0.69360798  0.94046702  1
  O  O16  1  0.11646200  0.45683899  0.25000001  1
  O  O17  1  0.61646199  0.04316100  0.75000002  1
  O  O18  1  0.38353799  0.95683897  0.25000001  1
  O  O19  1  0.88353799  0.54316098  0.75000002  1
