# generated using pymatgen
data_YTiO3
_symmetry_space_group_name_H-M   'P 1'
_cell_length_a   5.36147785
_cell_length_b   5.85596514
_cell_length_c   7.57169390
_cell_angle_alpha   90.00000000
_cell_angle_beta   90.00000000
_cell_angle_gamma   90.00000000
_symmetry_Int_Tables_number   1
_chemical_formula_structural   YTiO3
_chemical_formula_sum   'Y4 Ti4 O12'
_cell_volume   237.72565197
_cell_formula_units_Z   4
loop_
 _symmetry_equiv_pos_site_id
 _symmetry_equiv_pos_as_xyz
  1  'x, y, z'
loop_
 _atom_site_type_symbol
 _atom_site_label
 _atom_site_symmetry_multiplicity
 _atom_site_fract_x
 _atom_site_fract_y
 _atom_site_fract_z
 _atom_site_occupancy
  Y  Y0  1  0.51705601  0.57801799  0.25000000  1
  Y  Y1  1  0.98294403  0.07801800  0.25000000  1
  Y  Y2  1  0.48294401  0.42198199  0.75000001  1
  Y  Y3  1  0.01705600  0.92198198  0.75000001  1
  Ti  Ti4  1  0.50000001  0.00000000  0.00000000  1
  Ti  Ti5  1  0.00000000  0.49999999  0.50000001  1
  Ti  Ti6  1  0.50000001  0.00000000  0.50000001  1
  Ti  Ti7  1  0.00000000  0.49999999  -0.00000000  1
  O  O8  1  0.39267001  0.96674998  0.25000000  1
  O  O9  1  0.10733000  0.46674999  0.25000000  1
  O  O10  1  0.60733002  0.03325000  0.75000001  1
  O  O11  1  0.89267002  0.53324999  0.75000001  1
  O  O12  1  0.79279202  0.82254798  0.05341700  1
  O  O13  1  0.70720802  0.32254799  0.44658301  1
  O  O14  1  0.20720801  0.17745200  0.55341701  1
  O  O15  1  0.29279201  0.67745198  0.94658301  1
  O  O16  1  0.20720801  0.17745200  0.94658301  1
  O  O17  1  0.29279201  0.67745198  0.55341701  1
  O  O18  1  0.79279202  0.82254798  0.44658301  1
  O  O19  1  0.70720802  0.32254799  0.05341700  1
