# generated using pymatgen
data_K3NaTlCl7
_symmetry_space_group_name_H-M   'P 1'
_cell_length_a   5.04089212
_cell_length_b   5.04089212
_cell_length_c   13.40700340
_cell_angle_alpha   100.83578491
_cell_angle_beta   100.83578491
_cell_angle_gamma   90.00000000
_symmetry_Int_Tables_number   1
_chemical_formula_structural   K3NaTlCl7
_chemical_formula_sum   'K3 Na1 Tl1 Cl7'
_cell_volume   328.41895629
_cell_formula_units_Z   1
loop_
 _symmetry_equiv_pos_site_id
 _symmetry_equiv_pos_as_xyz
  1  'x, y, z'
loop_
 _atom_site_type_symbol
 _atom_site_label
 _atom_site_symmetry_multiplicity
 _atom_site_fract_x
 _atom_site_fract_y
 _atom_site_fract_z
 _atom_site_occupancy
  K  K0  1  0.81907700  0.81907699  0.63815403  1
  K  K1  1  0.18092300  0.18092300  0.36184600  1
  K  K2  1  0.00000000  0.00000000  0.00000000  1
  Na  Na3  1  0.60032500  0.60032499  0.20065002  1
  Tl  Tl4  1  0.39967500  0.39967499  0.79935001  1
  Cl  Cl5  1  0.50000000  0.49999999  0.00000002  1
  Cl  Cl6  1  0.69822100  0.69822099  0.39644202  1
  Cl  Cl7  1  0.30177900  0.30177900  0.60355801  1
  Cl  Cl8  1  0.09624601  0.59624599  0.19249201  1
  Cl  Cl9  1  0.59624599  0.09624600  0.19249201  1
  Cl  Cl10  1  0.40375401  0.90375399  0.80750802  1
  Cl  Cl11  1  0.90375399  0.40375399  0.80750802  1
