# generated using pymatgen
data_Ba2B2(CO)5
_symmetry_space_group_name_H-M   'P 1'
_cell_length_a   5.98593378
_cell_length_b   6.32318878
_cell_length_c   6.49727345
_cell_angle_alpha   77.40605164
_cell_angle_beta   62.57096100
_cell_angle_gamma   61.74920273
_symmetry_Int_Tables_number   1
_chemical_formula_structural   Ba2B2(CO)5
_chemical_formula_sum   'Ba2 B2 C5 O5'
_cell_volume   192.27662861
_cell_formula_units_Z   1
loop_
 _symmetry_equiv_pos_site_id
 _symmetry_equiv_pos_as_xyz
  1  'x, y, z'
loop_
 _atom_site_type_symbol
 _atom_site_label
 _atom_site_symmetry_multiplicity
 _atom_site_fract_x
 _atom_site_fract_y
 _atom_site_fract_z
 _atom_site_occupancy
  Ba  Ba0  1  0.00000000  0.00000000  0.00000000  1
  Ba  Ba1  1  0.74999999  0.50000002  0.50000002  1
  B  B2  1  0.59537999  0.36724501  0.25037902  1
  B  B3  1  0.21300396  0.63275502  0.74962102  1
  C  C4  1  0.12362797  0.50000002  0.75274401  1
  C  C5  1  0.37637198  0.50000002  0.24725603  1
  C  C6  1  0.62637202  0.00000000  0.74725599  1
  C  C7  1  0.37362795  1.00000004  0.25274405  1
  C  C8  1  0.59575896  0.86724503  0.24962105  1
  O  O9  1  0.71262501  0.13275501  0.75037900  1
  O  O10  1  0.53699596  0.86724503  0.75037904  1
  O  O11  1  0.15462000  0.13275501  0.24962100  1
  O  O12  1  0.15424096  0.63275502  0.25037903  1
  O  O13  1  0.03737498  0.36724501  0.74962100  1
