# generated using pymatgen
data_Li3MgO4
_symmetry_space_group_name_H-M   'P 1'
_cell_length_a   4.26236582
_cell_length_b   4.26236582
_cell_length_c   5.43389893
_cell_angle_alpha   113.09155273
_cell_angle_beta   113.09155273
_cell_angle_gamma   90.00000000
_symmetry_Int_Tables_number   1
_chemical_formula_structural   Li3MgO4
_chemical_formula_sum   'Li3 Mg1 O4'
_cell_volume   82.14435352
_cell_formula_units_Z   1
loop_
 _symmetry_equiv_pos_site_id
 _symmetry_equiv_pos_as_xyz
  1  'x, y, z'
loop_
 _atom_site_type_symbol
 _atom_site_label
 _atom_site_symmetry_multiplicity
 _atom_site_fract_x
 _atom_site_fract_y
 _atom_site_fract_z
 _atom_site_occupancy
  Li  Li0  1  0.50000006  0.50000004  0.00000006  1
  Li  Li1  1  0.75000006  0.25000002  0.50000004  1
  Mg  Mg2  1  0.25000006  0.75000006  0.50000005  1
  Li  Li3  1  0.00000000  0.00000000  0.00000000  1
  O  O4  1  0.76765909  0.76765906  0.53531808  1
  O  O5  1  0.01311203  0.51311204  0.02622403  1
  O  O6  1  0.48688809  0.98688807  0.97377607  1
  O  O7  1  0.23234103  0.23234102  0.46468202  1
