# generated using pymatgen
data_K2InSe2
_symmetry_space_group_name_H-M   'P 1'
_cell_length_a   7.23383999
_cell_length_b   7.41001177
_cell_length_c   8.93813038
_cell_angle_alpha   114.48889160
_cell_angle_beta   113.86993408
_cell_angle_gamma   90.00000000
_symmetry_Int_Tables_number   1
_chemical_formula_structural   K2InSe2
_chemical_formula_sum   'K4 In2 Se4'
_cell_volume   390.53265304
_cell_formula_units_Z   2
loop_
 _symmetry_equiv_pos_site_id
 _symmetry_equiv_pos_as_xyz
  1  'x, y, z'
loop_
 _atom_site_type_symbol
 _atom_site_label
 _atom_site_symmetry_multiplicity
 _atom_site_fract_x
 _atom_site_fract_y
 _atom_site_fract_z
 _atom_site_occupancy
  K  K0  1  0.13479396  0.92651099  0.26958894  1
  K  K1  1  0.86520599  0.07348900  0.73041102  1
  K  K2  1  0.36520497  0.65692200  0.73040998  1
  K  K3  1  0.63479498  0.34307800  0.26958998  1
  In  In4  1  0.74999997  0.50000000  -0.00000005  1
  In  In5  1  0.24999998  0.50000000  -0.00000004  1
  Se  Se6  1  0.38672899  0.17687300  0.77345802  1
  Se  Se7  1  0.61327096  0.82312699  0.22654194  1
  Se  Se8  1  0.11327198  0.40341600  0.22654298  1
  Se  Se9  1  0.88672797  0.59658400  0.77345698  1
