# generated using pymatgen
data_K6C2ClO7
_symmetry_space_group_name_H-M   'P 1'
_cell_length_a   5.30854177
_cell_length_b   5.30854177
_cell_length_c   12.78243732
_cell_angle_alpha   90.00000000
_cell_angle_beta   90.00000000
_cell_angle_gamma   120.00000000
_symmetry_Int_Tables_number   1
_chemical_formula_structural   K6C2ClO7
_chemical_formula_sum   'K6 C2 Cl1 O7'
_cell_volume   311.95703382
_cell_formula_units_Z   1
loop_
 _symmetry_equiv_pos_site_id
 _symmetry_equiv_pos_as_xyz
  1  'x, y, z'
loop_
 _atom_site_type_symbol
 _atom_site_label
 _atom_site_symmetry_multiplicity
 _atom_site_fract_x
 _atom_site_fract_y
 _atom_site_fract_z
 _atom_site_occupancy
  K  K0  1  0.66666669  0.33333333  0.60031498  1
  K  K1  1  0.00000000  0.00000000  0.74999998  1
  K  K2  1  0.00000000  0.00000000  0.24999999  1
  K  K3  1  0.33333333  0.66666666  0.10031500  1
  K  K4  1  0.33333333  0.66666666  0.39968499  1
  K  K5  1  0.66666669  0.33333333  0.89968498  1
  C  C6  1  0.66666669  0.33333333  0.24999999  1
  C  C7  1  0.33333333  0.66666666  0.74999998  1
  O  O8  1  0.00000000  0.00000000  0.00000000  1
  Cl  Cl9  1  0.00000000  0.00000000  0.49999999  1
  O  O10  1  0.48436800  0.96873599  0.74999998  1
  O  O11  1  0.03126399  0.51563200  0.74999998  1
  O  O12  1  0.51563201  0.48436800  0.24999999  1
  O  O13  1  0.48436801  0.51563200  0.74999998  1
  O  O14  1  0.96873603  0.48436800  0.24999999  1
  O  O15  1  0.51563202  0.03126400  0.24999999  1
