# generated using pymatgen
data_BaLaYCuSe4
_symmetry_space_group_name_H-M   'P 1'
_cell_length_a   4.18175220
_cell_length_b   7.52378654
_cell_length_c   14.51504040
_cell_angle_alpha   90.00000000
_cell_angle_beta   90.00000000
_cell_angle_gamma   106.13503265
_symmetry_Int_Tables_number   1
_chemical_formula_structural   BaLaYCuSe4
_chemical_formula_sum   'Ba2 La2 Y2 Cu2 Se8'
_cell_volume   438.69213465
_cell_formula_units_Z   2
loop_
 _symmetry_equiv_pos_site_id
 _symmetry_equiv_pos_as_xyz
  1  'x, y, z'
loop_
 _atom_site_type_symbol
 _atom_site_label
 _atom_site_symmetry_multiplicity
 _atom_site_fract_x
 _atom_site_fract_y
 _atom_site_fract_z
 _atom_site_occupancy
  Ba  Ba0  1  0.10948898  0.21897799  0.24999999  1
  Ba  Ba1  1  0.89051090  0.78102198  0.74999998  1
  La  La2  1  0.63411795  0.26823599  0.93719997  1
  La  La3  1  0.36588193  0.73176398  0.43719999  1
  Y  Y4  1  0.36588193  0.73176398  0.06280000  1
  Y  Y5  1  0.63411795  0.26823599  0.56279998  1
  Cu  Cu6  1  0.83709591  0.67419198  0.24999999  1
  Cu  Cu7  1  0.16290397  0.32580799  0.74999998  1
  Se  Se8  1  0.57162096  0.14324200  0.74999998  1
  Se  Se9  1  0.26175695  0.52351399  0.88950698  1
  Se  Se10  1  0.73824293  0.47648599  0.38950699  1
  Se  Se11  1  0.00000000  0.00000000  0.00000000  1
  Se  Se12  1  0.73824293  0.47648599  0.11049300  1
  Se  Se13  1  0.26175695  0.52351399  0.61049298  1
  Se  Se14  1  0.00000000  0.00000000  0.49999999  1
  Se  Se15  1  0.42837892  0.85675798  0.24999999  1
