# generated using pymatgen
data_LiCo2O3
_symmetry_space_group_name_H-M   'P 1'
_cell_length_a   5.12719917
_cell_length_b   5.57809019
_cell_length_c   5.71334505
_cell_angle_alpha   90.00000000
_cell_angle_beta   79.09899139
_cell_angle_gamma   90.00000000
_symmetry_Int_Tables_number   1
_chemical_formula_structural   LiCo2O3
_chemical_formula_sum   'Li2 Co4 O6'
_cell_volume   160.45303256
_cell_formula_units_Z   2
loop_
 _symmetry_equiv_pos_site_id
 _symmetry_equiv_pos_as_xyz
  1  'x, y, z'
loop_
 _atom_site_type_symbol
 _atom_site_label
 _atom_site_symmetry_multiplicity
 _atom_site_fract_x
 _atom_site_fract_y
 _atom_site_fract_z
 _atom_site_occupancy
  Li  Li0  1  0.49636899  0.65894998  0.51290198  1
  Li  Li1  1  0.49636899  0.34104999  0.01290198  1
  Co  Co2  1  0.94916898  0.82143097  0.92486696  1
  Co  Co3  1  0.94916898  0.17856899  0.42486696  1
  Co  Co4  1  0.21121099  0.13218100  0.15620799  1
  Co  Co5  1  0.33855599  0.59925198  0.23679199  1
  O  O6  1  0.73046298  0.38394599  0.29184697  1
  O  O7  1  0.74609098  0.91167897  0.39233397  1
  O  O8  1  0.21121099  0.86781897  0.65620799  1
  O  O9  1  0.33855599  0.40074799  0.73679199  1
  O  O10  1  0.73046298  0.61605398  0.79184697  1
  O  O11  1  0.74609098  0.08832100  0.89233397  1
