# generated using pymatgen
data_BH11N4
_symmetry_space_group_name_H-M   'P 1'
_cell_length_a   4.51178598
_cell_length_b   4.70140696
_cell_length_c   5.50332689
_cell_angle_alpha   90.00000000
_cell_angle_beta   90.00000000
_cell_angle_gamma   92.14196777
_symmetry_Int_Tables_number   1
_chemical_formula_structural   BH11N4
_chemical_formula_sum   'B1 H11 N4'
_cell_volume   116.65358564
_cell_formula_units_Z   1
loop_
 _symmetry_equiv_pos_site_id
 _symmetry_equiv_pos_as_xyz
  1  'x, y, z'
loop_
 _atom_site_type_symbol
 _atom_site_label
 _atom_site_symmetry_multiplicity
 _atom_site_fract_x
 _atom_site_fract_y
 _atom_site_fract_z
 _atom_site_occupancy
  H  H0  1  0.15593406  0.83996600  0.87800402  1
  B  B1  1  0.84406601  0.16003400  0.37800401  1
  H  H2  1  0.23419203  0.47204400  0.63456101  1
  H  H3  1  0.76580804  0.52795600  0.13456100  1
  H  H4  1  0.52225805  0.70113200  0.64451101  1
  H  H5  1  0.47774202  0.29886800  0.14451100  1
  H  H6  1  0.22586505  0.77591100  0.48806301  1
  H  H7  1  0.77413502  0.22408900  0.98806302  1
  N  N8  1  0.22426901  0.09238000  0.86550802  1
  H  H9  1  0.77573106  0.90762000  0.36550801  1
  N  N10  1  0.88750206  0.80891000  0.86994602  1
  H  H11  1  0.11249801  0.19109000  0.36994601  1
  N  N12  1  0.25437705  0.73727300  0.06338800  1
  H  H13  1  0.74562302  0.26272700  0.56338801  1
  N  N14  1  0.29365105  0.68552600  0.64767901  1
  H  H15  1  0.70634902  0.31447400  0.14767900  1
