# generated using pymatgen
data_KTlS
_symmetry_space_group_name_H-M   'P 1'
_cell_length_a   4.65652800
_cell_length_b   9.19404221
_cell_length_c   9.37912941
_cell_angle_alpha   112.06678009
_cell_angle_beta   90.00000000
_cell_angle_gamma   104.66909790
_symmetry_Int_Tables_number   1
_chemical_formula_structural   KTlS
_chemical_formula_sum   'K4 Tl4 S4'
_cell_volume   357.96555014
_cell_formula_units_Z   4
loop_
 _symmetry_equiv_pos_site_id
 _symmetry_equiv_pos_as_xyz
  1  'x, y, z'
loop_
 _atom_site_type_symbol
 _atom_site_label
 _atom_site_symmetry_multiplicity
 _atom_site_fract_x
 _atom_site_fract_y
 _atom_site_fract_z
 _atom_site_occupancy
  K  K0  1  0.86441809  0.72883603  0.95047996  1
  K  K1  1  0.13558203  0.27116401  0.04951999  1
  K  K2  1  0.06222102  0.12444201  0.40892698  1
  K  K3  1  0.41284210  0.82568404  0.37396398  1
  Tl  Tl4  1  0.93777911  0.87555804  0.59107297  1
  Tl  Tl5  1  0.69087405  0.38174802  0.45420098  1
  Tl  Tl6  1  0.58715802  0.17431601  0.62603598  1
  Tl  Tl7  1  0.30912608  0.61825203  0.54579897  1
  S  S8  1  0.79959008  0.59918003  0.30280398  1
  S  S9  1  0.52024501  0.04049000  0.22422499  1
  S  S10  1  0.47975512  0.95951004  0.77577496  1
  S  S11  1  0.20041005  0.40082002  0.69719597  1
