# generated using pymatgen
data_Ca3Sb5
_symmetry_space_group_name_H-M   'P 1'
_cell_length_a   8.13597393
_cell_length_b   8.13597393
_cell_length_c   8.13597393
_cell_angle_alpha   109.47122192
_cell_angle_beta   109.47122192
_cell_angle_gamma   109.47122192
_symmetry_Int_Tables_number   1
_chemical_formula_structural   Ca3Sb5
_chemical_formula_sum   'Ca6 Sb10'
_cell_volume   414.57845956
_cell_formula_units_Z   2
loop_
 _symmetry_equiv_pos_site_id
 _symmetry_equiv_pos_as_xyz
  1  'x, y, z'
loop_
 _atom_site_type_symbol
 _atom_site_label
 _atom_site_symmetry_multiplicity
 _atom_site_fract_x
 _atom_site_fract_y
 _atom_site_fract_z
 _atom_site_occupancy
  Ca  Ca0  1  0.49373804  0.15396801  0.33977004  1
  Ca  Ca1  1  0.81419706  0.15396701  0.66022906  1
  Sb  Sb2  1  0.18580307  0.84603308  0.33977107  1
  Ca  Ca3  1  0.84603208  0.33977003  0.18580205  1
  Ca  Ca4  1  0.50626209  0.84603208  0.66023010  1
  Ca  Ca5  1  0.84603210  0.66022906  0.50626208  1
  Sb  Sb6  1  0.66023007  0.50626205  0.84603309  1
  Ca  Ca7  1  0.15396805  0.66023006  0.81419809  1
  Sb  Sb8  1  0.33977005  0.49373805  0.15396704  1
  Sb  Sb9  1  0.15396803  0.33977103  0.49373805  1
  Sb  Sb10  1  0.33977003  0.18580202  0.84603207  1
  Sb  Sb11  1  0.66023009  0.81419808  0.15396807  1
  Sb  Sb12  1  0.50000006  0.50000005  0.50000007  1
  Sb  Sb13  1  1.00000010  0.50000005  1.00000011  1
  Sb  Sb14  1  0.00000000  0.00000000  0.50000003  1
  Sb  Sb15  1  0.50000010  1.00000010  1.00000012  1
