# generated using pymatgen
data_BaWO4
_symmetry_space_group_name_H-M   'P 1'
_cell_length_a   4.20001793
_cell_length_b   5.70762110
_cell_length_c   7.20063066
_cell_angle_alpha   90.00000000
_cell_angle_beta   106.95630646
_cell_angle_gamma   90.00000000
_symmetry_Int_Tables_number   1
_chemical_formula_structural   BaWO4
_chemical_formula_sum   'Ba2 W2 O8'
_cell_volume   165.11033079
_cell_formula_units_Z   2
loop_
 _symmetry_equiv_pos_site_id
 _symmetry_equiv_pos_as_xyz
  1  'x, y, z'
loop_
 _atom_site_type_symbol
 _atom_site_label
 _atom_site_symmetry_multiplicity
 _atom_site_fract_x
 _atom_site_fract_y
 _atom_site_fract_z
 _atom_site_occupancy
  Ba  Ba0  1  0.63742701  0.74999999  0.27485400  1
  Ba  Ba1  1  0.36257300  0.25000000  0.72514602  1
  W  W2  1  0.90502501  0.74999999  0.81005002  1
  W  W3  1  0.09497500  0.25000000  0.18995001  1
  O  O4  1  0.81111301  0.99037798  0.62222601  1
  O  O5  1  0.18888700  0.00962200  0.37777401  1
  O  O6  1  0.81111301  0.50962199  0.62222601  1
  O  O7  1  0.18888700  0.49037799  0.37777401  1
  O  O8  1  0.41896401  0.74999999  0.83792802  1
  O  O9  1  0.58103601  0.25000000  0.16207200  1
  O  O10  1  0.00000000  0.00000000  0.00000000  1
  O  O11  1  0.00000000  0.49999999  -0.00000000  1
