# generated using pymatgen
data_ZrO2
_symmetry_space_group_name_H-M   'P 1'
_cell_length_a   4.93825817
_cell_length_b   5.33998394
_cell_length_c   5.81576347
_cell_angle_alpha   89.54621887
_cell_angle_beta   90.00000000
_cell_angle_gamma   90.00000000
_symmetry_Int_Tables_number   1
_chemical_formula_structural   ZrO2
_chemical_formula_sum   'Zr4 O8'
_cell_volume   153.35814845
_cell_formula_units_Z   4
loop_
 _symmetry_equiv_pos_site_id
 _symmetry_equiv_pos_as_xyz
  1  'x, y, z'
loop_
 _atom_site_type_symbol
 _atom_site_label
 _atom_site_symmetry_multiplicity
 _atom_site_fract_x
 _atom_site_fract_y
 _atom_site_fract_z
 _atom_site_occupancy
  Zr  Zr0  1  0.48446698  0.21850000  0.67054898  1
  Zr  Zr1  1  0.98446697  0.78150001  0.82945096  1
  Zr  Zr2  1  0.51553298  0.78150001  0.32945097  1
  Zr  Zr3  1  0.01553300  0.21850000  0.17054899  1
  O  O4  1  0.72242397  0.91951701  0.60357396  1
  O  O5  1  0.77757597  0.91951701  0.10357397  1
  O  O6  1  0.27757599  0.08048300  0.39642599  1
  O  O7  1  0.22242399  0.08048300  0.89642599  1
  O  O8  1  0.22645499  0.57522501  0.11789098  1
  O  O9  1  0.27354499  0.57522501  0.61789097  1
  O  O10  1  0.77354497  0.42477500  0.88210897  1
  O  O11  1  0.72645497  0.42477500  0.38210898  1
