# generated using pymatgen
data_Mg3AlP4
_symmetry_space_group_name_H-M   'P 1'
_cell_length_a   5.66779423
_cell_length_b   5.66779423
_cell_length_c   6.90834904
_cell_angle_alpha   114.21823883
_cell_angle_beta   114.21823883
_cell_angle_gamma   90.00000000
_symmetry_Int_Tables_number   1
_chemical_formula_structural   Mg3AlP4
_chemical_formula_sum   'Mg3 Al1 P4'
_cell_volume   180.76174131
_cell_formula_units_Z   1
loop_
 _symmetry_equiv_pos_site_id
 _symmetry_equiv_pos_as_xyz
  1  'x, y, z'
loop_
 _atom_site_type_symbol
 _atom_site_label
 _atom_site_symmetry_multiplicity
 _atom_site_fract_x
 _atom_site_fract_y
 _atom_site_fract_z
 _atom_site_occupancy
  Mg  Mg0  1  0.50000000  0.49999999  1.00000003  1
  Mg  Mg1  1  0.25000001  0.74999998  0.50000003  1
  Mg  Mg2  1  0.00000000  0.00000000  0.00000000  1
  Al  Al3  1  0.74999998  0.24999999  0.50000003  1
  P  P4  1  0.37500001  0.88088098  0.25000004  1
  P  P5  1  0.63088100  0.62499998  0.75000004  1
  P  P6  1  0.11911900  0.12500000  0.75000001  1
  P  P7  1  0.87499998  0.36911899  0.25000003  1
