# generated using pymatgen
data_Li2Co2O3
_symmetry_space_group_name_H-M   'P 1'
_cell_length_a   5.19017220
_cell_length_b   5.44754696
_cell_length_c   6.70815611
_cell_angle_alpha   89.85624695
_cell_angle_beta   89.64854431
_cell_angle_gamma   89.96638489
_symmetry_Int_Tables_number   1
_chemical_formula_structural   Li2Co2O3
_chemical_formula_sum   'Li4 Co4 O6'
_cell_volume   189.66024261
_cell_formula_units_Z   2
loop_
 _symmetry_equiv_pos_site_id
 _symmetry_equiv_pos_as_xyz
  1  'x, y, z'
loop_
 _atom_site_type_symbol
 _atom_site_label
 _atom_site_symmetry_multiplicity
 _atom_site_fract_x
 _atom_site_fract_y
 _atom_site_fract_z
 _atom_site_occupancy
  Li  Li0  1  0.50741798  0.42948200  0.86911400  1
  Li  Li1  1  0.99398896  0.08243800  0.38461401  1
  Li  Li2  1  0.50060897  0.92661700  0.12372396  1
  Li  Li3  1  0.00241000  0.57309000  0.62535599  1
  Co  Co4  1  0.51702598  0.42438500  0.38942099  1
  Co  Co5  1  0.98856496  0.08754500  0.85495702  1
  Co  Co6  1  0.83345996  0.96864500  0.10106596  1
  Co  Co7  1  0.92966196  0.90445700  0.63442798  1
  O  O8  1  0.42948998  0.61366400  0.15317798  1
  O  O9  1  0.35519598  0.51484700  0.61666999  1
  O  O10  1  0.86537596  0.41528300  0.40349199  1
  O  O11  1  0.87987496  0.40368200  0.84936200  1
  O  O12  1  0.39119798  0.09781200  0.32658900  1
  O  O13  1  0.35152699  0.05805400  0.91781002  1
