# generated using pymatgen
data_MgSiN4
_symmetry_space_group_name_H-M   'P 1'
_cell_length_a   3.01394796
_cell_length_b   4.59943485
_cell_length_c   4.59943485
_cell_angle_alpha   90.98010254
_cell_angle_beta   90.00000000
_cell_angle_gamma   90.00000000
_symmetry_Int_Tables_number   1
_chemical_formula_structural   MgSiN4
_chemical_formula_sum   'Mg1 Si1 N4'
_cell_volume   63.75014100
_cell_formula_units_Z   1
loop_
 _symmetry_equiv_pos_site_id
 _symmetry_equiv_pos_as_xyz
  1  'x, y, z'
loop_
 _atom_site_type_symbol
 _atom_site_label
 _atom_site_symmetry_multiplicity
 _atom_site_fract_x
 _atom_site_fract_y
 _atom_site_fract_z
 _atom_site_occupancy
  Mg  Mg0  1  0.00000000  0.00000000  0.00000000  1
  Si  Si1  1  0.50000001  0.49999998  0.49999999  1
  N  N2  1  -0.00000000  0.69180198  0.69180199  1
  N  N3  1  0.50000001  0.20156299  0.79843698  1
  N  N4  1  0.50000001  0.79843697  0.20156301  1
  N  N5  1  0.00000000  0.30819799  0.30819800  1
