# generated using pymatgen
data_Y2GeWO8
_symmetry_space_group_name_H-M   'P 1'
_cell_length_a   5.94934225
_cell_length_b   5.94934225
_cell_length_c   5.94934225
_cell_angle_alpha   106.06499481
_cell_angle_beta   106.06499481
_cell_angle_gamma   116.52220917
_symmetry_Int_Tables_number   1
_chemical_formula_structural   Y2GeWO8
_chemical_formula_sum   'Y2 Ge1 W1 O8'
_cell_volume   160.23782110
_cell_formula_units_Z   1
loop_
 _symmetry_equiv_pos_site_id
 _symmetry_equiv_pos_as_xyz
  1  'x, y, z'
loop_
 _atom_site_type_symbol
 _atom_site_label
 _atom_site_symmetry_multiplicity
 _atom_site_fract_x
 _atom_site_fract_y
 _atom_site_fract_z
 _atom_site_occupancy
  Y  Y0  1  0.00000000  0.00000000  0.00000000  1
  Y  Y1  1  0.24999990  0.74999994  0.49999993  1
  Ge  Ge2  1  0.74999996  0.24999998  0.49999996  1
  W  W3  1  0.49999993  0.49999996  -0.00000005  1
  O  O4  1  0.92878892  0.61162895  0.68284093  1
  O  O5  1  0.92878896  0.24594898  0.31715996  1
  O  O6  1  0.32604893  0.51336096  0.18731095  1
  O  O7  1  0.32604898  0.13873699  0.81268798  1
  O  O8  1  0.38837099  0.07121099  0.31715998  1
  O  O9  1  0.75405199  0.07121199  0.68284097  1
  O  O10  1  0.48663891  0.67395095  0.81268793  1
  O  O11  1  0.86126191  0.67394995  0.18731092  1
