# generated using pymatgen
data_TaPb3Cl10F
_symmetry_space_group_name_H-M   'P 1'
_cell_length_a   6.76787710
_cell_length_b   7.23238134
_cell_length_c   11.30611801
_cell_angle_alpha   71.91777039
_cell_angle_beta   88.41772461
_cell_angle_gamma   63.12759399
_symmetry_Int_Tables_number   1
_chemical_formula_structural   TaPb3Cl10F
_chemical_formula_sum   'Ta1 Pb3 Cl10 F1'
_cell_volume   465.10836718
_cell_formula_units_Z   1
loop_
 _symmetry_equiv_pos_site_id
 _symmetry_equiv_pos_as_xyz
  1  'x, y, z'
loop_
 _atom_site_type_symbol
 _atom_site_label
 _atom_site_symmetry_multiplicity
 _atom_site_fract_x
 _atom_site_fract_y
 _atom_site_fract_z
 _atom_site_occupancy
  Pb  Pb0  1  0.00000000  0.00000000  0.00000000  1
  Ta  Ta1  1  0.25978504  0.49815199  0.75757499  1
  Pb  Pb2  1  0.74021505  0.50184799  0.24242498  1
  Pb  Pb3  1  0.97234307  0.72409699  0.58670997  1
  Cl  Cl4  1  0.02765702  0.27590300  0.41329000  1
  Cl  Cl5  1  0.42952706  0.72826399  0.70279898  1
  Cl  Cl6  1  0.60604503  0.21606700  0.98039997  1
  Cl  Cl7  1  0.39395506  0.78393299  0.01960000  1
  F  F8  1  0.98892707  0.76551399  0.19750898  1
  Cl  Cl9  1  0.01107301  0.23448600  0.80249099  1
  Cl  Cl10  1  0.94543507  0.78183699  0.89825897  1
  Cl  Cl11  1  0.05456501  0.21816300  0.10174100  1
  Cl  Cl12  1  0.51836706  0.73567099  0.35116299  1
  Cl  Cl13  1  0.48163303  0.26432900  0.64883698  1
  Cl  Cl14  1  0.57047303  0.27173600  0.29720098  1
