# generated using pymatgen
data_RbLiHAuO3
_symmetry_space_group_name_H-M   'P 1'
_cell_length_a   3.60811400
_cell_length_b   5.25089025
_cell_length_c   5.25089025
_cell_angle_alpha   73.95175934
_cell_angle_beta   69.90537262
_cell_angle_gamma   69.90537262
_symmetry_Int_Tables_number   1
_chemical_formula_structural   RbLiHAuO3
_chemical_formula_sum   'Rb1 Li1 H1 Au1 O3'
_cell_volume   86.31256370
_cell_formula_units_Z   1
loop_
 _symmetry_equiv_pos_site_id
 _symmetry_equiv_pos_as_xyz
  1  'x, y, z'
loop_
 _atom_site_type_symbol
 _atom_site_label
 _atom_site_symmetry_multiplicity
 _atom_site_fract_x
 _atom_site_fract_y
 _atom_site_fract_z
 _atom_site_occupancy
  Li  Li0  1  0.49999999  0.50000002  0.50000004  1
  Rb  Rb1  1  0.00000000  0.00000000  0.00000000  1
  Au  Au2  1  0.49999998  0.79203003  0.20797004  1
  H  H3  1  0.50000000  0.20797001  0.79203004  1
  O  O4  1  0.26105098  0.73894902  0.73894906  1
  O  O5  1  0.73894899  0.26105101  0.26105102  1
  O  O6  1  -0.00000001  0.50000002  0.50000004  1
