# generated using pymatgen
data_LaCe2Zr3O10
_symmetry_space_group_name_H-M   'P 1'
_cell_length_a   5.61132002
_cell_length_b   5.68903208
_cell_length_c   8.45556259
_cell_angle_alpha   70.34184265
_cell_angle_beta   90.00000000
_cell_angle_gamma   90.00000000
_symmetry_Int_Tables_number   1
_chemical_formula_structural   LaCe2Zr3O10
_chemical_formula_sum   'La1 Ce2 Zr3 O10'
_cell_volume   254.19446851
_cell_formula_units_Z   1
loop_
 _symmetry_equiv_pos_site_id
 _symmetry_equiv_pos_as_xyz
  1  'x, y, z'
loop_
 _atom_site_type_symbol
 _atom_site_label
 _atom_site_symmetry_multiplicity
 _atom_site_fract_x
 _atom_site_fract_y
 _atom_site_fract_z
 _atom_site_occupancy
  La  La0  1  0.22592800  0.80955197  0.00000003  1
  Zr  Zr1  1  0.72592800  0.19044799  0.99999996  1
  Ce  Ce2  1  0.27282900  0.12289900  0.34150999  1
  Ce  Ce3  1  0.77282900  0.53559098  0.34151000  1
  Zr  Zr4  1  0.27282900  0.46440898  0.65848999  1
  Zr  Zr5  1  0.77282900  0.87710097  0.65849000  1
  O  O6  1  0.15531300  0.55509798  0.19036701  1
  O  O7  1  0.65531300  0.25453499  0.19036700  1
  O  O8  1  0.99266000  0.22999099  0.50379098  1
  O  O9  1  0.49266000  0.26621799  0.50379099  1
  O  O10  1  0.49266000  0.77000897  0.49620901  1
  O  O11  1  0.99266000  0.73378197  0.49620900  1
  O  O12  1  0.15531300  0.74546497  0.80963299  1
  O  O13  1  0.65531300  0.44490198  0.80963298  1
  O  O14  1  0.04121800  0.08069800  0.99999995  1
  O  O15  1  0.54121800  0.91930197  0.00000004  1
