# generated using pymatgen
data_Ba3LaTlPbSe6
_symmetry_space_group_name_H-M   'P 1'
_cell_length_a   4.27399111
_cell_length_b   9.03710556
_cell_length_c   11.27748775
_cell_angle_alpha   90.00000000
_cell_angle_beta   90.00000000
_cell_angle_gamma   90.00000000
_symmetry_Int_Tables_number   1
_chemical_formula_structural   Ba3LaTlPbSe6
_chemical_formula_sum   'Ba3 La1 Tl1 Pb1 Se6'
_cell_volume   435.58742510
_cell_formula_units_Z   1
loop_
 _symmetry_equiv_pos_site_id
 _symmetry_equiv_pos_as_xyz
  1  'x, y, z'
loop_
 _atom_site_type_symbol
 _atom_site_label
 _atom_site_symmetry_multiplicity
 _atom_site_fract_x
 _atom_site_fract_y
 _atom_site_fract_z
 _atom_site_occupancy
  Tl  Tl0  1  0.74999998  0.61074603  0.37189801  1
  Ba  Ba1  1  0.24999999  0.38925402  0.62810201  1
  Ba  Ba2  1  0.74999998  0.11074601  0.12810200  1
  Ba  Ba3  1  0.24999999  0.88925404  0.87189802  1
  Se  Se4  1  0.24999999  0.67159703  0.53872401  1
  La  La5  1  0.74999998  0.82840304  0.03872400  1
  Pb  Pb6  1  0.24999999  0.17159701  0.96127602  1
  Se  Se7  1  0.74999998  0.32840302  0.46127601  1
  Se  Se8  1  0.24999999  0.97606205  0.31575201  1
  Se  Se9  1  0.74999998  0.52393803  0.81575202  1
  Se  Se10  1  0.24999999  0.47606202  0.18424800  1
  Se  Se11  1  0.74999998  0.02393800  0.68424801  1
