# generated using pymatgen
data_Li3AlH2(CO3)3
_symmetry_space_group_name_H-M   'P 1'
_cell_length_a   5.20429230
_cell_length_b   5.20429230
_cell_length_c   7.65709162
_cell_angle_alpha   106.49579620
_cell_angle_beta   106.49579620
_cell_angle_gamma   97.85182190
_symmetry_Int_Tables_number   1
_chemical_formula_structural   Li3AlH2(CO3)3
_chemical_formula_sum   'Li3 Al1 H2 C3 O9'
_cell_volume   185.26985270
_cell_formula_units_Z   1
loop_
 _symmetry_equiv_pos_site_id
 _symmetry_equiv_pos_as_xyz
  1  'x, y, z'
loop_
 _atom_site_type_symbol
 _atom_site_label
 _atom_site_symmetry_multiplicity
 _atom_site_fract_x
 _atom_site_fract_y
 _atom_site_fract_z
 _atom_site_occupancy
  Al  Al0  1  0.50000000  0.00000000  -0.00000001  1
  Li  Li1  1  -0.00000003  0.49999999  0.49999998  1
  Li  Li2  1  0.04738899  0.13346700  0.20792499  1
  Li  Li3  1  0.86653294  0.95261098  0.29207494  1
  H  H4  1  0.95261094  0.86653298  0.79207494  1
  C  C5  1  0.13346700  0.04738900  0.70792500  1
  H  H6  1  0.58957297  0.41042699  0.74999997  1
  C  C7  1  0.41042696  0.58957299  0.24999997  1
  O  O8  1  0.72670198  0.33217599  0.60527097  1
  O  O9  1  0.66782398  0.27329800  0.89472897  1
  O  O10  1  0.27329796  0.66782399  0.39472897  1
  C  C11  1  0.33217595  0.72670199  0.10527096  1
  O  O12  1  0.67437895  0.71791499  0.84639996  1
  O  O13  1  0.28208498  0.32562099  0.65359998  1
  O  O14  1  0.32562098  0.28208499  0.15359998  1
  O  O15  1  0.71791495  0.67437899  0.34639995  1
  O  O16  1  0.11774194  0.88225798  0.74999996  1
  O  O17  1  0.88225799  0.11774200  0.24999997  1
