# generated using pymatgen
data_AlSnO2
_symmetry_space_group_name_H-M   'P 1'
_cell_length_a   2.95382428
_cell_length_b   2.95382428
_cell_length_c   6.11192942
_cell_angle_alpha   76.01638031
_cell_angle_beta   76.01638031
_cell_angle_gamma   59.99999237
_symmetry_Int_Tables_number   1
_chemical_formula_structural   AlSnO2
_chemical_formula_sum   'Al1 Sn1 O2'
_cell_volume   44.34836329
_cell_formula_units_Z   1
loop_
 _symmetry_equiv_pos_site_id
 _symmetry_equiv_pos_as_xyz
  1  'x, y, z'
loop_
 _atom_site_type_symbol
 _atom_site_label
 _atom_site_symmetry_multiplicity
 _atom_site_fract_x
 _atom_site_fract_y
 _atom_site_fract_z
 _atom_site_occupancy
  Sn  Sn0  1  0.50000004  0.50000001  0.49999996  1
  Al  Al1  1  0.00000000  0.00000000  0.00000000  1
  O  O2  1  0.10498001  0.10498000  0.68505997  1
  O  O3  1  0.89502007  0.89502003  0.31493995  1
