# generated using pymatgen
data_Al(Si2O3)2
_symmetry_space_group_name_H-M   'P 1'
_cell_length_a   5.81995010
_cell_length_b   5.81995058
_cell_length_c   6.14706612
_cell_angle_alpha   90.00000000
_cell_angle_beta   90.00000000
_cell_angle_gamma   120.00000000
_symmetry_Int_Tables_number   1
_chemical_formula_structural   Al(Si2O3)2
_chemical_formula_sum   'Al1 Si4 O6'
_cell_volume   180.31716649
_cell_formula_units_Z   1
loop_
 _symmetry_equiv_pos_site_id
 _symmetry_equiv_pos_as_xyz
  1  'x, y, z'
loop_
 _atom_site_type_symbol
 _atom_site_label
 _atom_site_symmetry_multiplicity
 _atom_site_fract_x
 _atom_site_fract_y
 _atom_site_fract_z
 _atom_site_occupancy
  Al  Al0  1  0.00000000  0.00000000  0.49999999  1
  Si  Si1  1  0.66666667  0.33333333  0.21136700  1
  Si  Si2  1  0.33333336  0.66666666  0.78863299  1
  Si  Si3  1  0.79648802  0.66030999  0.30512999  1
  Si  Si4  1  0.86382199  0.20351300  0.30512999  1
  O  O5  1  0.66666667  0.33333333  0.92967798  1
  O  O6  1  0.66030903  0.86382099  0.69486999  1
  O  O7  1  0.33969100  0.13617900  0.30512999  1
  O  O8  1  0.33333336  0.66666666  0.07032200  1
  O  O9  1  0.13617803  0.79648699  0.69486999  1
  O  O10  1  0.20351201  0.33969000  0.69486999  1
