# generated using pymatgen
data_Li2Mg2SiHO7
_symmetry_space_group_name_H-M   'P 1'
_cell_length_a   3.04730201
_cell_length_b   3.04730201
_cell_length_c   14.81210136
_cell_angle_alpha   90.00000000
_cell_angle_beta   90.00000000
_cell_angle_gamma   120.00000000
_symmetry_Int_Tables_number   1
_chemical_formula_structural   Li2Mg2SiHO7
_chemical_formula_sum   'Li2 Mg2 Si1 H1 O7'
_cell_volume   119.11824952
_cell_formula_units_Z   1
loop_
 _symmetry_equiv_pos_site_id
 _symmetry_equiv_pos_as_xyz
  1  'x, y, z'
loop_
 _atom_site_type_symbol
 _atom_site_label
 _atom_site_symmetry_multiplicity
 _atom_site_fract_x
 _atom_site_fract_y
 _atom_site_fract_z
 _atom_site_occupancy
  Li  Li0  1  0.33333334  0.66666668  0.33123799  1
  Mg  Mg1  1  0.66666667  0.33333334  0.66876198  1
  Li  Li2  1  0.66666667  0.33333334  0.16539400  1
  Si  Si3  1  0.33333334  0.66666668  0.83460598  1
  Mg  Mg4  1  0.00000000  0.00000000  0.00000000  1
  H  H5  1  0.66666667  0.33333334  0.46879499  1
  O  O6  1  0.33333334  0.66666668  0.53120499  1
  O  O7  1  0.66666667  0.33333334  0.91727998  1
  O  O8  1  0.33333334  0.66666668  0.08272000  1
  O  O9  1  0.00000000  0.00000000  0.75180898  1
  O  O10  1  0.33333334  0.66666668  0.59655599  1
  O  O11  1  0.66666667  0.33333334  0.40344399  1
  O  O12  1  0.00000000  0.00000000  0.24819099  1
