# generated using pymatgen
data_BaLaMoW2O7
_symmetry_space_group_name_H-M   'P 1'
_cell_length_a   5.92983818
_cell_length_b   6.84298372
_cell_length_c   5.92983818
_cell_angle_alpha   115.67581177
_cell_angle_beta   90.00000000
_cell_angle_gamma   115.67581177
_symmetry_Int_Tables_number   1
_chemical_formula_structural   BaLaMoW2O7
_chemical_formula_sum   'Ba1 La1 Mo1 W2 O7'
_cell_volume   190.15644706
_cell_formula_units_Z   1
loop_
 _symmetry_equiv_pos_site_id
 _symmetry_equiv_pos_as_xyz
  1  'x, y, z'
loop_
 _atom_site_type_symbol
 _atom_site_label
 _atom_site_symmetry_multiplicity
 _atom_site_fract_x
 _atom_site_fract_y
 _atom_site_fract_z
 _atom_site_occupancy
  Ba  Ba0  1  0.74999995  0.49999999  0.74999995  1
  La  La1  1  0.24999996  0.49999999  0.24999996  1
  W  W2  1  0.49999999  0.00000000  0.00000000  1
  Mo  Mo3  1  -0.00000006  0.99999998  0.49999992  1
  W  W4  1  0.53713694  0.73563798  0.69850093  1
  O  O5  1  0.80149896  0.26436199  0.96286295  1
  O  O6  1  0.46286297  0.26436199  0.30149897  1
  O  O7  1  0.96286295  0.26436199  0.46286297  1
  O  O8  1  0.19850095  0.73563798  0.03713695  1
  O  O9  1  0.69850093  0.73563798  0.19850095  1
  O  O10  1  0.03713695  0.73563798  0.53713694  1
  O  O11  1  0.30149897  0.26436199  0.80149896  1
