# generated using pymatgen
data_LaCe3BiO10
_symmetry_space_group_name_H-M   'P 1'
_cell_length_a   3.88543606
_cell_length_b   3.88543606
_cell_length_c   14.00165939
_cell_angle_alpha   97.97547150
_cell_angle_beta   97.97547150
_cell_angle_gamma   90.00000000
_symmetry_Int_Tables_number   1
_chemical_formula_structural   LaCe3BiO10
_chemical_formula_sum   'La1 Ce3 Bi1 O10'
_cell_volume   207.26839581
_cell_formula_units_Z   1
loop_
 _symmetry_equiv_pos_site_id
 _symmetry_equiv_pos_as_xyz
  1  'x, y, z'
loop_
 _atom_site_type_symbol
 _atom_site_label
 _atom_site_symmetry_multiplicity
 _atom_site_fract_x
 _atom_site_fract_y
 _atom_site_fract_z
 _atom_site_occupancy
  Ce  Ce0  1  0.39848700  0.39848700  0.79697400  1
  Ce  Ce1  1  0.79948600  0.79948599  0.59897200  1
  Ce  Ce2  1  0.20051400  0.20051400  0.40102800  1
  La  La3  1  0.60151300  0.60151299  0.20302601  1
  Bi  Bi4  1  0.00000000  0.00000000  0.00000000  1
  O  O5  1  0.15100600  0.65100599  0.30201200  1
  O  O6  1  0.55162799  0.05162800  0.10325600  1
  O  O7  1  0.94837199  0.44837199  0.89674400  1
  O  O8  1  0.34899400  0.84899399  0.69798800  1
  O  O9  1  0.74999999  0.25000000  0.50000000  1
  O  O10  1  0.05162800  0.55162799  0.10325600  1
  O  O11  1  0.44837200  0.94837199  0.89674400  1
  O  O12  1  0.84899399  0.34899400  0.69798800  1
  O  O13  1  0.25000000  0.74999999  0.50000000  1
  O  O14  1  0.65100599  0.15100600  0.30201200  1
