# generated using pymatgen
data_Ho7LuN12
_symmetry_space_group_name_H-M   'P 1'
_cell_length_a   6.06626987
_cell_length_b   6.19618893
_cell_length_c   8.55508232
_cell_angle_alpha   90.00000000
_cell_angle_beta   90.00000000
_cell_angle_gamma   90.00000000
_symmetry_Int_Tables_number   1
_chemical_formula_structural   Ho7LuN12
_chemical_formula_sum   'Ho7 Lu1 N12'
_cell_volume   321.56633165
_cell_formula_units_Z   1
loop_
 _symmetry_equiv_pos_site_id
 _symmetry_equiv_pos_as_xyz
  1  'x, y, z'
loop_
 _atom_site_type_symbol
 _atom_site_label
 _atom_site_symmetry_multiplicity
 _atom_site_fract_x
 _atom_site_fract_y
 _atom_site_fract_z
 _atom_site_occupancy
  Ho  Ho0  1  0.74918402  0.53042701  0.10828300  1
  Ho  Ho1  1  0.75081602  0.03042700  0.39171699  1
  Ho  Ho2  1  0.75081602  0.46957301  0.60828298  1
  Ho  Ho3  1  0.74918402  0.96957301  0.89171697  1
  Ho  Ho4  1  0.25081601  0.46957301  0.89171697  1
  Lu  Lu5  1  0.24918401  0.96957301  0.60828298  1
  Ho  Ho6  1  0.24918401  0.53042701  0.39171699  1
  Ho  Ho7  1  0.25081601  0.03042700  0.10828300  1
  N  N8  1  0.60978601  0.89242701  0.15013099  1
  N  N9  1  0.89021402  0.39242700  0.34986899  1
  N  N10  1  0.89021402  0.10757300  0.65013098  1
  N  N11  1  0.60978601  0.60757301  0.84986897  1
  N  N12  1  0.39021401  0.10757300  0.84986897  1
  N  N13  1  0.10978600  0.60757301  0.65013098  1
  N  N14  1  0.10978600  0.89242701  0.34986899  1
  N  N15  1  0.39021401  0.39242700  0.15013099  1
  N  N16  1  0.04478700  0.75000001  -0.00000000  1
  N  N17  1  0.45521301  0.25000000  0.49999998  1
  N  N18  1  0.95521302  0.25000000  -0.00000000  1
  N  N19  1  0.54478701  0.75000001  0.49999998  1
