# generated using pymatgen
data_Mo3W(SeS)4
_symmetry_space_group_name_H-M   'P 1'
_cell_length_a   3.25276208
_cell_length_b   3.25276160
_cell_length_c   36.86233521
_cell_angle_alpha   90.00000000
_cell_angle_beta   90.00000000
_cell_angle_gamma   120.00000763
_symmetry_Int_Tables_number   1
_chemical_formula_structural   Mo3W(SeS)4
_chemical_formula_sum   'Mo3 W1 Se4 S4'
_cell_volume   337.76759012
_cell_formula_units_Z   1
loop_
 _symmetry_equiv_pos_site_id
 _symmetry_equiv_pos_as_xyz
  1  'x, y, z'
loop_
 _atom_site_type_symbol
 _atom_site_label
 _atom_site_symmetry_multiplicity
 _atom_site_fract_x
 _atom_site_fract_y
 _atom_site_fract_z
 _atom_site_occupancy
  W  W0  1  0.00000000  0.00000000  0.90609102  1
  Mo  Mo1  1  0.66666667  0.33333334  0.71821202  1
  Mo  Mo2  1  0.66666667  0.33333334  0.34244801  1
  Mo  Mo3  1  0.00000000  0.00000000  0.53033201  1
  Se  Se4  1  0.00000000  0.00000000  0.67214001  1
  Se  Se5  1  0.00000000  0.00000000  0.29635501  1
  Se  Se6  1  0.00000000  0.00000000  0.76430102  1
  Se  Se7  1  0.00000000  0.00000000  0.38853801  1
  S  S8  1  0.66666667  0.33333334  0.94801002  1
  S  S9  1  0.66666667  0.33333334  0.57236601  1
  S  S10  1  0.66666667  0.33333334  0.86415902  1
  S  S11  1  0.66666667  0.33333334  0.48829901  1
