# generated using pymatgen
data_TaTl(MoS3)2
_symmetry_space_group_name_H-M   'P 1'
_cell_length_a   6.22137403
_cell_length_b   6.33153772
_cell_length_c   6.43754435
_cell_angle_alpha   100.10703278
_cell_angle_beta   102.67223358
_cell_angle_gamma   98.72468567
_symmetry_Int_Tables_number   1
_chemical_formula_structural   TaTl(MoS3)2
_chemical_formula_sum   'Ta1 Tl1 Mo2 S6'
_cell_volume   238.74184031
_cell_formula_units_Z   1
loop_
 _symmetry_equiv_pos_site_id
 _symmetry_equiv_pos_as_xyz
  1  'x, y, z'
loop_
 _atom_site_type_symbol
 _atom_site_label
 _atom_site_symmetry_multiplicity
 _atom_site_fract_x
 _atom_site_fract_y
 _atom_site_fract_z
 _atom_site_occupancy
  Tl  Tl0  1  0.45967500  0.45497999  0.44900999  1
  Ta  Ta1  1  0.99922400  0.84569098  0.26469200  1
  Mo  Mo2  1  0.26610700  0.98921598  0.85784997  1
  Mo  Mo3  1  0.84729800  0.27076599  0.99520497  1
  S  S4  1  0.03986200  0.71995998  0.58010798  1
  S  S5  1  0.59329300  0.05184600  0.73567898  1
  S  S6  1  0.71783900  0.56764299  0.02797400  1
  S  S7  1  0.89245400  0.18371600  0.30602400  1
  S  S8  1  0.34105100  0.90627498  0.19284999  1
  S  S9  1  0.15924200  0.32595199  0.90665197  1
