# generated using pymatgen
data_LiAl(SiO3)2
_symmetry_space_group_name_H-M   'P 1'
_cell_length_a   5.37290668
_cell_length_b   6.88675404
_cell_length_c   6.88675404
_cell_angle_alpha   86.56439972
_cell_angle_beta   73.72492981
_cell_angle_gamma   73.72492981
_symmetry_Int_Tables_number   1
_chemical_formula_structural   LiAl(SiO3)2
_chemical_formula_sum   'Li2 Al2 Si4 O12'
_cell_volume   234.76131323
_cell_formula_units_Z   2
loop_
 _symmetry_equiv_pos_site_id
 _symmetry_equiv_pos_as_xyz
  1  'x, y, z'
loop_
 _atom_site_type_symbol
 _atom_site_label
 _atom_site_symmetry_multiplicity
 _atom_site_fract_x
 _atom_site_fract_y
 _atom_site_fract_z
 _atom_site_occupancy
  Li  Li0  1  0.74999999  0.11600500  0.88399498  1
  Li  Li1  1  0.74999998  0.76852600  0.23147398  1
  Al  Al2  1  0.24999999  0.23147400  0.76852599  1
  Al  Al3  1  0.24999998  0.88399500  0.11600499  1
  Si  Si4  1  0.23262999  0.38490700  0.21748299  1
  Si  Si5  1  0.76736998  0.61509300  0.78251698  1
  Si  Si6  1  0.73262999  0.21748300  0.38490699  1
  Si  Si7  1  0.26736998  0.78251700  0.61509299  1
  O  O8  1  0.97017699  0.32820000  0.37560798  1
  O  O9  1  0.47017699  0.37560800  0.32819999  1
  O  O10  1  0.52982298  0.62439200  0.67179999  1
  O  O11  1  0.37426698  0.85539100  0.38428099  1
  O  O12  1  0.87426699  0.38428100  0.85539098  1
  O  O13  1  0.14110198  0.96571500  0.78843099  1
  O  O14  1  0.64110198  0.78843100  0.96571498  1
  O  O15  1  0.02982299  0.67180000  0.62439199  1
  O  O16  1  0.62573299  0.14460900  0.61571899  1
  O  O17  1  0.12573299  0.61571900  0.14460899  1
  O  O18  1  0.85889799  0.03428500  0.21156899  1
  O  O19  1  0.35889799  0.21156900  0.03428499  1
