# generated using pymatgen
data_Li2O2
_symmetry_space_group_name_H-M   'P 1'
_cell_length_a   5.43989706
_cell_length_b   5.83861685
_cell_length_c   6.97933531
_cell_angle_alpha   103.19034576
_cell_angle_beta   103.62793732
_cell_angle_gamma   92.78115845
_symmetry_Int_Tables_number   1
_chemical_formula_structural   Li2O2
_chemical_formula_sum   'Li8 O8'
_cell_volume   208.52018560
_cell_formula_units_Z   4
loop_
 _symmetry_equiv_pos_site_id
 _symmetry_equiv_pos_as_xyz
  1  'x, y, z'
loop_
 _atom_site_type_symbol
 _atom_site_label
 _atom_site_symmetry_multiplicity
 _atom_site_fract_x
 _atom_site_fract_y
 _atom_site_fract_z
 _atom_site_occupancy
  Li  Li0  1  0.20766703  0.45516601  0.61995899  1
  Li  Li1  1  0.61810701  0.17058401  0.33850200  1
  Li  Li2  1  0.30747804  0.63824102  0.16246600  1
  Li  Li3  1  0.98054699  0.01537500  0.97104199  1
  Li  Li4  1  0.83399000  0.06473400  0.20297801  1
  Li  Li5  1  0.53464602  0.40081201  0.23347100  1
  Li  Li6  1  0.31110806  0.95192603  0.15102300  1
  Li  Li7  1  0.09596302  0.29560601  0.01713500  1
  O  O8  1  0.96420404  0.67279902  0.01176301  1
  O  O9  1  0.86634902  0.30921401  0.57192600  1
  O  O10  1  0.66367806  0.98865403  0.82114498  1
  O  O11  1  0.59533605  0.80718102  0.37521400  1
  O  O12  1  0.39450101  0.21271601  0.51010699  1
  O  O13  1  0.39261904  0.56645502  0.91958098  1
  O  O14  1  0.15827304  0.60527202  0.36193299  1
  O  O15  1  0.09237406  0.88444403  0.75200498  1
