# generated using pymatgen
data_PmEr3(InS4)2
_symmetry_space_group_name_H-M   'P 1'
_cell_length_a   8.04596424
_cell_length_b   8.04596424
_cell_length_c   8.04596424
_cell_angle_alpha   60.00000000
_cell_angle_beta   60.00000000
_cell_angle_gamma   60.00000000
_symmetry_Int_Tables_number   1
_chemical_formula_structural   PmEr3(InS4)2
_chemical_formula_sum   'Pm1 Er3 In2 S8'
_cell_volume   368.31490683
_cell_formula_units_Z   1
loop_
 _symmetry_equiv_pos_site_id
 _symmetry_equiv_pos_as_xyz
  1  'x, y, z'
loop_
 _atom_site_type_symbol
 _atom_site_label
 _atom_site_symmetry_multiplicity
 _atom_site_fract_x
 _atom_site_fract_y
 _atom_site_fract_z
 _atom_site_occupancy
  Er  Er0  1  0.37500001  0.37500001  0.37500001  1
  Er  Er1  1  0.37500001  0.87500002  0.37500001  1
  Er  Er2  1  0.37500001  0.37500001  0.87500002  1
  Pm  Pm3  1  0.87500002  0.37500001  0.37500001  1
  In  In4  1  0.00000000  0.00000000  0.00000000  1
  In  In5  1  0.75000002  0.75000002  0.75000002  1
  S  S6  1  0.13555400  0.62148201  0.62148201  1
  S  S7  1  0.62148201  0.62148201  0.13555400  1
  S  S8  1  0.62148201  0.62148201  0.62148201  1
  S  S9  1  0.62148201  0.13555400  0.62148201  1
  S  S10  1  0.12851800  0.61444601  0.12851800  1
  S  S11  1  0.12851800  0.12851800  0.12851800  1
  S  S12  1  0.12851800  0.12851800  0.61444601  1
  S  S13  1  0.61444601  0.12851800  0.12851800  1
