# generated using pymatgen
data_SrBr2
_symmetry_space_group_name_H-M   'P 1'
_cell_length_a   4.53884077
_cell_length_b   4.53884077
_cell_length_c   13.65550995
_cell_angle_alpha   90.00000000
_cell_angle_beta   90.00000000
_cell_angle_gamma   109.44682312
_symmetry_Int_Tables_number   1
_chemical_formula_structural   SrBr2
_chemical_formula_sum   'Sr2 Br4'
_cell_volume   265.26924097
_cell_formula_units_Z   2
loop_
 _symmetry_equiv_pos_site_id
 _symmetry_equiv_pos_as_xyz
  1  'x, y, z'
loop_
 _atom_site_type_symbol
 _atom_site_label
 _atom_site_symmetry_multiplicity
 _atom_site_fract_x
 _atom_site_fract_y
 _atom_site_fract_z
 _atom_site_occupancy
  Sr  Sr0  1  0.17433402  0.82566602  0.49725000  1
  Sr  Sr1  1  0.82566602  0.17433400  0.99725000  1
  Br  Br2  1  0.09532402  0.90467602  0.87040100  1
  Br  Br3  1  0.90467602  0.09532400  0.37040100  1
  Br  Br4  1  0.42250802  0.57749202  0.62034900  1
  Br  Br5  1  0.57749202  0.42250801  0.12034900  1
