# generated using pymatgen
data_K4TaV3Se8
_symmetry_space_group_name_H-M   'P 1'
_cell_length_a   5.87592793
_cell_length_b   7.77633619
_cell_length_c   12.76447773
_cell_angle_alpha   85.01131439
_cell_angle_beta   76.69308472
_cell_angle_gamma   67.80200958
_symmetry_Int_Tables_number   1
_chemical_formula_structural   K4TaV3Se8
_chemical_formula_sum   'K4 Ta1 V3 Se8'
_cell_volume   525.52250440
_cell_formula_units_Z   1
loop_
 _symmetry_equiv_pos_site_id
 _symmetry_equiv_pos_as_xyz
  1  'x, y, z'
loop_
 _atom_site_type_symbol
 _atom_site_label
 _atom_site_symmetry_multiplicity
 _atom_site_fract_x
 _atom_site_fract_y
 _atom_site_fract_z
 _atom_site_occupancy
  K  K0  1  0.67809601  0.00000000  0.64380802  1
  K  K1  1  0.32190391  1.00000000  0.35619205  1
  K  K2  1  0.42809596  0.50000000  0.14380802  1
  K  K3  1  0.07190395  0.50000000  0.85619205  1
  Ta  Ta4  1  0.24999996  0.50000000  0.50000004  1
  V  V5  1  0.49999991  1.00000000  0.00000004  1
  V  V6  1  0.00000000  0.00000000  0.00000000  1
  V  V7  1  0.74999996  0.50000000  0.50000003  1
  Se  Se8  1  0.31034394  0.68128700  0.60361405  1
  Se  Se9  1  0.59524598  0.31871200  0.39638502  1
  Se  Se10  1  0.00836993  0.68128700  0.39638504  1
  Se  Se11  1  0.08604297  0.31871200  0.60361403  1
  Se  Se12  1  0.66395699  0.18128800  0.89638604  1
  Se  Se13  1  0.15475398  0.18128800  0.10361501  1
  Se  Se14  1  0.74162993  0.81871300  0.10361503  1
  Se  Se15  1  0.43965593  0.81871300  0.89638606  1
