# generated using pymatgen
data_KS
_symmetry_space_group_name_H-M   'P 1'
_cell_length_a   4.53851557
_cell_length_b   4.53851557
_cell_length_c   8.62343407
_cell_angle_alpha   74.74293518
_cell_angle_beta   74.74293518
_cell_angle_gamma   60.00000381
_symmetry_Int_Tables_number   1
_chemical_formula_structural   KS
_chemical_formula_sum   'K2 S2'
_cell_volume   146.55558734
_cell_formula_units_Z   2
loop_
 _symmetry_equiv_pos_site_id
 _symmetry_equiv_pos_as_xyz
  1  'x, y, z'
loop_
 _atom_site_type_symbol
 _atom_site_label
 _atom_site_symmetry_multiplicity
 _atom_site_fract_x
 _atom_site_fract_y
 _atom_site_fract_z
 _atom_site_occupancy
  K  K0  1  0.50000001  0.50000002  0.50000000  1
  K  K1  1  0.00000000  0.00000000  0.00000000  1
  S  S2  1  0.26272301  0.26272301  0.21183100  1
  S  S3  1  0.73727702  0.73727703  0.78816899  1
