# generated using pymatgen
data_Li4CoO5
_symmetry_space_group_name_H-M   'P 1'
_cell_length_a   5.08724213
_cell_length_b   5.12703228
_cell_length_c   7.63301897
_cell_angle_alpha   83.18406677
_cell_angle_beta   71.54019165
_cell_angle_gamma   70.74417877
_symmetry_Int_Tables_number   1
_chemical_formula_structural   Li4CoO5
_chemical_formula_sum   'Li8 Co2 O10'
_cell_volume   178.25662879
_cell_formula_units_Z   2
loop_
 _symmetry_equiv_pos_site_id
 _symmetry_equiv_pos_as_xyz
  1  'x, y, z'
loop_
 _atom_site_type_symbol
 _atom_site_label
 _atom_site_symmetry_multiplicity
 _atom_site_fract_x
 _atom_site_fract_y
 _atom_site_fract_z
 _atom_site_occupancy
  Li  Li0  1  -0.00000002  0.49999999  0.49999998  1
  Li  Li1  1  0.59429297  0.49717899  0.30482197  1
  Li  Li2  1  0.19061597  0.50460799  0.10346498  1
  Li  Li3  1  0.80938396  0.49539199  0.89653496  1
  Li  Li4  1  0.40570697  0.50282099  0.69517797  1
  Li  Li5  1  0.49999999  0.00000000  0.49999999  1
  Li  Li6  1  0.90379394  0.99252598  0.69775995  1
  Li  Li7  1  0.09620600  0.00747400  0.30224000  1
  Co  Co8  1  0.69231599  0.00209400  0.11083799  1
  Co  Co9  1  0.30768395  0.99790598  0.88916195  1
  O  O10  1  0.66248495  0.76783698  0.70787196  1
  O  O11  1  0.21872596  0.77612598  0.50032897  1
  O  O12  1  0.85713695  0.77922198  0.28677396  1
  O  O13  1  0.41872996  0.78256898  0.10973796  1
  O  O14  1  0.04742297  0.76637398  0.88921897  1
  O  O15  1  0.33751498  0.23216299  0.29212798  1
  O  O16  1  0.95257697  0.23362599  0.11078098  1
  O  O17  1  0.58126998  0.21743099  0.89026198  1
  O  O18  1  0.14286299  0.22077799  0.71322599  1
  O  O19  1  0.78127398  0.22387399  0.49967098  1
