# generated using pymatgen
data_BaTiO3
_symmetry_space_group_name_H-M   'P 1'
_cell_length_a   5.60353184
_cell_length_b   5.60353184
_cell_length_c   8.01979923
_cell_angle_alpha   90.00000000
_cell_angle_beta   90.00000000
_cell_angle_gamma   90.00000000
_symmetry_Int_Tables_number   1
_chemical_formula_structural   BaTiO3
_chemical_formula_sum   'Ba4 Ti4 O12'
_cell_volume   251.81823980
_cell_formula_units_Z   4
loop_
 _symmetry_equiv_pos_site_id
 _symmetry_equiv_pos_as_xyz
  1  'x, y, z'
loop_
 _atom_site_type_symbol
 _atom_site_label
 _atom_site_symmetry_multiplicity
 _atom_site_fract_x
 _atom_site_fract_y
 _atom_site_fract_z
 _atom_site_occupancy
  Ba  Ba0  1  0.00000000  0.00000000  0.49999999  1
  Ba  Ba1  1  0.50000001  0.50000001  0.49999999  1
  Ba  Ba2  1  0.00000000  0.00000000  0.00000000  1
  Ba  Ba3  1  0.50000001  0.50000001  0.00000000  1
  Ti  Ti4  1  0.00000000  0.50000001  0.25520399  1
  Ti  Ti5  1  0.50000001  0.00000000  0.74479598  1
  Ti  Ti6  1  0.00000000  0.50000001  0.74305498  1
  Ti  Ti7  1  0.50000001  0.00000000  0.25694499  1
  O  O8  1  0.24345401  0.25654601  0.77042298  1
  O  O9  1  0.25654601  0.24345401  0.22957699  1
  O  O10  1  0.00000000  0.50000001  0.99645997  1
  O  O11  1  0.24345401  0.74345402  0.77042298  1
  O  O12  1  0.00000000  0.50000001  0.50992599  1
  O  O13  1  0.50000001  0.00000000  0.00354000  1
  O  O14  1  0.25654601  0.75654602  0.22957699  1
  O  O15  1  0.75654602  0.25654601  0.77042298  1
  O  O16  1  0.50000001  0.00000000  0.49007399  1
  O  O17  1  0.75654602  0.74345402  0.77042298  1
  O  O18  1  0.74345402  0.75654602  0.22957699  1
  O  O19  1  0.74345402  0.24345401  0.22957699  1
