# generated using pymatgen
data_Sr2NbWO6
_symmetry_space_group_name_H-M   'P 1'
_cell_length_a   5.74271441
_cell_length_b   5.75875759
_cell_length_c   8.01046562
_cell_angle_alpha   89.82649994
_cell_angle_beta   90.16204071
_cell_angle_gamma   89.89037323
_symmetry_Int_Tables_number   1
_chemical_formula_structural   Sr2NbWO6
_chemical_formula_sum   'Sr4 Nb2 W2 O12'
_cell_volume   264.91054565
_cell_formula_units_Z   2
loop_
 _symmetry_equiv_pos_site_id
 _symmetry_equiv_pos_as_xyz
  1  'x, y, z'
loop_
 _atom_site_type_symbol
 _atom_site_label
 _atom_site_symmetry_multiplicity
 _atom_site_fract_x
 _atom_site_fract_y
 _atom_site_fract_z
 _atom_site_occupancy
  Sr  Sr0  1  0.02696100  0.00404800  0.24771500  1
  Sr  Sr1  1  0.52826897  0.49515099  0.25044099  1
  Sr  Sr2  1  0.47170897  0.50481199  0.74955699  1
  Sr  Sr3  1  0.97303493  0.99594298  0.75228698  1
  Nb  Nb4  1  0.99999496  0.49998399  0.50001898  1
  Nb  Nb5  1  0.50010200  0.00021200  0.99998600  1
  W  W6  1  0.99997996  0.49997799  0.00005698  1
  W  W7  1  0.49994000  0.00003000  0.49999400  1
  O  O8  1  0.29073398  0.26457199  0.46592700  1
  O  O9  1  0.79215598  0.23528500  0.03395198  1
  O  O10  1  0.70927395  0.73538599  0.53408399  1
  O  O11  1  0.20785295  0.76469999  0.96602700  1
  O  O12  1  0.23269595  0.79533198  0.53286999  1
  O  O13  1  0.73204295  0.70493399  0.96623699  1
  O  O14  1  0.76730598  0.20464600  0.46713399  1
  O  O15  1  0.26795698  0.29504399  0.03373899  1
  O  O16  1  0.49075194  0.93670898  0.25949699  1
  O  O17  1  0.99133796  0.56408999  0.23959398  1
  O  O18  1  0.50925599  0.06325900  0.74049600  1
  O  O19  1  0.00864397  0.43588499  0.76038700  1
