# generated using pymatgen
data_YFeO3
_symmetry_space_group_name_H-M   'P 1'
_cell_length_a   5.10104513
_cell_length_b   5.62949800
_cell_length_c   7.31846523
_cell_angle_alpha   90.00000000
_cell_angle_beta   90.00000000
_cell_angle_gamma   90.00000000
_symmetry_Int_Tables_number   1
_chemical_formula_structural   YFeO3
_chemical_formula_sum   'Y4 Fe4 O12'
_cell_volume   210.15941436
_cell_formula_units_Z   4
loop_
 _symmetry_equiv_pos_site_id
 _symmetry_equiv_pos_as_xyz
  1  'x, y, z'
loop_
 _atom_site_type_symbol
 _atom_site_label
 _atom_site_symmetry_multiplicity
 _atom_site_fract_x
 _atom_site_fract_y
 _atom_site_fract_z
 _atom_site_occupancy
  Y  Y0  1  0.52714099  0.58716200  0.24999999  1
  Y  Y1  1  0.97285897  0.08716200  0.24999999  1
  Y  Y2  1  0.47285899  0.41283800  0.74999998  1
  Y  Y3  1  0.02714100  0.91283800  0.74999998  1
  Fe  Fe4  1  0.00000000  0.50000000  -0.00000000  1
  Fe  Fe5  1  0.49999999  0.00000000  0.49999998  1
  Fe  Fe6  1  0.00000000  0.50000000  0.49999998  1
  Fe  Fe7  1  0.49999999  0.00000000  0.00000000  1
  O  O8  1  0.37934099  0.96133100  0.24999999  1
  O  O9  1  0.12065900  0.46133100  0.24999999  1
  O  O10  1  0.62065898  0.03866900  0.74999998  1
  O  O11  1  0.87934098  0.53866900  0.74999998  1
  O  O12  1  0.80571898  0.81461300  0.05817900  1
  O  O13  1  0.69428098  0.31461300  0.44182099  1
  O  O14  1  0.19428099  0.18538700  0.55817898  1
  O  O15  1  0.30571899  0.68538700  0.94182097  1
  O  O16  1  0.19428099  0.18538700  0.94182097  1
  O  O17  1  0.30571899  0.68538700  0.55817898  1
  O  O18  1  0.80571898  0.81461300  0.44182099  1
  O  O19  1  0.69428098  0.31461300  0.05817900  1
