# generated using pymatgen
data_NaNbO4
_symmetry_space_group_name_H-M   'P 1'
_cell_length_a   3.12778997
_cell_length_b   5.51757669
_cell_length_c   9.34515667
_cell_angle_alpha   83.85693359
_cell_angle_beta   80.36632538
_cell_angle_gamma   73.53445435
_symmetry_Int_Tables_number   1
_chemical_formula_structural   NaNbO4
_chemical_formula_sum   'Na2 Nb2 O8'
_cell_volume   152.17899965
_cell_formula_units_Z   2
loop_
 _symmetry_equiv_pos_site_id
 _symmetry_equiv_pos_as_xyz
  1  'x, y, z'
loop_
 _atom_site_type_symbol
 _atom_site_label
 _atom_site_symmetry_multiplicity
 _atom_site_fract_x
 _atom_site_fract_y
 _atom_site_fract_z
 _atom_site_occupancy
  Na  Na0  1  0.24047102  0.25000101  0.74999997  1
  Na  Na1  1  0.75952905  0.75000003  0.24999996  1
  Nb  Nb2  1  0.50000003  0.50000002  -0.00000002  1
  Nb  Nb3  1  0.00000000  0.00000000  0.49999999  1
  O  O4  1  0.00909703  0.60350702  0.86993196  1
  O  O5  1  0.69664102  0.19946201  0.89318397  1
  O  O6  1  0.48253605  0.89649303  0.63006795  1
  O  O7  1  0.21071304  0.69946203  0.39318396  1
  O  O8  1  0.78928703  0.30053801  0.60681597  1
  O  O9  1  0.51746401  0.10350700  0.36993198  1
  O  O10  1  0.30335905  0.80053803  0.10681596  1
  O  O11  1  0.99090303  0.39649301  0.13006797  1
