# generated using pymatgen
data_Li2CoO3
_symmetry_space_group_name_H-M   'P 1'
_cell_length_a   5.12095690
_cell_length_b   6.07269382
_cell_length_c   6.18425512
_cell_angle_alpha   60.59497070
_cell_angle_beta   71.62368774
_cell_angle_gamma   90.00000000
_symmetry_Int_Tables_number   1
_chemical_formula_structural   Li2CoO3
_chemical_formula_sum   'Li4 Co2 O6'
_cell_volume   156.18679002
_cell_formula_units_Z   2
loop_
 _symmetry_equiv_pos_site_id
 _symmetry_equiv_pos_as_xyz
  1  'x, y, z'
loop_
 _atom_site_type_symbol
 _atom_site_label
 _atom_site_symmetry_multiplicity
 _atom_site_fract_x
 _atom_site_fract_y
 _atom_site_fract_z
 _atom_site_occupancy
  Li  Li0  1  0.99999994  0.50000001  0.50000003  1
  Li  Li1  1  0.49999998  0.00000000  0.50000001  1
  Li  Li2  1  0.24999999  0.14967700  0.00000001  1
  Li  Li3  1  0.74999995  0.85032302  0.00000002  1
  Co  Co4  1  0.17377897  0.99158602  0.79792902  1
  O  O5  1  0.18730498  0.45716001  0.75060301  1
  O  O6  1  0.67377896  0.21048501  0.79792902  1
  Co  Co7  1  0.68730495  0.79223702  0.75060303  1
  O  O8  1  0.81269495  0.54284001  0.24939702  1
  O  O9  1  0.82622096  0.00841400  0.20207102  1
  O  O10  1  0.31269498  0.20776301  0.24939701  1
  O  O11  1  0.32622097  0.78951502  0.20207101  1
