# generated using pymatgen
data_CsBaOs5Br2NCl8
_symmetry_space_group_name_H-M   'P 1'
_cell_length_a   6.55965996
_cell_length_b   8.27064228
_cell_length_c   8.27064133
_cell_angle_alpha   120.00000000
_cell_angle_beta   90.00000000
_cell_angle_gamma   90.00000000
_symmetry_Int_Tables_number   1
_chemical_formula_structural   CsBaOs5Br2NCl8
_chemical_formula_sum   'Cs1 Ba1 Os5 Br2 N1 Cl8'
_cell_volume   388.58889293
_cell_formula_units_Z   1
loop_
 _symmetry_equiv_pos_site_id
 _symmetry_equiv_pos_as_xyz
  1  'x, y, z'
loop_
 _atom_site_type_symbol
 _atom_site_label
 _atom_site_symmetry_multiplicity
 _atom_site_fract_x
 _atom_site_fract_y
 _atom_site_fract_z
 _atom_site_occupancy
  Ba  Ba0  1  0.50000000  0.66666662  0.33333327  1
  Cs  Cs1  1  0.50000000  0.33333331  0.66666662  1
  Cl  Cl2  1  -0.00000000  0.33333331  0.66666662  1
  Br  Br3  1  -0.00000000  0.66666662  0.33333327  1
  Cl  Cl4  1  0.75000000  0.00000000  0.75106998  1
  Cl  Cl5  1  0.75000000  0.75106995  -0.00000006  1
  Cl  Cl6  1  0.75000000  0.24892998  0.24892997  1
  Cl  Cl7  1  0.25000000  0.00000000  0.24892999  1
  Cl  Cl8  1  0.25000000  0.24892998  0.99999995  1
  Cl  Cl9  1  0.25000000  0.75106995  0.75106992  1
  Os  Os10  1  0.75000000  0.00000000  0.39091099  1
  Os  Os11  1  0.75000000  0.39091097  -0.00000003  1
  Os  Os12  1  0.75000000  0.60908896  0.60908894  1
  Os  Os13  1  0.25000000  0.00000000  0.60908898  1
  N  N14  1  0.25000000  0.60908896  0.99999992  1
  Os  Os15  1  0.25000000  0.39091097  0.39091096  1
  Cl  Cl16  1  0.50000000  0.00000000  -0.00000000  1
  Br  Br17  1  0.00000000  0.00000000  0.00000000  1
