# generated using pymatgen
data_ReGe3BOs11N4
_symmetry_space_group_name_H-M   'P 1'
_cell_length_a   5.65095806
_cell_length_b   5.65095806
_cell_length_c   8.94389534
_cell_angle_alpha   90.00000000
_cell_angle_beta   90.00000000
_cell_angle_gamma   90.00000000
_symmetry_Int_Tables_number   1
_chemical_formula_structural   ReGe3BOs11N4
_chemical_formula_sum   'Re1 Ge3 B1 Os11 N4'
_cell_volume   285.60833463
_cell_formula_units_Z   1
loop_
 _symmetry_equiv_pos_site_id
 _symmetry_equiv_pos_as_xyz
  1  'x, y, z'
loop_
 _atom_site_type_symbol
 _atom_site_label
 _atom_site_symmetry_multiplicity
 _atom_site_fract_x
 _atom_site_fract_y
 _atom_site_fract_z
 _atom_site_occupancy
  Ge  Ge0  1  0.83152699  0.83152699  0.74999997  1
  Re  Re1  1  0.83152699  0.16847300  0.24999999  1
  B  B2  1  0.16847300  0.83152699  0.24999999  1
  Ge  Ge3  1  0.16847300  0.16847300  0.74999997  1
  Ge  Ge4  1  0.20604600  0.64402799  0.59075898  1
  Os  Os5  1  0.79395399  0.35597200  0.59075898  1
  Os  Os6  1  0.64402799  0.79395399  0.40924098  1
  Os  Os7  1  0.35597200  0.20604600  0.40924098  1
  Os  Os8  1  0.20604600  0.35597200  0.09075900  1
  Os  Os9  1  0.35597200  0.79395399  0.90924097  1
  Os  Os10  1  0.64402799  0.20604600  0.90924097  1
  Os  Os11  1  0.79395399  0.64402799  0.09075900  1
  Os  Os12  1  0.00000000  0.00000000  0.49999998  1
  Os  Os13  1  0.00000000  0.00000000  0.00000000  1
  Os  Os14  1  0.49999999  0.49999999  0.74999997  1
  N  N15  1  0.49999999  0.49999999  0.24999999  1
  Os  Os16  1  0.00000000  0.49999999  0.87186097  1
  N  N17  1  0.49999999  0.00000000  0.12813900  1
  N  N18  1  0.49999999  0.00000000  0.62813898  1
  N  N19  1  0.00000000  0.49999999  0.37186099  1
