# generated using pymatgen
data_ErLu3(ZnS4)2
_symmetry_space_group_name_H-M   'P 1'
_cell_length_a   7.80102396
_cell_length_b   7.80102396
_cell_length_c   7.80102396
_cell_angle_alpha   60.00000000
_cell_angle_beta   60.00000000
_cell_angle_gamma   60.00000000
_symmetry_Int_Tables_number   1
_chemical_formula_structural   ErLu3(ZnS4)2
_chemical_formula_sum   'Er1 Lu3 Zn2 S8'
_cell_volume   335.69110802
_cell_formula_units_Z   1
loop_
 _symmetry_equiv_pos_site_id
 _symmetry_equiv_pos_as_xyz
  1  'x, y, z'
loop_
 _atom_site_type_symbol
 _atom_site_label
 _atom_site_symmetry_multiplicity
 _atom_site_fract_x
 _atom_site_fract_y
 _atom_site_fract_z
 _atom_site_occupancy
  Er  Er0  1  0.37500000  0.37500000  0.87500001  1
  Lu  Lu1  1  0.37500000  0.37500000  0.37500000  1
  Lu  Lu2  1  0.37500000  0.87500001  0.37500000  1
  Lu  Lu3  1  0.87500001  0.37500000  0.37500000  1
  Zn  Zn4  1  0.75000001  0.75000001  0.75000001  1
  Zn  Zn5  1  0.00000000  0.00000000  0.00000000  1
  S  S6  1  0.62348701  0.62348801  0.12953700  1
  S  S7  1  0.62348701  0.62348801  0.62348801  1
  S  S8  1  0.62348701  0.12953700  0.62348801  1
  S  S9  1  0.12953600  0.62348801  0.62348801  1
  S  S10  1  0.12651300  0.12651200  0.62046301  1
  S  S11  1  0.12651300  0.12651200  0.12651200  1
  S  S12  1  0.12651300  0.62046301  0.12651200  1
  S  S13  1  0.62046401  0.12651200  0.12651200  1
