# generated using pymatgen
data_KTlO
_symmetry_space_group_name_H-M   'P 1'
_cell_length_a   4.24145699
_cell_length_b   4.26353073
_cell_length_c   7.67964888
_cell_angle_alpha   89.14850616
_cell_angle_beta   89.59711456
_cell_angle_gamma   68.38104248
_symmetry_Int_Tables_number   1
_chemical_formula_structural   KTlO
_chemical_formula_sum   'K2 Tl2 O2'
_cell_volume   129.09187149
_cell_formula_units_Z   2
loop_
 _symmetry_equiv_pos_site_id
 _symmetry_equiv_pos_as_xyz
  1  'x, y, z'
loop_
 _atom_site_type_symbol
 _atom_site_label
 _atom_site_symmetry_multiplicity
 _atom_site_fract_x
 _atom_site_fract_y
 _atom_site_fract_z
 _atom_site_occupancy
  Tl  Tl0  1  0.76346103  0.72058498  0.73928998  1
  K  K1  1  0.36951701  0.32135299  0.97110199  1
  Tl  Tl2  1  0.15425301  0.11919500  0.50659299  1
  K  K3  1  0.75515303  0.71446498  0.23819099  1
  O  O4  1  0.54336102  0.51098099  0.49255499  1
  O  O5  1  0.97675504  0.92591998  0.98977098  1
