# generated using pymatgen
data_LiCoO3
_symmetry_space_group_name_H-M   'P 1'
_cell_length_a   5.69472122
_cell_length_b   5.99331522
_cell_length_c   6.75002670
_cell_angle_alpha   72.55740356
_cell_angle_beta   76.46935272
_cell_angle_gamma   87.84687805
_symmetry_Int_Tables_number   1
_chemical_formula_structural   LiCoO3
_chemical_formula_sum   'Li4 Co4 O12'
_cell_volume   213.55485393
_cell_formula_units_Z   4
loop_
 _symmetry_equiv_pos_site_id
 _symmetry_equiv_pos_as_xyz
  1  'x, y, z'
loop_
 _atom_site_type_symbol
 _atom_site_label
 _atom_site_symmetry_multiplicity
 _atom_site_fract_x
 _atom_site_fract_y
 _atom_site_fract_z
 _atom_site_occupancy
  Li  Li0  1  0.80316496  0.30621401  0.68968097  1
  Li  Li1  1  0.19683498  0.69378603  0.31031896  1
  Li  Li2  1  -0.00000001  0.50000002  -0.00000003  1
  Li  Li3  1  0.66894597  0.15939201  0.32909599  1
  Co  Co4  1  0.33105397  0.84060803  0.67090395  1
  Co  Co5  1  0.49999997  0.50000002  -0.00000002  1
  Co  Co6  1  0.16709399  0.16564801  0.33313599  1
  Co  Co7  1  0.83290595  0.83435203  0.66686395  1
  O  O8  1  0.75124496  0.27957301  0.01549899  1
  O  O9  1  0.25495298  0.28223101  0.02732599  1
  O  O10  1  0.91526496  0.38761101  0.31061798  1
  O  O11  1  0.58809298  0.06333200  0.63624099  1
  O  O12  1  0.41636998  0.38949001  0.30327098  1
  O  O13  1  0.07771200  0.06009700  0.64053398  1
  O  O14  1  0.92228794  0.93990303  0.35946595  1
  O  O15  1  0.58362996  0.61051002  0.69672896  1
  O  O16  1  0.41190696  0.93666803  0.36375895  1
  O  O17  1  0.08473498  0.61238902  0.68938196  1
  O  O18  1  0.74504696  0.71776903  0.97267395  1
  O  O19  1  0.24875497  0.72042703  0.98450094  1
