# generated using pymatgen
data_YO
_symmetry_space_group_name_H-M   'P 1'
_cell_length_a   3.82490897
_cell_length_b   6.11956978
_cell_length_c   14.44988537
_cell_angle_alpha   90.00000000
_cell_angle_beta   90.00000000
_cell_angle_gamma   90.00000000
_symmetry_Int_Tables_number   1
_chemical_formula_structural   YO
_chemical_formula_sum   'Y8 O8'
_cell_volume   338.22553853
_cell_formula_units_Z   8
loop_
 _symmetry_equiv_pos_site_id
 _symmetry_equiv_pos_as_xyz
  1  'x, y, z'
loop_
 _atom_site_type_symbol
 _atom_site_label
 _atom_site_symmetry_multiplicity
 _atom_site_fract_x
 _atom_site_fract_y
 _atom_site_fract_z
 _atom_site_occupancy
  Y  Y0  1  0.25000000  0.74885203  0.32808399  1
  Y  Y1  1  0.25000000  0.24885201  0.17191600  1
  Y  Y2  1  0.75000001  0.25114801  0.67191598  1
  Y  Y3  1  0.75000001  0.75114803  0.82808398  1
  Y  Y4  1  0.25000000  0.22927801  0.93800398  1
  Y  Y5  1  0.75000001  0.77072203  0.06199600  1
  Y  Y6  1  0.25000000  0.72927803  0.56199599  1
  Y  Y7  1  0.75000001  0.27072201  0.43800399  1
  O  O8  1  0.25000000  0.62677202  0.90317098  1
  O  O9  1  0.75000001  0.37322801  0.09682900  1
  O  O10  1  0.25000000  0.12677200  0.59682898  1
  O  O11  1  0.75000001  0.87322803  0.40317099  1
  O  O12  1  0.75000001  0.12606100  0.82265998  1
  O  O13  1  0.25000000  0.37393901  0.32265999  1
  O  O14  1  0.75000001  0.62606102  0.67733998  1
  O  O15  1  0.25000000  0.87393903  0.17734000  1
