# generated using pymatgen
data_Ho3Lu(CuS2)4
_symmetry_space_group_name_H-M   'P 1'
_cell_length_a   4.03337002
_cell_length_b   6.77933502
_cell_length_c   13.32838631
_cell_angle_alpha   90.00000000
_cell_angle_beta   90.00000000
_cell_angle_gamma   90.00000000
_symmetry_Int_Tables_number   1
_chemical_formula_structural   Ho3Lu(CuS2)4
_chemical_formula_sum   'Ho3 Lu1 Cu4 S8'
_cell_volume   364.44561891
_cell_formula_units_Z   1
loop_
 _symmetry_equiv_pos_site_id
 _symmetry_equiv_pos_as_xyz
  1  'x, y, z'
loop_
 _atom_site_type_symbol
 _atom_site_label
 _atom_site_symmetry_multiplicity
 _atom_site_fract_x
 _atom_site_fract_y
 _atom_site_fract_z
 _atom_site_occupancy
  Ho  Ho0  1  0.27415900  0.71017800  0.62881999  1
  Ho  Ho1  1  0.77415900  0.78982200  0.37117999  1
  Ho  Ho2  1  0.72584100  0.21017800  0.87117998  1
  Lu  Lu3  1  0.22584100  0.28982200  0.12882000  1
  Cu  Cu4  1  0.50177100  0.70521300  0.87640598  1
  Cu  Cu5  1  0.00177100  0.79478700  0.12359400  1
  Cu  Cu6  1  0.49822900  0.20521300  0.62359399  1
  Cu  Cu7  1  0.99822900  0.29478700  0.37640599  1
  S  S8  1  0.78106200  0.91051100  0.72655098  1
  S  S9  1  0.28106200  0.58948900  0.27344899  1
  S  S10  1  0.21893800  0.41051100  0.77344898  1
  S  S11  1  0.71893800  0.08948900  0.22655099  1
  S  S12  1  0.76851300  0.52574900  0.52873699  1
  S  S13  1  0.26851300  0.97425100  0.47126299  1
  S  S14  1  0.23148700  0.02574900  0.97126298  1
  S  S15  1  0.73148700  0.47425100  0.02873700  1
