# generated using pymatgen
data_Li8CoO10
_symmetry_space_group_name_H-M   'P 1'
_cell_length_a   4.96382093
_cell_length_b   5.67396736
_cell_length_c   7.53654623
_cell_angle_alpha   74.36151123
_cell_angle_beta   74.22585297
_cell_angle_gamma   64.76761627
_symmetry_Int_Tables_number   1
_chemical_formula_structural   Li8CoO10
_chemical_formula_sum   'Li8 Co1 O10'
_cell_volume   181.87742598
_cell_formula_units_Z   1
loop_
 _symmetry_equiv_pos_site_id
 _symmetry_equiv_pos_as_xyz
  1  'x, y, z'
loop_
 _atom_site_type_symbol
 _atom_site_label
 _atom_site_symmetry_multiplicity
 _atom_site_fract_x
 _atom_site_fract_y
 _atom_site_fract_z
 _atom_site_occupancy
  Li  Li0  1  0.03844499  0.44319101  0.75652101  1
  Li  Li1  1  0.47237000  0.44976801  0.95372300  1
  Li  Li2  1  0.93944801  0.54784201  0.23953798  1
  Li  Li3  1  0.36267099  0.55206501  0.43956200  1
  Li  Li4  1  0.99951103  0.00269200  0.00255597  1
  Li  Li5  1  0.59526302  0.00263800  0.80412299  1
  Li  Li6  1  0.79993099  0.99764002  0.39946599  1
  Li  Li7  1  0.20538897  0.99649202  0.59848301  1
  Co  Co8  1  0.39877601  0.00008300  0.19803699  1
  O  O9  1  0.42439200  0.20511700  0.58805500  1
  O  O10  1  0.82324502  0.20841400  0.79423699  1
  O  O11  1  0.22713800  0.22679700  0.98829301  1
  O  O12  1  0.98268600  0.79072701  0.60951898  1
  O  O13  1  0.62144901  0.20098400  0.18812298  1
  O  O14  1  0.35869398  0.80728501  0.82124201  1
  O  O15  1  0.06102600  0.18657500  0.36971701  1
  O  O16  1  0.73481299  0.80666401  0.03212998  1
  O  O17  1  0.17461298  0.79105801  0.21217700  1
  O  O18  1  0.57984899  0.78396901  0.40459699  1
