# generated using pymatgen
data_BaLaClO2
_symmetry_space_group_name_H-M   'P 1'
_cell_length_a   5.78392982
_cell_length_b   5.99401617
_cell_length_c   7.33603525
_cell_angle_alpha   65.88732910
_cell_angle_beta   90.00000000
_cell_angle_gamma   90.00000000
_symmetry_Int_Tables_number   1
_chemical_formula_structural   BaLaClO2
_chemical_formula_sum   'Ba2 La2 Cl2 O4'
_cell_volume   232.14067974
_cell_formula_units_Z   2
loop_
 _symmetry_equiv_pos_site_id
 _symmetry_equiv_pos_as_xyz
  1  'x, y, z'
loop_
 _atom_site_type_symbol
 _atom_site_label
 _atom_site_symmetry_multiplicity
 _atom_site_fract_x
 _atom_site_fract_y
 _atom_site_fract_z
 _atom_site_occupancy
  Ba  Ba0  1  0.25000001  0.61744296  0.76511405  1
  Ba  Ba1  1  0.75000002  0.38255698  0.23488603  1
  La  La2  1  0.25000001  0.92593195  0.14813606  1
  La  La3  1  0.75000002  0.07406800  0.85186402  1
  Cl  Cl4  1  0.25000001  0.25414199  0.49171602  1
  Cl  Cl5  1  0.75000002  0.74585796  0.50828405  1
  O  O6  1  0.50000002  0.22762599  1.00000003  1
  O  O7  1  0.50000002  0.77237396  0.00000004  1
  O  O8  1  1.00000003  0.22762599  1.00000003  1
  O  O9  1  -0.00000000  0.77237396  0.00000004  1
