# generated using pymatgen
data_TlAgS2
_symmetry_space_group_name_H-M   'P 1'
_cell_length_a   4.01476908
_cell_length_b   9.58112812
_cell_length_c   10.36151314
_cell_angle_alpha   92.52751923
_cell_angle_beta   90.00000000
_cell_angle_gamma   90.00000000
_symmetry_Int_Tables_number   1
_chemical_formula_structural   TlAgS2
_chemical_formula_sum   'Tl3 Ag3 S6'
_cell_volume   398.17839679
_cell_formula_units_Z   3
loop_
 _symmetry_equiv_pos_site_id
 _symmetry_equiv_pos_as_xyz
  1  'x, y, z'
loop_
 _atom_site_type_symbol
 _atom_site_label
 _atom_site_symmetry_multiplicity
 _atom_site_fract_x
 _atom_site_fract_y
 _atom_site_fract_z
 _atom_site_occupancy
  Tl  Tl0  1  0.88303698  0.35555800  0.86540799  1
  Tl  Tl1  1  0.11696300  0.64444199  0.13459198  1
  Ag  Ag2  1  0.61696299  0.85555799  0.36540798  1
  Tl  Tl3  1  0.38303699  0.14444200  0.63459200  1
  Ag  Ag4  1  0.92782398  0.10588400  0.80260000  1
  Ag  Ag5  1  0.57217599  0.60588399  0.30259998  1
  S  S6  1  0.42782399  0.39411599  0.69739999  1
  S  S7  1  0.07217600  0.89411599  0.19739998  1
  S  S8  1  0.54927299  0.70577999  0.92692298  1
  S  S9  1  0.95072698  0.20578000  0.42692300  1
  S  S10  1  0.04927300  0.79421999  0.57307698  1
  S  S11  1  0.45072699  0.29422000  0.07307699  1
