# generated using pymatgen
data_Ge2Bi5O3
_symmetry_space_group_name_H-M   'P 1'
_cell_length_a   7.21827793
_cell_length_b   7.26434898
_cell_length_c   7.21827793
_cell_angle_alpha   119.79042816
_cell_angle_beta   90.00000000
_cell_angle_gamma   119.79042816
_symmetry_Int_Tables_number   1
_chemical_formula_structural   Ge2Bi5O3
_chemical_formula_sum   'Ge2 Bi5 O3'
_cell_volume   269.32536944
_cell_formula_units_Z   1
loop_
 _symmetry_equiv_pos_site_id
 _symmetry_equiv_pos_as_xyz
  1  'x, y, z'
loop_
 _atom_site_type_symbol
 _atom_site_label
 _atom_site_symmetry_multiplicity
 _atom_site_fract_x
 _atom_site_fract_y
 _atom_site_fract_z
 _atom_site_occupancy
  Ge  Ge0  1  0.83927202  0.67854399  0.56137002  1
  Bi  Bi1  1  0.81137001  0.17854400  0.58927201  1
  Bi  Bi2  1  0.83927202  0.67854399  0.11717401  1
  Bi  Bi3  1  0.36717401  0.17854400  0.58927201  1
  Bi  Bi4  1  0.24744101  0.49488200  0.74744101  1
  Ge  Ge5  1  0.99744102  0.99488199  0.99744102  1
  Bi  Bi6  1  0.62699302  0.73241499  0.36620701  1
  O  O7  1  0.61620801  0.23241600  0.37699401  1
  O  O8  1  0.61620801  0.23241500  0.85542201  1
  O  O9  1  0.10542201  0.73241599  0.36620801  1
