# generated using pymatgen
data_LaSc5ZnCrO12
_symmetry_space_group_name_H-M   'P 1'
_cell_length_a   5.73933220
_cell_length_b   7.28411293
_cell_length_c   7.28411293
_cell_angle_alpha   104.70621490
_cell_angle_beta   90.00000000
_cell_angle_gamma   90.00000000
_symmetry_Int_Tables_number   1
_chemical_formula_structural   LaSc5ZnCrO12
_chemical_formula_sum   'La1 Sc5 Zn1 Cr1 O12'
_cell_volume   294.54323442
_cell_formula_units_Z   1
loop_
 _symmetry_equiv_pos_site_id
 _symmetry_equiv_pos_as_xyz
  1  'x, y, z'
loop_
 _atom_site_type_symbol
 _atom_site_label
 _atom_site_symmetry_multiplicity
 _atom_site_fract_x
 _atom_site_fract_y
 _atom_site_fract_z
 _atom_site_occupancy
  La  La0  1  0.51891998  0.16442200  0.83557800  1
  Cr  Cr1  1  0.01892000  0.83557800  0.16442198  1
  Sc  Sc2  1  0.01725700  0.32003600  0.09235499  1
  Sc  Sc3  1  0.51725698  0.67996400  0.90764499  1
  Zn  Zn4  1  0.51725698  0.09235500  0.32003600  1
  Sc  Sc5  1  0.01725700  0.90764500  0.67996398  1
  Sc  Sc6  1  0.02307900  0.40514300  0.59485699  1
  Sc  Sc7  1  0.52307898  0.59485700  0.40514299  1
  O  O8  1  0.37570699  0.37895200  0.93828200  1
  O  O9  1  0.87570697  0.62104800  0.06171798  1
  O  O10  1  0.87570697  0.93828200  0.37895198  1
  O  O11  1  0.37570699  0.06171800  0.62104800  1
  O  O12  1  0.27172399  0.34760900  0.34345799  1
  O  O13  1  0.77172397  0.65239100  0.65654199  1
  O  O14  1  0.77172397  0.34345800  0.34760899  1
  O  O15  1  0.27172399  0.65654200  0.65239099  1
  O  O16  1  0.81579597  0.20636700  0.79363300  1
  O  O17  1  0.31579599  0.79363300  0.20636698  1
  O  O18  1  0.52283098  0.01516600  0.98483401  1
  O  O19  1  0.02283100  0.98483400  0.01516597  1
