# generated using pymatgen
data_LiYO2
_symmetry_space_group_name_H-M   'P 1'
_cell_length_a   6.21057892
_cell_length_b   6.58129072
_cell_length_c   6.62000179
_cell_angle_alpha   118.14282227
_cell_angle_beta   90.00000000
_cell_angle_gamma   90.00000000
_symmetry_Int_Tables_number   1
_chemical_formula_structural   LiYO2
_chemical_formula_sum   'Li4 Y4 O8'
_cell_volume   238.59363151
_cell_formula_units_Z   4
loop_
 _symmetry_equiv_pos_site_id
 _symmetry_equiv_pos_as_xyz
  1  'x, y, z'
loop_
 _atom_site_type_symbol
 _atom_site_label
 _atom_site_symmetry_multiplicity
 _atom_site_fract_x
 _atom_site_fract_y
 _atom_site_fract_z
 _atom_site_occupancy
  Li  Li0  1  0.83606101  0.59112301  0.27903603  1
  Li  Li1  1  0.33606100  0.90887701  0.22096405  1
  Li  Li2  1  0.66393901  0.09112300  0.77903603  1
  Li  Li3  1  0.16393900  0.40887700  0.72096404  1
  Y  Y4  1  0.13446300  0.96422001  0.74101807  1
  Y  Y5  1  0.36553700  0.46422001  0.24101803  1
  Y  Y6  1  0.63446301  0.53578001  0.75898205  1
  Y  Y7  1  0.86553701  0.03578000  0.25898201  1
  O  O8  1  0.80785101  0.88107001  0.85335306  1
  O  O9  1  0.69214901  0.38107000  0.35335303  1
  O  O10  1  0.10455400  0.76349901  0.31652804  1
  O  O11  1  0.60455401  0.73650101  0.18347204  1
  O  O12  1  0.39544601  0.26349900  0.81652804  1
  O  O13  1  0.89544601  0.23650100  0.68347203  1
  O  O14  1  0.30785100  0.61893001  0.64664705  1
  O  O15  1  0.19214900  0.11893000  0.14664701  1
