# generated using pymatgen
data_LiTiCoO6
_symmetry_space_group_name_H-M   'P 1'
_cell_length_a   5.61968803
_cell_length_b   5.61968803
_cell_length_c   8.96293545
_cell_angle_alpha   108.27004242
_cell_angle_beta   108.27004242
_cell_angle_gamma   90.00000000
_symmetry_Int_Tables_number   1
_chemical_formula_structural   LiTiCoO6
_chemical_formula_sum   'Li2 Ti2 Co2 O12'
_cell_volume   253.71815700
_cell_formula_units_Z   2
loop_
 _symmetry_equiv_pos_site_id
 _symmetry_equiv_pos_as_xyz
  1  'x, y, z'
loop_
 _atom_site_type_symbol
 _atom_site_label
 _atom_site_symmetry_multiplicity
 _atom_site_fract_x
 _atom_site_fract_y
 _atom_site_fract_z
 _atom_site_occupancy
  Li  Li0  1  0.00000000  0.00000000  0.00000000  1
  Li  Li1  1  0.50000001  0.50000000  0.00000002  1
  Ti  Ti2  1  0.62915701  0.12915700  0.25831400  1
  Ti  Ti3  1  0.12915702  0.62915700  0.25831401  1
  Co  Co4  1  0.87084301  0.37084300  0.74168599  1
  Co  Co5  1  0.37084302  0.87084301  0.74168600  1
  O  O6  1  0.37023101  0.37023100  0.22883001  1
  O  O7  1  0.85859902  0.85859901  0.22883003  1
  O  O8  1  0.62976902  0.62976900  0.77117000  1
  O  O9  1  0.14140100  0.14140100  0.77116997  1
  O  O10  1  0.85859901  0.37023100  0.22883002  1
  O  O11  1  0.37023102  0.85859901  0.22883002  1
  O  O12  1  0.14140102  0.62976900  0.77116999  1
  O  O13  1  0.62976901  0.14140100  0.77116998  1
  O  O14  1  0.50000003  1.00000001  0.99999999  1
  O  O15  1  0.00000001  0.50000000  0.00000001  1
  O  O16  1  0.75000001  0.25000000  0.50000000  1
  O  O17  1  0.25000002  0.75000001  0.50000000  1
