# generated using pymatgen
data_K4SnO3
_symmetry_space_group_name_H-M   'P 1'
_cell_length_a   6.81622601
_cell_length_b   6.89818811
_cell_length_c   10.52266312
_cell_angle_alpha   83.33569336
_cell_angle_beta   71.10207367
_cell_angle_gamma   69.00328827
_symmetry_Int_Tables_number   1
_chemical_formula_structural   K4SnO3
_chemical_formula_sum   'K8 Sn2 O6'
_cell_volume   437.02037902
_cell_formula_units_Z   2
loop_
 _symmetry_equiv_pos_site_id
 _symmetry_equiv_pos_as_xyz
  1  'x, y, z'
loop_
 _atom_site_type_symbol
 _atom_site_label
 _atom_site_symmetry_multiplicity
 _atom_site_fract_x
 _atom_site_fract_y
 _atom_site_fract_z
 _atom_site_occupancy
  K  K0  1  0.68703904  0.79510397  0.69585696  1
  K  K1  1  0.47433303  0.74474797  0.07603297  1
  K  K2  1  0.05211603  0.76219697  0.90865698  1
  K  K3  1  0.24595603  0.76553097  0.49290797  1
  K  K4  1  0.38289602  0.29510399  0.30414298  1
  K  K5  1  0.55036602  0.24474799  0.92396697  1
  K  K6  1  0.96077303  0.26219699  0.09134296  1
  K  K7  1  0.73886402  0.26553099  0.50709196  1
  Sn  Sn8  1  0.83677804  0.74530697  0.27516295  1
  Sn  Sn9  1  0.11194101  0.24530699  0.72483699  1
  O  O10  1  0.70458005  0.96423896  0.14446696  1
  O  O11  1  0.64381703  0.55669698  0.30790996  1
  O  O12  1  0.84904703  0.46423898  0.85553296  1
  O  O13  1  0.95172702  0.05669700  0.69208996  1
  O  O14  1  0.13530902  0.55886298  0.15077598  1
  O  O15  1  0.28608501  0.05886300  0.84922398  1
