# generated using pymatgen
data_Li4Co3BNO3
_symmetry_space_group_name_H-M   'P 1'
_cell_length_a   4.00873804
_cell_length_b   6.69418764
_cell_length_c   6.83714914
_cell_angle_alpha   105.58624268
_cell_angle_beta   90.00000000
_cell_angle_gamma   107.42272949
_symmetry_Int_Tables_number   1
_chemical_formula_structural   Li4Co3BNO3
_chemical_formula_sum   'Li4 Co3 B1 N1 O3'
_cell_volume   167.97423126
_cell_formula_units_Z   1
loop_
 _symmetry_equiv_pos_site_id
 _symmetry_equiv_pos_as_xyz
  1  'x, y, z'
loop_
 _atom_site_type_symbol
 _atom_site_label
 _atom_site_symmetry_multiplicity
 _atom_site_fract_x
 _atom_site_fract_y
 _atom_site_fract_z
 _atom_site_occupancy
  Li  Li0  1  0.10419100  0.20838199  0.71297100  1
  Li  Li1  1  0.20850100  0.41700199  0.29352699  1
  Li  Li2  1  0.79149900  0.58299798  0.70647299  1
  Li  Li3  1  0.89580900  0.79161797  0.28702898  1
  Co  Co4  1  0.63902000  0.27803999  0.73018800  1
  Co  Co5  1  0.25928800  0.51857598  0.64240299  1
  B  B6  1  0.74071200  0.48142398  0.35759699  1
  Co  Co7  1  0.36098000  0.72195997  0.26981198  1
  O  O8  1  0.05690000  0.11380000  0.37606500  1
  O  O9  1  0.12827200  0.25654399  0.00897799  1
  N  N10  1  0.87172800  0.74345597  0.99102199  1
  O  O11  1  0.94310000  0.88619997  0.62393498  1
