# generated using pymatgen
data_Li3Fe3OF11
_symmetry_space_group_name_H-M   'P 1'
_cell_length_a   4.71811390
_cell_length_b   4.71811390
_cell_length_c   9.04728794
_cell_angle_alpha   90.00000000
_cell_angle_beta   90.00000000
_cell_angle_gamma   90.00000000
_symmetry_Int_Tables_number   1
_chemical_formula_structural   Li3Fe3OF11
_chemical_formula_sum   'Li3 Fe3 O1 F11'
_cell_volume   201.39804678
_cell_formula_units_Z   1
loop_
 _symmetry_equiv_pos_site_id
 _symmetry_equiv_pos_as_xyz
  1  'x, y, z'
loop_
 _atom_site_type_symbol
 _atom_site_label
 _atom_site_symmetry_multiplicity
 _atom_site_fract_x
 _atom_site_fract_y
 _atom_site_fract_z
 _atom_site_occupancy
  Li  Li0  1  0.50000001  0.50000001  0.49686300  1
  Li  Li1  1  0.00000000  0.00000000  0.99686301  1
  Li  Li2  1  0.50000001  0.50000001  0.16657600  1
  Fe  Fe3  1  0.00000000  0.00000000  0.66657600  1
  Fe  Fe4  1  0.50000001  0.50000001  0.83238101  1
  Fe  Fe5  1  0.00000000  0.00000000  0.33238100  1
  O  O6  1  0.19016700  0.80983302  0.16398600  1
  F  F7  1  0.19364200  0.80635802  0.50164600  1
  F  F8  1  0.19283100  0.80716902  0.83645801  1
  F  F9  1  0.80983302  0.19016700  0.16398600  1
  F  F10  1  0.80635802  0.19364200  0.50164600  1
  F  F11  1  0.80716902  0.19283100  0.83645801  1
  F  F12  1  0.30635801  0.30635801  0.00164600  1
  F  F13  1  0.30716901  0.30716901  0.33645800  1
  F  F14  1  0.30983301  0.30983301  0.66398600  1
  F  F15  1  0.69364201  0.69364201  0.00164600  1
  F  F16  1  0.69283101  0.69283101  0.33645800  1
  F  F17  1  0.69016701  0.69016701  0.66398600  1
