# generated using pymatgen
data_LaCoO3
_symmetry_space_group_name_H-M   'P 1'
_cell_length_a   5.44665003
_cell_length_b   5.74671888
_cell_length_c   7.72916412
_cell_angle_alpha   90.00000000
_cell_angle_beta   90.00000000
_cell_angle_gamma   90.00000000
_symmetry_Int_Tables_number   1
_chemical_formula_structural   LaCoO3
_chemical_formula_sum   'La4 Co4 O12'
_cell_volume   241.92567034
_cell_formula_units_Z   4
loop_
 _symmetry_equiv_pos_site_id
 _symmetry_equiv_pos_as_xyz
  1  'x, y, z'
loop_
 _atom_site_type_symbol
 _atom_site_label
 _atom_site_symmetry_multiplicity
 _atom_site_fract_x
 _atom_site_fract_y
 _atom_site_fract_z
 _atom_site_occupancy
  La  La0  1  0.98151699  0.43532501  0.74999999  1
  La  La1  1  0.01848300  0.56467501  0.25000000  1
  La  La2  1  0.48151700  0.06467500  0.25000000  1
  La  La3  1  0.51848300  0.93532502  0.74999999  1
  Co  Co4  1  0.00000000  0.00000000  0.49999999  1
  Co  Co5  1  0.50000000  0.50000001  0.49999999  1
  Co  Co6  1  0.00000000  0.00000000  0.00000000  1
  Co  Co7  1  0.50000000  0.50000001  -0.00000000  1
  O  O8  1  0.29915900  0.80644002  0.44737899  1
  O  O9  1  0.70084100  0.19356000  0.55262099  1
  O  O10  1  0.79915900  0.69356001  0.55262099  1
  O  O11  1  0.20084100  0.30644001  0.44737899  1
  O  O12  1  0.79915900  0.69356001  0.94737898  1
  O  O13  1  0.20084100  0.30644001  0.05262100  1
  O  O14  1  0.29915900  0.80644002  0.05262100  1
  O  O15  1  0.70084100  0.19356000  0.94737898  1
  O  O16  1  0.89579800  0.96585102  0.25000000  1
  O  O17  1  0.10420200  0.03414900  0.74999999  1
  O  O18  1  0.39579800  0.53414901  0.74999999  1
  O  O19  1  0.60420200  0.46585101  0.25000000  1
