# generated using pymatgen
data_Li7FeS6
_symmetry_space_group_name_H-M   'P 1'
_cell_length_a   7.56575203
_cell_length_b   7.56660080
_cell_length_c   7.56662750
_cell_angle_alpha   60.26177979
_cell_angle_beta   60.27696991
_cell_angle_gamma   60.27793884
_symmetry_Int_Tables_number   1
_chemical_formula_structural   Li7FeS6
_chemical_formula_sum   'Li7 Fe1 S6'
_cell_volume   308.18246931
_cell_formula_units_Z   1
loop_
 _symmetry_equiv_pos_site_id
 _symmetry_equiv_pos_as_xyz
  1  'x, y, z'
loop_
 _atom_site_type_symbol
 _atom_site_label
 _atom_site_symmetry_multiplicity
 _atom_site_fract_x
 _atom_site_fract_y
 _atom_site_fract_z
 _atom_site_occupancy
  Li  Li0  1  0.62485400  0.12484400  0.12485802  1
  Li  Li1  1  0.37513400  0.87514801  0.87513504  1
  Li  Li2  1  0.00005000  0.49998400  0.49995402  1
  Li  Li3  1  0.50000200  0.50001400  0.50001803  1
  Li  Li4  1  0.99996501  0.00001200  0.50003003  1
  Li  Li5  1  0.99998500  0.49999300  0.00002405  1
  S  S6  1  0.22229600  0.26967400  0.26968002  1
  Li  Li7  1  0.23031600  0.27773300  0.73032802  1
  Fe  Fe8  1  0.24308200  0.74312801  0.74311304  1
  S  S9  1  0.23030900  0.73033601  0.27772203  1
  S  S10  1  0.75688900  0.25688700  0.25688703  1
  S  S11  1  0.76968300  0.26966200  0.72226704  1
  S  S12  1  0.77771900  0.73031401  0.73032605  1
  S  S13  1  0.76971300  0.72227201  0.26965505  1
