# generated using pymatgen
data_LiCaO3
_symmetry_space_group_name_H-M   'P 1'
_cell_length_a   5.92380095
_cell_length_b   5.92380095
_cell_length_c   6.04535532
_cell_angle_alpha   60.66294098
_cell_angle_beta   60.66294098
_cell_angle_gamma   60.00001144
_symmetry_Int_Tables_number   1
_chemical_formula_structural   LiCaO3
_chemical_formula_sum   'Li2 Ca2 O6'
_cell_volume   151.49128682
_cell_formula_units_Z   2
loop_
 _symmetry_equiv_pos_site_id
 _symmetry_equiv_pos_as_xyz
  1  'x, y, z'
loop_
 _atom_site_type_symbol
 _atom_site_label
 _atom_site_symmetry_multiplicity
 _atom_site_fract_x
 _atom_site_fract_y
 _atom_site_fract_z
 _atom_site_occupancy
  Li  Li0  1  0.77848101  0.77848101  0.66455703  1
  Li  Li1  1  0.27848100  0.27848100  0.16455701  1
  Ca  Ca2  1  0.99312602  0.99312601  0.02062201  1
  Ca  Ca3  1  0.49312601  0.49312600  0.52062202  1
  O  O4  1  0.13779501  0.92957001  0.35001701  1
  O  O5  1  0.08261800  0.42957000  0.85001703  1
  O  O6  1  0.42957001  0.63779501  0.85001703  1
  O  O7  1  0.92957001  0.58261800  0.35001702  1
  O  O8  1  0.58261801  0.13779500  0.35001701  1
  O  O9  1  0.63779501  0.08261800  0.85001703  1
