# generated using pymatgen
data_CsH7O4
_symmetry_space_group_name_H-M   'P 1'
_cell_length_a   4.22775793
_cell_length_b   6.02474594
_cell_length_c   6.07548714
_cell_angle_alpha   90.00000000
_cell_angle_beta   110.36110687
_cell_angle_gamma   90.00000000
_symmetry_Int_Tables_number   1
_chemical_formula_structural   CsH7O4
_chemical_formula_sum   'Cs1 H7 O4'
_cell_volume   145.08073639
_cell_formula_units_Z   1
loop_
 _symmetry_equiv_pos_site_id
 _symmetry_equiv_pos_as_xyz
  1  'x, y, z'
loop_
 _atom_site_type_symbol
 _atom_site_label
 _atom_site_symmetry_multiplicity
 _atom_site_fract_x
 _atom_site_fract_y
 _atom_site_fract_z
 _atom_site_occupancy
  Cs  Cs0  1  0.15348400  0.77424401  0.30696800  1
  H  H1  1  0.84651602  0.27424400  0.69303202  1
  H  H2  1  0.51197601  0.51180700  0.02395200  1
  H  H3  1  0.48802401  0.01180700  0.97604802  1
  H  H4  1  0.08629500  0.80009801  0.78396501  1
  H  H5  1  0.91370502  0.30009800  0.21603501  1
  H  H6  1  0.30233001  0.30009800  0.21603501  1
  O  O7  1  0.69767001  0.80009801  0.78396502  1
  O  O8  1  0.15940200  0.26440400  0.31880401  1
  H  H9  1  0.53189801  0.35344900  0.06379601  1
  O  O10  1  0.84059802  0.76440401  0.68119602  1
  O  O11  1  0.46810201  0.85344901  0.93620402  1
