# generated using pymatgen
data_LiHoO2
_symmetry_space_group_name_H-M   'P 1'
_cell_length_a   6.15785980
_cell_length_b   6.20707417
_cell_length_c   6.28394651
_cell_angle_alpha   119.54251862
_cell_angle_beta   90.00000000
_cell_angle_gamma   90.00000000
_symmetry_Int_Tables_number   1
_chemical_formula_structural   LiHoO2
_chemical_formula_sum   'Li4 Ho4 O8'
_cell_volume   208.96015850
_cell_formula_units_Z   4
loop_
 _symmetry_equiv_pos_site_id
 _symmetry_equiv_pos_as_xyz
  1  'x, y, z'
loop_
 _atom_site_type_symbol
 _atom_site_label
 _atom_site_symmetry_multiplicity
 _atom_site_fract_x
 _atom_site_fract_y
 _atom_site_fract_z
 _atom_site_occupancy
  Li  Li0  1  0.65459602  0.29087600  0.06336601  1
  Li  Li1  1  0.15459600  0.70912399  0.43663403  1
  Li  Li2  1  0.34540401  0.70912399  0.93663404  1
  Li  Li3  1  0.84540403  0.29087600  0.56336602  1
  Ho  Ho4  1  0.13026800  0.23331800  0.97847202  1
  Ho  Ho5  1  0.36973201  0.23331800  0.47847201  1
  Ho  Ho6  1  0.86973203  0.76668199  0.02152803  1
  Ho  Ho7  1  0.63026802  0.76668199  0.52152803  1
  O  O8  1  0.39077401  0.45271500  0.26467202  1
  O  O9  1  0.17055901  0.99085599  0.15601204  1
  O  O10  1  0.89077403  0.54728500  0.23532802  1
  O  O11  1  0.60922602  0.54728500  0.73532803  1
  O  O12  1  0.82944103  0.00914400  0.84398801  1
  O  O13  1  0.67055902  0.00914400  0.34398800  1
  O  O14  1  0.32944101  0.99085599  0.65601204  1
  O  O15  1  0.10922600  0.45271500  0.76467203  1
