# generated using pymatgen
data_CePuPaHCl3O
_symmetry_space_group_name_H-M   'P 1'
_cell_length_a   4.14045620
_cell_length_b   4.14045525
_cell_length_c   7.21229982
_cell_angle_alpha   90.00000000
_cell_angle_beta   90.00000000
_cell_angle_gamma   120.00000763
_symmetry_Int_Tables_number   1
_chemical_formula_structural   CePuPaHCl3O
_chemical_formula_sum   'Ce1 Pu1 Pa1 H1 Cl3 O1'
_cell_volume   107.07810097
_cell_formula_units_Z   1
loop_
 _symmetry_equiv_pos_site_id
 _symmetry_equiv_pos_as_xyz
  1  'x, y, z'
loop_
 _atom_site_type_symbol
 _atom_site_label
 _atom_site_symmetry_multiplicity
 _atom_site_fract_x
 _atom_site_fract_y
 _atom_site_fract_z
 _atom_site_occupancy
  Ce  Ce0  1  0.33333332  0.66666664  0.25000001  1
  Pu  Pu1  1  0.66666664  0.33333332  0.75000002  1
  Pa  Pa2  1  0.33333332  0.66666664  0.57778801  1
  H  H3  1  0.33333332  0.66666664  0.92221202  1
  O  O4  1  0.00000000  0.00000000  0.75000002  1
  Cl  Cl5  1  0.00000000  0.00000000  0.25000001  1
  Cl  Cl6  1  0.66666664  0.33333332  0.07778800  1
  Cl  Cl7  1  0.66666664  0.33333332  0.42221201  1
