# generated using pymatgen
data_NaLi3(PO4)2
_symmetry_space_group_name_H-M   'P 1'
_cell_length_a   5.08694792
_cell_length_b   5.23388004
_cell_length_c   8.39908695
_cell_angle_alpha   96.27884674
_cell_angle_beta   90.00000000
_cell_angle_gamma   119.07560730
_symmetry_Int_Tables_number   1
_chemical_formula_structural   NaLi3(PO4)2
_chemical_formula_sum   'Na1 Li3 P2 O8'
_cell_volume   193.90407751
_cell_formula_units_Z   1
loop_
 _symmetry_equiv_pos_site_id
 _symmetry_equiv_pos_as_xyz
  1  'x, y, z'
loop_
 _atom_site_type_symbol
 _atom_site_label
 _atom_site_symmetry_multiplicity
 _atom_site_fract_x
 _atom_site_fract_y
 _atom_site_fract_z
 _atom_site_occupancy
  Na  Na0  1  0.10602100  0.00000000  0.99999995  1
  Li  Li1  1  0.71829799  0.28858598  0.63150196  1
  Li  Li2  1  0.42971196  0.71141395  0.36849796  1
  Li  Li3  1  0.77971099  0.33494698  0.26152998  1
  P  P4  1  0.44476397  0.66505296  0.73846994  1
  P  P5  1  0.38994794  0.99999994  0.49999994  1
  O  O6  1  0.93530699  0.40232397  0.43396497  1
  O  O7  1  0.53298297  0.59767596  0.56603495  1
  O  O8  1  0.64340295  0.99835294  0.20068996  1
  O  O9  1  0.64505001  0.00164700  0.79930996  1
  O  O10  1  0.04401397  0.51837697  0.16071697  1
  O  O11  1  0.52563698  0.48162297  0.83928294  1
  O  O12  1  0.11002496  0.58689996  0.75229995  1
  O  O13  1  0.52312498  0.41309997  0.24769997  1
