# generated using pymatgen
data_Li2CuS4
_symmetry_space_group_name_H-M   'P 1'
_cell_length_a   3.58738589
_cell_length_b   6.07903099
_cell_length_c   6.78192806
_cell_angle_alpha   116.19744873
_cell_angle_beta   105.33613586
_cell_angle_gamma   90.00000000
_symmetry_Int_Tables_number   1
_chemical_formula_structural   Li2CuS4
_chemical_formula_sum   'Li2 Cu1 S4'
_cell_volume   126.81067770
_cell_formula_units_Z   1
loop_
 _symmetry_equiv_pos_site_id
 _symmetry_equiv_pos_as_xyz
  1  'x, y, z'
loop_
 _atom_site_type_symbol
 _atom_site_label
 _atom_site_symmetry_multiplicity
 _atom_site_fract_x
 _atom_site_fract_y
 _atom_site_fract_z
 _atom_site_occupancy
  Li  Li0  1  0.24088703  0.21886101  0.48177401  1
  Li  Li1  1  0.75841509  0.77438804  0.51683007  1
  Cu  Cu2  1  0.49872506  0.49047003  0.99745003  1
  S  S3  1  0.61482110  0.93377205  0.22964208  1
  S  S4  1  0.38095502  0.04173000  0.76191000  1
  S  S5  1  0.13897405  0.50173703  0.27794804  1
  S  S6  1  0.86722308  0.53904203  0.73444605  1
