# generated using pymatgen
data_Mo2Se3S
_symmetry_space_group_name_H-M   'P 1'
_cell_length_a   3.29131389
_cell_length_b   3.29131365
_cell_length_c   36.85691452
_cell_angle_alpha   90.00000000
_cell_angle_beta   90.00000000
_cell_angle_gamma   120.00000763
_symmetry_Int_Tables_number   1
_chemical_formula_structural   Mo2Se3S
_chemical_formula_sum   'Mo4 Se6 S2'
_cell_volume   345.77066608
_cell_formula_units_Z   2
loop_
 _symmetry_equiv_pos_site_id
 _symmetry_equiv_pos_as_xyz
  1  'x, y, z'
loop_
 _atom_site_type_symbol
 _atom_site_label
 _atom_site_symmetry_multiplicity
 _atom_site_fract_x
 _atom_site_fract_y
 _atom_site_fract_z
 _atom_site_occupancy
  Mo  Mo0  1  0.00000000  0.00000000  0.90608899  1
  Mo  Mo1  1  0.66666671  0.33333333  0.71819999  1
  Mo  Mo2  1  0.66666671  0.33333333  0.34243200  1
  Mo  Mo3  1  0.00000000  0.00000000  0.53036499  1
  Se  Se4  1  0.00000000  0.00000000  0.29674800  1
  Se  Se5  1  0.66666671  0.33333333  0.95178899  1
  Se  Se6  1  0.66666671  0.33333333  0.57630599  1
  Se  Se7  1  0.66666671  0.33333333  0.86038499  1
  Se  Se8  1  0.66666671  0.33333333  0.48440499  1
  Se  Se9  1  0.00000000  0.00000000  0.38813099  1
  S  S10  1  0.00000000  0.00000000  0.67662399  1
  S  S11  1  0.00000000  0.00000000  0.75977699  1
