# generated using pymatgen
data_Li4CrO5
_symmetry_space_group_name_H-M   'P 1'
_cell_length_a   5.35485983
_cell_length_b   5.35485983
_cell_length_c   5.67726612
_cell_angle_alpha   61.86143875
_cell_angle_beta   61.86143875
_cell_angle_gamma   60.00000381
_symmetry_Int_Tables_number   1
_chemical_formula_structural   Li4CrO5
_chemical_formula_sum   'Li4 Cr1 O5'
_cell_volume   118.24507244
_cell_formula_units_Z   1
loop_
 _symmetry_equiv_pos_site_id
 _symmetry_equiv_pos_as_xyz
  1  'x, y, z'
loop_
 _atom_site_type_symbol
 _atom_site_label
 _atom_site_symmetry_multiplicity
 _atom_site_fract_x
 _atom_site_fract_y
 _atom_site_fract_z
 _atom_site_occupancy
  Li  Li0  1  0.13858400  0.13858400  0.58424801  1
  Li  Li1  1  0.86141598  0.86141598  0.41575205  1
  Li  Li2  1  0.34410699  0.34410699  0.96767902  1
  Li  Li3  1  0.65589298  0.65589298  0.03232104  1
  Cr  Cr4  1  0.75312098  0.43771999  0.75127903  1
  O  O5  1  0.43771999  0.05788000  0.75127901  1
  O  O6  1  0.94211998  0.24687899  0.24872103  1
  O  O7  1  0.05788000  0.75312098  0.75127902  1
  O  O8  1  0.56227999  0.94211998  0.24872104  1
  O  O9  1  0.24687899  0.56227999  0.24872102  1
