# generated using pymatgen
data_Sr2HfWO6
_symmetry_space_group_name_H-M   'P 1'
_cell_length_a   5.67528296
_cell_length_b   5.73651123
_cell_length_c   8.04336929
_cell_angle_alpha   90.09445953
_cell_angle_beta   90.00000000
_cell_angle_gamma   90.00000000
_symmetry_Int_Tables_number   1
_chemical_formula_structural   Sr2HfWO6
_chemical_formula_sum   'Sr4 Hf2 W2 O12'
_cell_volume   261.86218418
_cell_formula_units_Z   2
loop_
 _symmetry_equiv_pos_site_id
 _symmetry_equiv_pos_as_xyz
  1  'x, y, z'
loop_
 _atom_site_type_symbol
 _atom_site_label
 _atom_site_symmetry_multiplicity
 _atom_site_fract_x
 _atom_site_fract_y
 _atom_site_fract_z
 _atom_site_occupancy
  Sr  Sr0  1  0.98710101  0.99660996  0.25003395  1
  Sr  Sr1  1  0.51289900  0.49660998  0.75003395  1
  Sr  Sr2  1  0.01289900  0.00339000  0.74996597  1
  Sr  Sr3  1  0.48710100  0.50338998  0.24996597  1
  Hf  Hf4  1  0.00000000  0.49999998  0.49999996  1
  Hf  Hf5  1  0.50000000  0.00000000  -0.00000000  1
  W  W6  1  0.50000000  0.00000000  0.49999998  1
  W  W7  1  0.00000000  0.49999998  0.99999993  1
  O  O8  1  0.24049400  0.78019697  0.47027095  1
  O  O9  1  0.25950600  0.28019699  0.97027094  1
  O  O10  1  0.75950601  0.21980299  0.52972897  1
  O  O11  1  0.74049401  0.71980297  0.02972897  1
  O  O12  1  0.72060401  0.74196797  0.47003495  1
  O  O13  1  0.77939601  0.24196799  0.97003495  1
  O  O14  1  0.27939600  0.25803199  0.52996497  1
  O  O15  1  0.22060400  0.75803197  0.02996497  1
  O  O16  1  0.50528400  0.05721600  0.26098299  1
  O  O17  1  0.99471601  0.55721598  0.76098294  1
  O  O18  1  0.49471600  0.94278396  0.73901693  1
  O  O19  1  0.00528400  0.44278398  0.23901697  1
