# generated using pymatgen
data_Li4Mn2CoO13
_symmetry_space_group_name_H-M   'P 1'
_cell_length_a   5.27220106
_cell_length_b   5.36776829
_cell_length_c   10.05507851
_cell_angle_alpha   95.35879517
_cell_angle_beta   100.39341736
_cell_angle_gamma   118.91149902
_symmetry_Int_Tables_number   1
_chemical_formula_structural   Li4Mn2CoO13
_chemical_formula_sum   'Li4 Mn2 Co1 O13'
_cell_volume   239.55489971
_cell_formula_units_Z   1
loop_
 _symmetry_equiv_pos_site_id
 _symmetry_equiv_pos_as_xyz
  1  'x, y, z'
loop_
 _atom_site_type_symbol
 _atom_site_label
 _atom_site_symmetry_multiplicity
 _atom_site_fract_x
 _atom_site_fract_y
 _atom_site_fract_z
 _atom_site_occupancy
  Li  Li0  1  0.20187799  0.50076000  0.92977998  1
  Li  Li1  1  0.96837598  0.29355300  0.56727199  1
  Li  Li2  1  0.03849398  0.72679400  0.44345299  1
  Li  Li3  1  0.77782998  0.50004400  0.06717799  1
  Mn  Mn4  1  0.57738597  0.91930099  0.24803198  1
  Mn  Mn5  1  0.24013699  0.26272600  0.25182899  1
  O  O6  1  0.74914297  0.74158100  0.74799198  1
  Co  Co7  1  0.42600199  0.07240700  0.75191199  1
  O  O8  1  0.01945798  0.99002999  0.62126198  1
  O  O9  1  0.83419899  0.12914800  0.85942399  1
  O  O10  1  0.52193698  0.46547500  0.88104298  1
  O  O11  1  0.33675398  0.67937700  0.63010498  1
  O  O12  1  0.67543698  0.35401800  0.63995799  1
  O  O13  1  0.98308798  0.31599600  0.37560199  1
  O  O14  1  0.15990898  0.80835000  0.86211998  1
  O  O15  1  0.17407699  0.53130300  0.11940099  1
  O  O16  1  0.50226999  0.19562700  0.14048099  1
  O  O17  1  0.63947098  0.64854900  0.36042598  1
  O  O18  1  0.32527397  0.98955299  0.36514798  1
  O  O19  1  0.84887997  0.87520799  0.13757998  1
