# generated using pymatgen
data_LiTi2WO6
_symmetry_space_group_name_H-M   'P 1'
_cell_length_a   5.32219648
_cell_length_b   5.65111494
_cell_length_c   7.76460361
_cell_angle_alpha   85.24221802
_cell_angle_beta   90.03320312
_cell_angle_gamma   90.02632904
_symmetry_Int_Tables_number   1
_chemical_formula_structural   LiTi2WO6
_chemical_formula_sum   'Li2 Ti4 W2 O12'
_cell_volume   232.72614098
_cell_formula_units_Z   2
loop_
 _symmetry_equiv_pos_site_id
 _symmetry_equiv_pos_as_xyz
  1  'x, y, z'
loop_
 _atom_site_type_symbol
 _atom_site_label
 _atom_site_symmetry_multiplicity
 _atom_site_fract_x
 _atom_site_fract_y
 _atom_site_fract_z
 _atom_site_occupancy
  Li  Li0  1  0.50856301  0.50552398  0.00646402  1
  Li  Li1  1  0.00867200  0.00548200  0.50649399  1
  Ti  Ti2  1  0.50822301  0.92937396  0.71831702  1
  Ti  Ti3  1  0.00809900  0.42933998  0.21829001  1
  Ti  Ti4  1  0.00831100  0.49300798  0.75048500  1
  Ti  Ti5  1  0.50837701  0.99309496  0.25053603  1
  W  W6  1  0.50817601  0.50338398  0.50570401  1
  W  W7  1  0.00821100  0.00339500  0.00571700  1
  O  O8  1  0.22007401  0.69284897  0.59620701  1
  O  O9  1  0.72002301  0.19291199  0.09616301  1
  O  O10  1  0.15721400  0.33244899  0.95565299  1
  O  O11  1  0.65718501  0.83243797  0.45564502  1
  O  O12  1  0.64793201  0.54386298  0.74428700  1
  O  O13  1  0.14793400  0.04383100  0.24430000  1
  O  O14  1  0.31499801  0.85793697  0.94475901  1
  O  O15  1  0.81499701  0.35794899  0.44474800  1
  O  O16  1  0.86555101  0.02352700  0.77960599  1
  O  O17  1  0.36545801  0.52354898  0.27960301  1
  O  O18  1  0.34386801  0.21527799  0.58637300  1
  O  O19  1  0.84389001  0.71527997  0.08635502  1
