# generated using pymatgen
data_LaCoO3
_symmetry_space_group_name_H-M   'P 1'
_cell_length_a   5.54172182
_cell_length_b   5.58947897
_cell_length_c   7.94904375
_cell_angle_alpha   90.00000000
_cell_angle_beta   89.93202972
_cell_angle_gamma   90.00000000
_symmetry_Int_Tables_number   1
_chemical_formula_structural   LaCoO3
_chemical_formula_sum   'La4 Co4 O12'
_cell_volume   246.22414030
_cell_formula_units_Z   4
loop_
 _symmetry_equiv_pos_site_id
 _symmetry_equiv_pos_as_xyz
  1  'x, y, z'
loop_
 _atom_site_type_symbol
 _atom_site_label
 _atom_site_symmetry_multiplicity
 _atom_site_fract_x
 _atom_site_fract_y
 _atom_site_fract_z
 _atom_site_occupancy
  La  La0  1  0.25291701  0.50060800  0.49916599  1
  La  La1  1  0.74708302  0.00060800  0.50083399  1
  La  La2  1  0.24205401  0.55667200  0.99908698  1
  La  La3  1  0.75794602  0.05667200  0.00091300  1
  Co  Co4  1  0.25051801  0.01879700  0.25712300  1
  Co  Co5  1  0.74948202  0.51879700  0.74287699  1
  Co  Co6  1  0.25379301  0.01499300  0.73744299  1
  Co  Co7  1  0.74620702  0.51499300  0.26255700  1
  O  O8  1  0.44074901  0.72702600  0.72043999  1
  O  O9  1  0.55925102  0.22702600  0.27955999  1
  O  O10  1  0.33391901  0.99504701  0.99394398  1
  O  O11  1  0.66608102  0.49504700  0.00605600  1
  O  O12  1  0.17130701  0.03552800  0.51128899  1
  O  O13  1  0.82869303  0.53552800  0.48871099  1
  O  O14  1  0.02301400  0.30242100  0.19391200  1
  O  O15  1  0.97698603  0.80242100  0.80608798  1
  O  O16  1  0.03611600  0.28201800  0.80618698  1
  O  O17  1  0.96388403  0.78201800  0.19381300  1
  O  O18  1  0.52932402  0.21528900  0.72372499  1
  O  O19  1  0.47067602  0.71528900  0.27627499  1
