# generated using pymatgen
data_Rb3SeO9
_symmetry_space_group_name_H-M   'P 1'
_cell_length_a   6.42872620
_cell_length_b   6.42872620
_cell_length_c   8.62529278
_cell_angle_alpha   71.40723419
_cell_angle_beta   71.40723419
_cell_angle_gamma   60.05269623
_symmetry_Int_Tables_number   1
_chemical_formula_structural   Rb3SeO9
_chemical_formula_sum   'Rb3 Se1 O9'
_cell_volume   287.16917071
_cell_formula_units_Z   1
loop_
 _symmetry_equiv_pos_site_id
 _symmetry_equiv_pos_as_xyz
  1  'x, y, z'
loop_
 _atom_site_type_symbol
 _atom_site_label
 _atom_site_symmetry_multiplicity
 _atom_site_fract_x
 _atom_site_fract_y
 _atom_site_fract_z
 _atom_site_occupancy
  Rb  Rb0  1  0.00000000  0.00000000  0.00000000  1
  Rb  Rb1  1  0.80119797  0.80119799  0.61166002  1
  Rb  Rb2  1  0.19880199  0.19880200  0.38834001  1
  Se  Se3  1  0.56982798  0.56982800  0.23219701  1
  O  O4  1  0.43017198  0.43017200  0.76780302  1
  O  O5  1  0.27041898  0.69885399  0.31055601  1
  O  O6  1  0.72958098  0.30114600  0.68944402  1
  O  O7  1  0.30114598  0.72958099  0.68944402  1
  O  O8  1  0.69885398  0.27041900  0.31055601  1
  O  O9  1  0.61254597  0.61254599  0.01982000  1
  O  O10  1  0.38745398  0.38745400  0.98018003  1
  O  O11  1  0.71143597  0.71143599  0.25903501  1
  O  O12  1  0.28856399  0.28856400  0.74096502  1
