# generated using pymatgen
data_PrSmGdY3O8
_symmetry_space_group_name_H-M   'P 1'
_cell_length_a   7.00146580
_cell_length_b   7.00146580
_cell_length_c   7.00146580
_cell_angle_alpha   60.00000000
_cell_angle_beta   60.00000000
_cell_angle_gamma   60.00000000
_symmetry_Int_Tables_number   1
_chemical_formula_structural   PrSmGdY3O8
_chemical_formula_sum   'Pr1 Sm1 Gd1 Y3 O8'
_cell_volume   242.69001972
_cell_formula_units_Z   1
loop_
 _symmetry_equiv_pos_site_id
 _symmetry_equiv_pos_as_xyz
  1  'x, y, z'
loop_
 _atom_site_type_symbol
 _atom_site_label
 _atom_site_symmetry_multiplicity
 _atom_site_fract_x
 _atom_site_fract_y
 _atom_site_fract_z
 _atom_site_occupancy
  Y  Y0  1  0.50000001  0.50000001  0.50000001  1
  Gd  Gd1  1  0.25000000  0.25000000  0.25000000  1
  Sm  Sm2  1  0.37500000  0.87500001  0.87500001  1
  Pr  Pr3  1  0.87500001  0.87500001  0.37500000  1
  Y  Y4  1  0.87500001  0.87500001  0.87500001  1
  Y  Y5  1  0.87500001  0.37500000  0.87500001  1
  O  O6  1  0.63635701  0.09092700  0.63635801  1
  O  O7  1  0.63635701  0.63635801  0.09092700  1
  O  O8  1  0.63635701  0.63635801  0.63635801  1
  O  O9  1  0.65907401  0.11364200  0.11364200  1
  O  O10  1  0.09092600  0.63635801  0.63635801  1
  O  O11  1  0.11364300  0.11364200  0.11364200  1
  O  O12  1  0.11364300  0.11364200  0.65907301  1
  O  O13  1  0.11364300  0.65907301  0.11364200  1
