# generated using pymatgen
data_Al4B2H4NO7
_symmetry_space_group_name_H-M   'P 1'
_cell_length_a   3.07281399
_cell_length_b   3.07281303
_cell_length_c   19.77834702
_cell_angle_alpha   90.00000000
_cell_angle_beta   90.00000000
_cell_angle_gamma   120.00000763
_symmetry_Int_Tables_number   1
_chemical_formula_structural   Al4B2H4NO7
_chemical_formula_sum   'Al4 B2 H4 N1 O7'
_cell_volume   161.73089808
_cell_formula_units_Z   1
loop_
 _symmetry_equiv_pos_site_id
 _symmetry_equiv_pos_as_xyz
  1  'x, y, z'
loop_
 _atom_site_type_symbol
 _atom_site_label
 _atom_site_symmetry_multiplicity
 _atom_site_fract_x
 _atom_site_fract_y
 _atom_site_fract_z
 _atom_site_occupancy
  Al  Al0  1  0.33333331  0.66666668  0.75013100  1
  Al  Al1  1  0.66666666  0.33333334  0.62632700  1
  Al  Al2  1  0.33333331  0.66666668  0.37367300  1
  H  H3  1  0.66666666  0.33333334  0.24986900  1
  Al  Al4  1  0.00000000  0.00000000  0.12591300  1
  B  B5  1  0.00000000  0.00000000  0.87408700  1
  B  B6  1  0.66666666  0.33333334  0.02321800  1
  H  H7  1  0.33333331  0.66666668  0.97678200  1
  O  O8  1  0.33333331  0.66666668  0.52369600  1
  H  H9  1  0.66666666  0.33333334  0.47630400  1
  N  N10  1  0.66666666  0.33333334  0.07219900  1
  H  H11  1  0.00000000  0.00000000  0.31164400  1
  O  O12  1  0.33333331  0.66666668  0.57264900  1
  O  O13  1  0.66666666  0.33333334  0.42735100  1
  O  O14  1  0.33333331  0.66666668  0.92780100  1
  O  O15  1  0.66666666  0.33333334  0.81192600  1
  O  O16  1  0.00000000  0.00000000  0.68835600  1
  O  O17  1  0.33333331  0.66666668  0.18807400  1
