# generated using pymatgen
data_LiCoO4
_symmetry_space_group_name_H-M   'P 1'
_cell_length_a   3.84059405
_cell_length_b   6.42265654
_cell_length_c   6.55160332
_cell_angle_alpha   107.03953552
_cell_angle_beta   90.00000000
_cell_angle_gamma   107.39682770
_symmetry_Int_Tables_number   1
_chemical_formula_structural   LiCoO4
_chemical_formula_sum   'Li2 Co2 O8'
_cell_volume   146.76378156
_cell_formula_units_Z   2
loop_
 _symmetry_equiv_pos_site_id
 _symmetry_equiv_pos_as_xyz
  1  'x, y, z'
loop_
 _atom_site_type_symbol
 _atom_site_label
 _atom_site_symmetry_multiplicity
 _atom_site_fract_x
 _atom_site_fract_y
 _atom_site_fract_z
 _atom_site_occupancy
  Li  Li0  1  0.89521796  0.79043596  0.76197900  1
  Li  Li1  1  0.10478199  0.20956399  0.23802100  1
  Co  Co2  1  0.20407998  0.40815998  0.82809501  1
  Co  Co3  1  0.79591997  0.59183997  0.17190498  1
  O  O4  1  0.05702500  0.11404999  0.86378102  1
  O  O5  1  0.94297496  0.88594996  0.13621897  1
  O  O6  1  0.26278798  0.52557598  0.13726099  1
  O  O7  1  0.85836596  0.71673197  0.47238399  1
  O  O8  1  0.35592797  0.71185597  0.79837300  1
  O  O9  1  0.14163399  0.28326799  0.52761601  1
  O  O10  1  0.73721197  0.47442398  0.86273901  1
  O  O11  1  0.64407198  0.28814399  0.20162700  1
