# generated using pymatgen
data_BeC
_symmetry_space_group_name_H-M   'P 1'
_cell_length_a   2.46807003
_cell_length_b   2.46811819
_cell_length_c   4.17648840
_cell_angle_alpha   81.50442505
_cell_angle_beta   72.81416321
_cell_angle_gamma   60.00064468
_symmetry_Int_Tables_number   1
_chemical_formula_structural   BeC
_chemical_formula_sum   'Be1 C1'
_cell_volume   21.04899291
_cell_formula_units_Z   1
loop_
 _symmetry_equiv_pos_site_id
 _symmetry_equiv_pos_as_xyz
  1  'x, y, z'
loop_
 _atom_site_type_symbol
 _atom_site_label
 _atom_site_symmetry_multiplicity
 _atom_site_fract_x
 _atom_site_fract_y
 _atom_site_fract_z
 _atom_site_occupancy
  C  C0  1  0.66666662  0.66666669  0.00000003  1
  Be  Be1  1  0.33333331  0.33333334  0.00000002  1
