# generated using pymatgen
data_KNbO3
_symmetry_space_group_name_H-M   'P 1'
_cell_length_a   5.48032379
_cell_length_b   5.68906689
_cell_length_c   5.48032379
_cell_angle_alpha   118.79348755
_cell_angle_beta   90.00000000
_cell_angle_gamma   118.79348755
_symmetry_Int_Tables_number   1
_chemical_formula_structural   KNbO3
_chemical_formula_sum   'K2 Nb2 O6'
_cell_volume   125.09600930
_cell_formula_units_Z   2
loop_
 _symmetry_equiv_pos_site_id
 _symmetry_equiv_pos_as_xyz
  1  'x, y, z'
loop_
 _atom_site_type_symbol
 _atom_site_label
 _atom_site_symmetry_multiplicity
 _atom_site_fract_x
 _atom_site_fract_y
 _atom_site_fract_z
 _atom_site_occupancy
  K  K0  1  0.75000007  0.50000005  0.25000005  1
  K  K1  1  0.25000005  0.50000005  0.75000007  1
  Nb  Nb2  1  0.00000000  0.00000000  0.00000000  1
  Nb  Nb3  1  0.50000002  0.00000000  0.50000002  1
  O  O4  1  0.73433107  0.46866205  0.73433107  1
  O  O5  1  0.74980412  1.00000010  0.25019610  1
  O  O6  1  0.25019601  0.00000000  0.74980403  1
  O  O7  1  0.26566906  0.53133806  0.26566906  1
  O  O8  1  0.74980403  0.00000000  0.74980403  1
  O  O9  1  0.25019601  0.00000000  0.25019601  1
