# generated using pymatgen
data_Tl4SeS2
_symmetry_space_group_name_H-M   'P 1'
_cell_length_a   7.88800001
_cell_length_b   8.18371296
_cell_length_c   9.82743645
_cell_angle_alpha   90.00000000
_cell_angle_beta   71.78319550
_cell_angle_gamma   90.00000000
_symmetry_Int_Tables_number   1
_chemical_formula_structural   Tl4SeS2
_chemical_formula_sum   'Tl8 Se2 S4'
_cell_volume   602.59630371
_cell_formula_units_Z   2
loop_
 _symmetry_equiv_pos_site_id
 _symmetry_equiv_pos_as_xyz
  1  'x, y, z'
loop_
 _atom_site_type_symbol
 _atom_site_label
 _atom_site_symmetry_multiplicity
 _atom_site_fract_x
 _atom_site_fract_y
 _atom_site_fract_z
 _atom_site_occupancy
  Tl  Tl0  1  0.21798600  0.25000000  0.44843897  1
  Tl  Tl1  1  0.78201401  0.75000000  0.55156094  1
  Tl  Tl2  1  0.26626800  0.25000000  0.93184795  1
  Tl  Tl3  1  0.73373201  0.75000000  0.06815197  1
  Tl  Tl4  1  0.77768101  0.25000000  0.29929496  1
  Tl  Tl5  1  0.22231900  0.75000000  0.70070496  1
  Tl  Tl6  1  0.60376001  0.25000000  0.57043695  1
  Tl  Tl7  1  0.39624001  0.75000000  0.42956296  1
  S  S8  1  0.00762800  0.99844200  0.75987696  1
  Se  Se9  1  0.99237201  0.00155800  0.24012295  1
  S  S10  1  0.99237201  0.49844200  0.24012295  1
  S  S11  1  0.00762800  0.50155800  0.75987696  1
  S  S12  1  0.58353901  0.25000000  0.12942797  1
  Se  Se13  1  0.41646101  0.75000000  0.87057194  1
