# generated using pymatgen
data_CeZr3O4
_symmetry_space_group_name_H-M   'P 1'
_cell_length_a   3.60386992
_cell_length_b   6.64182997
_cell_length_c   6.70145416
_cell_angle_alpha   97.92307281
_cell_angle_beta   90.00000000
_cell_angle_gamma   105.74169922
_symmetry_Int_Tables_number   1
_chemical_formula_structural   CeZr3O4
_chemical_formula_sum   'Ce1 Zr3 O4'
_cell_volume   152.80025940
_cell_formula_units_Z   1
loop_
 _symmetry_equiv_pos_site_id
 _symmetry_equiv_pos_as_xyz
  1  'x, y, z'
loop_
 _atom_site_type_symbol
 _atom_site_label
 _atom_site_symmetry_multiplicity
 _atom_site_fract_x
 _atom_site_fract_y
 _atom_site_fract_z
 _atom_site_occupancy
  Ce  Ce0  1  0.00000000  0.00000000  0.00000000  1
  Zr  Zr1  1  0.50000001  0.00000000  0.49999999  1
  Zr  Zr2  1  0.24626002  0.49251999  0.73902998  1
  Zr  Zr3  1  0.75374004  0.50747999  0.26097000  1
  O  O4  1  0.66387003  0.32773999  0.51697999  1
  O  O5  1  0.33613003  0.67225998  0.48301999  1
  O  O6  1  0.16073002  0.32145999  0.11651000  1
  O  O7  1  0.83927005  0.67853998  0.88348998  1
