# generated using pymatgen
data_K2ClO2
_symmetry_space_group_name_H-M   'P 1'
_cell_length_a   5.65091181
_cell_length_b   5.65370607
_cell_length_c   7.29663610
_cell_angle_alpha   112.79397583
_cell_angle_beta   90.00000000
_cell_angle_gamma   90.00000000
_symmetry_Int_Tables_number   1
_chemical_formula_structural   K2ClO2
_chemical_formula_sum   'K4 Cl2 O4'
_cell_volume   214.91171583
_cell_formula_units_Z   2
loop_
 _symmetry_equiv_pos_site_id
 _symmetry_equiv_pos_as_xyz
  1  'x, y, z'
loop_
 _atom_site_type_symbol
 _atom_site_label
 _atom_site_symmetry_multiplicity
 _atom_site_fract_x
 _atom_site_fract_y
 _atom_site_fract_z
 _atom_site_occupancy
  K  K0  1  0.50000002  0.70350799  0.40701598  1
  K  K1  1  1.00000003  0.16228100  0.32456199  1
  K  K2  1  -0.00000000  0.82879598  0.65759197  1
  K  K3  1  0.50000002  0.33134299  0.66268598  1
  Cl  Cl4  1  0.50000002  0.98985298  0.97970596  1
  Cl  Cl5  1  1.00000003  0.49715999  0.99431997  1
  O  O6  1  0.24714701  0.49320899  0.49352898  1
  O  O7  1  0.75285303  0.00032000  0.49352899  1
  O  O8  1  0.24714701  0.00032000  0.49352899  1
  O  O9  1  0.75285303  0.49320899  0.49352898  1
