# generated using pymatgen
data_BaLaTiO4
_symmetry_space_group_name_H-M   'P 1'
_cell_length_a   5.43343782
_cell_length_b   5.45027399
_cell_length_c   6.86259031
_cell_angle_alpha   90.00000000
_cell_angle_beta   113.32047272
_cell_angle_gamma   90.00000000
_symmetry_Int_Tables_number   1
_chemical_formula_structural   BaLaTiO4
_chemical_formula_sum   'Ba2 La2 Ti2 O8'
_cell_volume   186.62424040
_cell_formula_units_Z   2
loop_
 _symmetry_equiv_pos_site_id
 _symmetry_equiv_pos_as_xyz
  1  'x, y, z'
loop_
 _atom_site_type_symbol
 _atom_site_label
 _atom_site_symmetry_multiplicity
 _atom_site_fract_x
 _atom_site_fract_y
 _atom_site_fract_z
 _atom_site_occupancy
  Ba  Ba0  1  0.60597701  0.25000000  0.21195399  1
  Ba  Ba1  1  0.39402301  0.75000000  0.78804601  1
  La  La2  1  0.11187300  0.75000000  0.22374600  1
  La  La3  1  0.88812701  0.25000000  0.77625400  1
  Ti  Ti4  1  0.25102100  0.25000000  0.50204201  1
  Ti  Ti5  1  0.74897901  0.75000000  0.49795799  1
  O  O6  1  0.92488802  0.75000000  0.84977600  1
  O  O7  1  0.41189901  0.25000000  0.82379801  1
  O  O8  1  0.07511200  0.25000000  0.15022400  1
  O  O9  1  0.58810101  0.75000000  0.17620199  1
  O  O10  1  0.00000000  0.50000000  0.50000001  1
  O  O11  1  0.50000001  1.00000000  0.50000000  1
  O  O12  1  0.00000000  0.00000000  0.50000001  1
  O  O13  1  0.50000001  0.50000000  0.50000000  1
