# generated using pymatgen
data_In3BiSe4
_symmetry_space_group_name_H-M   'P 1'
_cell_length_a   4.54480886
_cell_length_b   4.54480886
_cell_length_c   12.78499317
_cell_angle_alpha   90.00000000
_cell_angle_beta   90.00000000
_cell_angle_gamma   90.00000000
_symmetry_Int_Tables_number   1
_chemical_formula_structural   In3BiSe4
_chemical_formula_sum   'In3 Bi1 Se4'
_cell_volume   264.07771113
_cell_formula_units_Z   1
loop_
 _symmetry_equiv_pos_site_id
 _symmetry_equiv_pos_as_xyz
  1  'x, y, z'
loop_
 _atom_site_type_symbol
 _atom_site_label
 _atom_site_symmetry_multiplicity
 _atom_site_fract_x
 _atom_site_fract_y
 _atom_site_fract_z
 _atom_site_occupancy
  In  In0  1  0.00000000  0.00000000  0.00000000  1
  In  In1  1  0.50000001  0.50000001  0.74975099  1
  Bi  Bi2  1  0.00000000  0.00000000  0.49999999  1
  In  In3  1  0.50000001  0.50000001  0.25024900  1
  Se  Se4  1  0.00000000  0.50000001  0.62523399  1
  Se  Se5  1  0.50000001  0.00000000  0.37476599  1
  Se  Se6  1  0.00000000  0.50000001  0.12981000  1
  Se  Se7  1  0.50000001  0.00000000  0.87018999  1
