# generated using pymatgen
data_VF3
_symmetry_space_group_name_H-M   'P 1'
_cell_length_a   5.25276899
_cell_length_b   5.38404036
_cell_length_c   7.51961184
_cell_angle_alpha   88.11719513
_cell_angle_beta   89.99285889
_cell_angle_gamma   89.98321533
_symmetry_Int_Tables_number   1
_chemical_formula_structural   VF3
_chemical_formula_sum   'V4 F12'
_cell_volume   212.54822367
_cell_formula_units_Z   4
loop_
 _symmetry_equiv_pos_site_id
 _symmetry_equiv_pos_as_xyz
  1  'x, y, z'
loop_
 _atom_site_type_symbol
 _atom_site_label
 _atom_site_symmetry_multiplicity
 _atom_site_fract_x
 _atom_site_fract_y
 _atom_site_fract_z
 _atom_site_occupancy
  V  V0  1  0.49963298  0.50249599  0.50045197  1
  V  V1  1  0.00213500  0.00225100  0.51135899  1
  V  V2  1  0.49817598  0.52028799  0.00031497  1
  V  V3  1  0.00007300  0.02037600  0.01153700  1
  F  F4  1  0.70714299  0.21194300  0.54876797  1
  F  F5  1  0.91796700  0.00656100  0.25481598  1
  F  F6  1  0.70934996  0.79985898  0.96167995  1
  F  F7  1  0.79111397  0.71044298  0.54851295  1
  F  F8  1  0.20743097  0.71603598  0.04298197  1
  F  F9  1  0.59156098  0.50516799  0.25177997  1
  F  F10  1  0.40907598  0.50416199  0.75071497  1
  F  F11  1  0.79088899  0.29985599  0.96203596  1
  F  F12  1  0.20811899  0.29470199  0.45567198  1
  F  F13  1  0.29207599  0.21680600  0.04329999  1
  F  F14  1  0.08240500  0.00350800  0.75451199  1
  F  F15  1  0.29285296  0.79514698  0.45636496  1
