# generated using pymatgen
data_LiYO2
_symmetry_space_group_name_H-M   'P 1'
_cell_length_a   6.15780497
_cell_length_b   6.26878881
_cell_length_c   6.32460642
_cell_angle_alpha   119.36897278
_cell_angle_beta   90.00000000
_cell_angle_gamma   90.00000000
_symmetry_Int_Tables_number   1
_chemical_formula_structural   LiYO2
_chemical_formula_sum   'Li4 Y4 O8'
_cell_volume   212.76503514
_cell_formula_units_Z   4
loop_
 _symmetry_equiv_pos_site_id
 _symmetry_equiv_pos_as_xyz
  1  'x, y, z'
loop_
 _atom_site_type_symbol
 _atom_site_label
 _atom_site_symmetry_multiplicity
 _atom_site_fract_x
 _atom_site_fract_y
 _atom_site_fract_z
 _atom_site_occupancy
  Li  Li0  1  0.34283500  0.22536900  0.92982201  1
  Li  Li1  1  0.84283500  0.27463100  0.57017800  1
  Li  Li2  1  0.65716500  0.77463101  0.07017797  1
  Li  Li3  1  0.15716500  0.72536901  0.42982198  1
  Y  Y4  1  0.86885400  0.25570000  0.02448399  1
  Y  Y5  1  0.63114600  0.75570001  0.52448398  1
  Y  Y6  1  0.13114600  0.74430001  0.97551599  1
  Y  Y7  1  0.36885400  0.24430000  0.47551600  1
  O  O8  1  0.60801900  0.18655900  0.73572701  1
  O  O9  1  0.82513200  0.83896801  0.85159099  1
  O  O10  1  0.10801900  0.31344100  0.76427301  1
  O  O11  1  0.39198100  0.81344101  0.26427297  1
  O  O12  1  0.17486800  0.16103200  0.14840900  1
  O  O13  1  0.32513200  0.66103201  0.64840899  1
  O  O14  1  0.67486800  0.33896800  0.35159099  1
  O  O15  1  0.89198100  0.68655901  0.23572698  1
