# generated using pymatgen
data_K3TlPtS5
_symmetry_space_group_name_H-M   'P 1'
_cell_length_a   5.84008980
_cell_length_b   6.78045607
_cell_length_c   7.78723288
_cell_angle_alpha   64.19197083
_cell_angle_beta   90.00000000
_cell_angle_gamma   90.00000000
_symmetry_Int_Tables_number   1
_chemical_formula_structural   K3TlPtS5
_chemical_formula_sum   'K3 Tl1 Pt1 S5'
_cell_volume   277.60575976
_cell_formula_units_Z   1
loop_
 _symmetry_equiv_pos_site_id
 _symmetry_equiv_pos_as_xyz
  1  'x, y, z'
loop_
 _atom_site_type_symbol
 _atom_site_label
 _atom_site_symmetry_multiplicity
 _atom_site_fract_x
 _atom_site_fract_y
 _atom_site_fract_z
 _atom_site_occupancy
  K  K0  1  0.75000003  0.78843401  0.42313196  1
  K  K1  1  0.25000001  0.21156600  0.57686798  1
  Tl  Tl2  1  0.75000003  0.41358101  0.17283798  1
  K  K3  1  0.25000001  0.58641901  0.82716196  1
  S  S4  1  0.00000000  0.00000000  0.00000000  1
  Pt  Pt5  1  0.50000002  0.00000000  0.00000000  1
  S  S6  1  0.75000003  0.25526000  0.81119198  1
  S  S7  1  0.25000001  0.74474001  0.18880796  1
  S  S8  1  0.75000003  0.93354801  0.81119195  1
  S  S9  1  0.25000001  0.06645200  0.18880799  1
