# generated using pymatgen
data_Li4CoO8
_symmetry_space_group_name_H-M   'P 1'
_cell_length_a   5.13805008
_cell_length_b   5.78182983
_cell_length_c   6.58290434
_cell_angle_alpha   70.02941132
_cell_angle_beta   87.36803436
_cell_angle_gamma   67.58699799
_symmetry_Int_Tables_number   1
_chemical_formula_structural   Li4CoO8
_chemical_formula_sum   'Li4 Co1 O8'
_cell_volume   169.11500750
_cell_formula_units_Z   1
loop_
 _symmetry_equiv_pos_site_id
 _symmetry_equiv_pos_as_xyz
  1  'x, y, z'
loop_
 _atom_site_type_symbol
 _atom_site_label
 _atom_site_symmetry_multiplicity
 _atom_site_fract_x
 _atom_site_fract_y
 _atom_site_fract_z
 _atom_site_occupancy
  Li  Li0  1  0.64002697  0.67174103  0.21050101  1
  Li  Li1  1  0.35997298  0.32825901  0.78949899  1
  Li  Li2  1  0.73909796  0.82571203  0.66491301  1
  Li  Li3  1  0.26090199  0.17428801  0.33508700  1
  Co  Co4  1  0.00000000  0.00000000  0.00000000  1
  O  O5  1  0.62166796  0.87133003  0.37268302  1
  O  O6  1  0.37833199  0.12867001  0.62731699  1
  O  O7  1  0.78379196  0.80592803  0.96279700  1
  O  O8  1  0.21620799  0.19407201  0.03720300  1
  O  O9  1  0.68450098  0.33181601  0.84492799  1
  O  O10  1  0.86537898  0.35205001  0.34797800  1
  O  O11  1  0.31549897  0.66818403  0.15507202  1
  O  O12  1  0.13462098  0.64795003  0.65202200  1
