# generated using pymatgen
data_LaEuZr2Bi2O9
_symmetry_space_group_name_H-M   'P 1'
_cell_length_a   3.83508611
_cell_length_b   3.83508611
_cell_length_c   15.68822384
_cell_angle_alpha   82.97929382
_cell_angle_beta   82.97929382
_cell_angle_gamma   60.00000000
_symmetry_Int_Tables_number   1
_chemical_formula_structural   LaEuZr2Bi2O9
_chemical_formula_sum   'La1 Eu1 Zr2 Bi2 O9'
_cell_volume   197.82697131
_cell_formula_units_Z   1
loop_
 _symmetry_equiv_pos_site_id
 _symmetry_equiv_pos_as_xyz
  1  'x, y, z'
loop_
 _atom_site_type_symbol
 _atom_site_label
 _atom_site_symmetry_multiplicity
 _atom_site_fract_x
 _atom_site_fract_y
 _atom_site_fract_z
 _atom_site_occupancy
  Eu  Eu0  1  0.60277500  0.60277499  0.19167500  1
  La  La1  1  0.20081100  0.20081100  0.39756701  1
  Zr  Zr2  1  0.79918900  0.79918898  0.60243301  1
  Zr  Zr3  1  0.39722500  0.39722499  0.80832502  1
  Bi  Bi4  1  0.00000000  0.00000000  0.00000000  1
  Bi  Bi5  1  0.04647700  0.04647700  0.86056902  1
  O  O6  1  0.44880200  0.44880199  0.65359402  1
  O  O7  1  0.85023400  0.85023398  0.44929801  1
  O  O8  1  0.65286800  0.65286798  0.04139600  1
  O  O9  1  0.25240900  0.25240899  0.24277301  1
  O  O10  1  0.34713200  0.34713199  0.95860403  1
  O  O11  1  0.74759100  0.74759098  0.75722702  1
  O  O12  1  0.14976600  0.14976600  0.55070201  1
  O  O13  1  0.95352300  0.95352298  0.13943100  1
  O  O14  1  0.55119800  0.55119799  0.34640601  1
