# generated using pymatgen
data_Ca3Sm(BO3)4
_symmetry_space_group_name_H-M   'P 1'
_cell_length_a   5.14467716
_cell_length_b   6.36894512
_cell_length_c   7.08160877
_cell_angle_alpha   90.00000000
_cell_angle_beta   90.00000000
_cell_angle_gamma   90.00000000
_symmetry_Int_Tables_number   1
_chemical_formula_structural   Ca3Sm(BO3)4
_chemical_formula_sum   'Ca3 Sm1 B4 O12'
_cell_volume   232.03717223
_cell_formula_units_Z   1
loop_
 _symmetry_equiv_pos_site_id
 _symmetry_equiv_pos_as_xyz
  1  'x, y, z'
loop_
 _atom_site_type_symbol
 _atom_site_label
 _atom_site_symmetry_multiplicity
 _atom_site_fract_x
 _atom_site_fract_y
 _atom_site_fract_z
 _atom_site_occupancy
  Ca  Ca0  1  0.00000000  0.48234099  0.02784100  1
  Ca  Ca1  1  0.00000000  0.51765899  0.52784102  1
  Ca  Ca2  1  0.49999998  0.13063000  0.32838301  1
  Sm  Sm3  1  0.49999998  0.86936998  0.82838303  1
  B  B4  1  0.49999998  0.58020199  0.24295001  1
  B  B5  1  0.49999998  0.41979799  0.74295002  1
  B  B6  1  0.00000000  0.03576800  0.99885703  1
  B  B7  1  0.00000000  0.96423198  0.49885702  1
  O  O8  1  0.00000000  0.14274100  0.41308101  1
  O  O9  1  0.00000000  0.85725898  0.91308103  1
  O  O10  1  0.28709699  0.48246799  0.28029201  1
  O  O11  1  0.71290298  0.51753199  0.78029203  1
  O  O12  1  0.28709699  0.51753199  0.78029203  1
  O  O13  1  0.71290298  0.48246799  0.28029201  1
  O  O14  1  0.22237499  0.12457100  0.03509900  1
  O  O15  1  0.77762498  0.87542898  0.53509902  1
  O  O16  1  0.22237499  0.87542898  0.53509902  1
  O  O17  1  0.77762498  0.12457100  0.03509900  1
  O  O18  1  0.49999998  0.23322600  0.66410502  1
  O  O19  1  0.49999998  0.76677399  0.16410501  1
