# generated using pymatgen
data_CsThAgSe3
_symmetry_space_group_name_H-M   'P 1'
_cell_length_a   4.32036591
_cell_length_b   8.47331142
_cell_length_c   11.23763943
_cell_angle_alpha   90.00000000
_cell_angle_beta   90.00000000
_cell_angle_gamma   104.77000427
_symmetry_Int_Tables_number   1
_chemical_formula_structural   CsThAgSe3
_chemical_formula_sum   'Cs2 Th2 Ag2 Se6'
_cell_volume   397.79191159
_cell_formula_units_Z   2
loop_
 _symmetry_equiv_pos_site_id
 _symmetry_equiv_pos_as_xyz
  1  'x, y, z'
loop_
 _atom_site_type_symbol
 _atom_site_label
 _atom_site_symmetry_multiplicity
 _atom_site_fract_x
 _atom_site_fract_y
 _atom_site_fract_z
 _atom_site_occupancy
  Cs  Cs0  1  0.25557794  0.51115602  0.74999997  1
  Cs  Cs1  1  0.74442195  0.48884402  0.24999999  1
  Th  Th2  1  0.00000000  0.00000000  0.49999998  1
  Th  Th3  1  0.00000000  0.00000000  0.00000000  1
  Ag  Ag4  1  0.46104489  0.92209003  0.24999999  1
  Ag  Ag5  1  0.53895500  0.07791000  0.74999997  1
  Se  Se6  1  0.93935891  0.87871803  0.74999997  1
  Se  Se7  1  0.06064099  0.12128200  0.24999999  1
  Se  Se8  1  0.38305391  0.76610803  0.45403598  1
  Se  Se9  1  0.38305391  0.76610803  0.04596400  1
  Se  Se10  1  0.61694598  0.23389201  0.95403596  1
  Se  Se11  1  0.61694598  0.23389201  0.54596398  1
