# generated using pymatgen
data_Ba2ZrO4
_symmetry_space_group_name_H-M   'P 1'
_cell_length_a   4.17516613
_cell_length_b   4.17516613
_cell_length_c   7.06916237
_cell_angle_alpha   107.17603302
_cell_angle_beta   107.17603302
_cell_angle_gamma   90.00000000
_symmetry_Int_Tables_number   1
_chemical_formula_structural   Ba2ZrO4
_chemical_formula_sum   'Ba2 Zr1 O4'
_cell_volume   111.96869139
_cell_formula_units_Z   1
loop_
 _symmetry_equiv_pos_site_id
 _symmetry_equiv_pos_as_xyz
  1  'x, y, z'
loop_
 _atom_site_type_symbol
 _atom_site_label
 _atom_site_symmetry_multiplicity
 _atom_site_fract_x
 _atom_site_fract_y
 _atom_site_fract_z
 _atom_site_occupancy
  Ba  Ba0  1  0.35254000  0.35253999  0.70508000  1
  Ba  Ba1  1  0.64746000  0.64745999  0.29492002  1
  Zr  Zr2  1  0.00000000  0.00000000  0.00000000  1
  O  O3  1  0.16607200  0.16607200  0.33214400  1
  O  O4  1  0.83392800  0.83392798  0.66785601  1
  O  O5  1  0.49999999  0.00000000  0.00000001  1
  O  O6  1  0.00000001  0.49999999  0.00000001  1
