# generated using pymatgen
data_Rb2AuCO
_symmetry_space_group_name_H-M   'P 1'
_cell_length_a   5.31723881
_cell_length_b   5.73726416
_cell_length_c   5.73726463
_cell_angle_alpha   60.00000381
_cell_angle_beta   90.00000000
_cell_angle_gamma   90.00000000
_symmetry_Int_Tables_number   1
_chemical_formula_structural   Rb2AuCO
_chemical_formula_sum   'Rb2 Au1 C1 O1'
_cell_volume   151.57463905
_cell_formula_units_Z   1
loop_
 _symmetry_equiv_pos_site_id
 _symmetry_equiv_pos_as_xyz
  1  'x, y, z'
loop_
 _atom_site_type_symbol
 _atom_site_label
 _atom_site_symmetry_multiplicity
 _atom_site_fract_x
 _atom_site_fract_y
 _atom_site_fract_z
 _atom_site_occupancy
  Rb  Rb0  1  0.72659703  0.33333332  0.33333333  1
  Rb  Rb1  1  0.27340301  0.66666664  0.66666666  1
  Au  Au2  1  0.00000000  0.00000000  0.00000000  1
  C  C3  1  0.38031201  0.00000000  -0.00000000  1
  O  O4  1  0.61968802  0.00000000  0.00000000  1
