# generated using pymatgen
data_K2TaTiO6
_symmetry_space_group_name_H-M   'P 1'
_cell_length_a   7.02288485
_cell_length_b   7.35483551
_cell_length_c   7.69477940
_cell_angle_alpha   74.42970276
_cell_angle_beta   68.54983521
_cell_angle_gamma   64.29397583
_symmetry_Int_Tables_number   1
_chemical_formula_structural   K2TaTiO6
_chemical_formula_sum   'K4 Ta2 Ti2 O12'
_cell_volume   330.44289058
_cell_formula_units_Z   2
loop_
 _symmetry_equiv_pos_site_id
 _symmetry_equiv_pos_as_xyz
  1  'x, y, z'
loop_
 _atom_site_type_symbol
 _atom_site_label
 _atom_site_symmetry_multiplicity
 _atom_site_fract_x
 _atom_site_fract_y
 _atom_site_fract_z
 _atom_site_occupancy
  K  K0  1  0.33393900  0.13670000  0.21224699  1
  K  K1  1  0.66606101  0.86330002  0.78775294  1
  K  K2  1  0.84446001  0.64350302  0.20941098  1
  K  K3  1  0.15554000  0.35649701  0.79058896  1
  Ti  Ti4  1  0.65753601  0.35853001  0.79196897  1
  Ti  Ti5  1  0.34246401  0.64147002  0.20803097  1
  Ta  Ta6  1  0.79749001  0.13397800  0.31305200  1
  Ta  Ta7  1  0.20251001  0.86602202  0.68694794  1
  O  O8  1  0.63636201  0.20610801  0.17017500  1
  O  O9  1  0.44970601  0.19688301  0.86185397  1
  O  O10  1  0.94189902  0.92056402  0.83051595  1
  O  O11  1  0.77860701  0.92070302  0.45524995  1
  O  O12  1  0.27805301  0.67426202  0.57005695  1
  O  O13  1  0.15287500  0.47705501  0.24348497  1
  O  O14  1  0.22139300  0.07929700  0.54474999  1
  O  O15  1  0.55029401  0.80311702  0.13814596  1
  O  O16  1  0.36363801  0.79389202  0.82982494  1
  O  O17  1  0.84712501  0.52294501  0.75651497  1
  O  O18  1  0.72194701  0.32573801  0.42994299  1
  O  O19  1  0.05810100  0.07943600  0.16948399  1
