# generated using pymatgen
data_ZnIn5S8
_symmetry_space_group_name_H-M   'P 1'
_cell_length_a   7.65770102
_cell_length_b   7.65770102
_cell_length_c   7.65770102
_cell_angle_alpha   108.55538177
_cell_angle_beta   108.55538177
_cell_angle_gamma   111.31884766
_symmetry_Int_Tables_number   1
_chemical_formula_structural   ZnIn5S8
_chemical_formula_sum   'Zn1 In5 S8'
_cell_volume   345.40868943
_cell_formula_units_Z   1
loop_
 _symmetry_equiv_pos_site_id
 _symmetry_equiv_pos_as_xyz
  1  'x, y, z'
loop_
 _atom_site_type_symbol
 _atom_site_label
 _atom_site_symmetry_multiplicity
 _atom_site_fract_x
 _atom_site_fract_y
 _atom_site_fract_z
 _atom_site_occupancy
  Zn  Zn0  1  0.00000000  0.00000000  0.00000000  1
  In  In1  1  0.74999999  0.25000000  0.49999997  1
  In  In2  1  0.25927201  0.62500000  0.13427199  1
  In  In3  1  0.87500000  0.74072799  0.36572797  1
  In  In4  1  0.49072799  0.12500000  0.86572797  1
  In  In5  1  0.37500001  0.50927200  0.63427198  1
  S  S6  1  0.63802401  0.88082899  0.24398897  1
  S  S7  1  0.60596500  0.36197600  0.24280498  1
  S  S8  1  0.63684000  0.39403500  0.75601097  1
  S  S9  1  0.11917101  0.36316000  0.75719498  1
  S  S10  1  0.11316001  0.36917100  0.25719499  1
  S  S11  1  0.63082901  0.88802399  0.74398896  1
  S  S12  1  0.11197603  0.85596499  0.74280498  1
  S  S13  1  0.14403503  0.88683999  0.25601098  1
