# generated using pymatgen
data_AlSnO2
_symmetry_space_group_name_H-M   'P 1'
_cell_length_a   3.03704953
_cell_length_b   3.03704953
_cell_length_c   6.51751089
_cell_angle_alpha   76.52674103
_cell_angle_beta   76.52674103
_cell_angle_gamma   60.00001144
_symmetry_Int_Tables_number   1
_chemical_formula_structural   AlSnO2
_chemical_formula_sum   'Al1 Sn1 O2'
_cell_volume   50.14195154
_cell_formula_units_Z   1
loop_
 _symmetry_equiv_pos_site_id
 _symmetry_equiv_pos_as_xyz
  1  'x, y, z'
loop_
 _atom_site_type_symbol
 _atom_site_label
 _atom_site_symmetry_multiplicity
 _atom_site_fract_x
 _atom_site_fract_y
 _atom_site_fract_z
 _atom_site_occupancy
  Sn  Sn0  1  0.50000001  0.49999999  0.49999999  1
  Al  Al1  1  0.00000000  0.00000000  0.00000000  1
  O  O2  1  0.88697801  0.88697799  0.33906598  1
  O  O3  1  0.11302200  0.11302200  0.66093400  1
