# generated using pymatgen
data_K6NbBO8
_symmetry_space_group_name_H-M   'P 1'
_cell_length_a   7.39180088
_cell_length_b   7.39180088
_cell_length_c   7.39180088
_cell_angle_alpha   65.41879272
_cell_angle_beta   65.41879272
_cell_angle_gamma   65.41879272
_symmetry_Int_Tables_number   1
_chemical_formula_structural   K6NbBO8
_chemical_formula_sum   'K6 Nb1 B1 O8'
_cell_volume   319.25315827
_cell_formula_units_Z   1
loop_
 _symmetry_equiv_pos_site_id
 _symmetry_equiv_pos_as_xyz
  1  'x, y, z'
loop_
 _atom_site_type_symbol
 _atom_site_label
 _atom_site_symmetry_multiplicity
 _atom_site_fract_x
 _atom_site_fract_y
 _atom_site_fract_z
 _atom_site_occupancy
  K  K0  1  0.24999995  0.67077100  0.82922904  1
  K  K1  1  0.67077092  0.82922899  0.25000007  1
  K  K2  1  0.82922896  0.25000000  0.67077104  1
  K  K3  1  0.74999996  0.32922900  0.17077105  1
  K  K4  1  0.32922898  0.17077100  0.75000001  1
  K  K5  1  0.17077094  0.74999999  0.32922905  1
  B  B6  1  0.74999993  0.74999999  0.75000006  1
  Nb  Nb7  1  0.24999998  0.25000000  0.25000002  1
  O  O8  1  0.24999999  0.08598000  0.41402001  1
  O  O9  1  0.08597997  0.41402000  0.25000002  1
  O  O10  1  0.41401997  0.25000000  0.08598003  1
  O  O11  1  0.74999991  0.91401999  0.58598007  1
  O  O12  1  0.58597993  0.74999999  0.91402005  1
  O  O13  1  0.91401993  0.58598000  0.75000006  1
  O  O14  1  0.00000000  0.00000000  0.00000000  1
  O  O15  1  0.49999995  0.50000000  0.50000004  1
