# generated using pymatgen
data_NaIn(BO3)2
_symmetry_space_group_name_H-M   'P 1'
_cell_length_a   4.91972303
_cell_length_b   4.91972303
_cell_length_c   6.14354563
_cell_angle_alpha   66.39694977
_cell_angle_beta   66.39694977
_cell_angle_gamma   59.99998856
_symmetry_Int_Tables_number   1
_chemical_formula_structural   NaIn(BO3)2
_chemical_formula_sum   'Na1 In1 B2 O6'
_cell_volume   114.18502121
_cell_formula_units_Z   1
loop_
 _symmetry_equiv_pos_site_id
 _symmetry_equiv_pos_as_xyz
  1  'x, y, z'
loop_
 _atom_site_type_symbol
 _atom_site_label
 _atom_site_symmetry_multiplicity
 _atom_site_fract_x
 _atom_site_fract_y
 _atom_site_fract_z
 _atom_site_occupancy
  Na  Na0  1  0.00000000  0.00000000  0.00000000  1
  In  In1  1  0.49999996  0.49999998  0.50000007  1
  B  B2  1  0.76069093  0.76069097  0.71792710  1
  B  B3  1  0.23930898  0.23930899  0.28207303  1
  O  O4  1  0.73012094  0.49120998  0.72601709  1
  O  O5  1  0.05265197  0.73012097  0.72601707  1
  O  O6  1  0.50878994  0.94734796  0.27398308  1
  O  O7  1  0.26987897  0.50878998  0.27398305  1
  O  O8  1  0.94734794  0.26987899  0.27398307  1
  O  O9  1  0.49120997  0.05265200  0.72601705  1
