# generated using pymatgen
data_Cs3Ca3U2O8
_symmetry_space_group_name_H-M   'P 1'
_cell_length_a   6.55661297
_cell_length_b   6.72305536
_cell_length_c   7.83290672
_cell_angle_alpha   101.40821075
_cell_angle_beta   97.13224030
_cell_angle_gamma   105.83944702
_symmetry_Int_Tables_number   1
_chemical_formula_structural   Cs3Ca3U2O8
_chemical_formula_sum   'Cs3 Ca3 U2 O8'
_cell_volume   319.74264773
_cell_formula_units_Z   1
loop_
 _symmetry_equiv_pos_site_id
 _symmetry_equiv_pos_as_xyz
  1  'x, y, z'
loop_
 _atom_site_type_symbol
 _atom_site_label
 _atom_site_symmetry_multiplicity
 _atom_site_fract_x
 _atom_site_fract_y
 _atom_site_fract_z
 _atom_site_occupancy
  Cs  Cs0  1  0.66855896  0.77790399  0.97752401  1
  Cs  Cs1  1  0.83726000  0.23404700  0.83098305  1
  Cs  Cs2  1  0.64824396  0.77426199  0.46587600  1
  Ca  Ca3  1  0.35175599  0.22573800  0.53412402  1
  Ca  Ca4  1  0.33144099  0.22209600  0.02247601  1
  Ca  Ca5  1  0.16273995  0.76595299  0.16901697  1
  U  U6  1  0.84657399  0.30144300  0.31438103  1
  U  U7  1  0.15342596  0.69855699  0.68561899  1
  O  O8  1  0.98079295  0.90011299  0.76996602  1
  O  O9  1  0.01920699  0.09988700  0.23003400  1
  O  O10  1  0.23605997  0.52572699  0.85794800  1
  O  O11  1  0.76393998  0.47427299  0.14205202  1
  O  O12  1  0.44592194  0.93920099  0.72695099  1
  O  O13  1  0.55407800  0.06079900  0.27304903  1
  O  O14  1  0.18284097  0.55265499  0.42537899  1
  O  O15  1  0.81715898  0.44734499  0.57462103  1
