# generated using pymatgen
data_Cs6Li2TiO5
_symmetry_space_group_name_H-M   'P 1'
_cell_length_a   7.59831095
_cell_length_b   7.59831095
_cell_length_c   7.63076973
_cell_angle_alpha   96.02433014
_cell_angle_beta   96.02433014
_cell_angle_gamma   116.33012390
_symmetry_Int_Tables_number   1
_chemical_formula_structural   Cs6Li2TiO5
_chemical_formula_sum   'Cs6 Li2 Ti1 O5'
_cell_volume   386.95631667
_cell_formula_units_Z   1
loop_
 _symmetry_equiv_pos_site_id
 _symmetry_equiv_pos_as_xyz
  1  'x, y, z'
loop_
 _atom_site_type_symbol
 _atom_site_label
 _atom_site_symmetry_multiplicity
 _atom_site_fract_x
 _atom_site_fract_y
 _atom_site_fract_z
 _atom_site_occupancy
  Cs  Cs0  1  0.20895602  0.79104399  0.50000004  1
  Cs  Cs1  1  0.26179802  0.73820199  1.00000003  1
  Cs  Cs2  1  0.35920100  0.35920100  0.65019302  1
  Cs  Cs3  1  0.64079901  0.64079900  0.34980706  1
  Cs  Cs4  1  0.73820199  0.26179800  1.00000003  1
  Cs  Cs5  1  0.79104399  0.20895600  0.50000004  1
  Li  Li6  1  0.17069500  0.17069500  0.14846801  1
  Li  Li7  1  0.82930501  0.82930499  0.85153207  1
  O  O8  1  0.16445001  0.43247600  0.26449503  1
  Ti  Ti9  1  0.09912200  0.09912200  0.85800399  1
  O  O10  1  0.56752401  0.83554999  0.73550506  1
  O  O11  1  0.43247600  0.16445000  0.26449502  1
  O  O12  1  0.90087801  0.90087799  0.14199609  1
  O  O13  1  0.83555000  0.56752400  0.73550506  1
