# generated using pymatgen
data_Li2Mn4TeO13
_symmetry_space_group_name_H-M   'P 1'
_cell_length_a   5.10366917
_cell_length_b   5.85849714
_cell_length_c   10.88226509
_cell_angle_alpha   88.36539459
_cell_angle_beta   86.24509430
_cell_angle_gamma   64.17789459
_symmetry_Int_Tables_number   1
_chemical_formula_structural   Li2Mn4TeO13
_chemical_formula_sum   'Li2 Mn4 Te1 O13'
_cell_volume   292.26042401
_cell_formula_units_Z   1
loop_
 _symmetry_equiv_pos_site_id
 _symmetry_equiv_pos_as_xyz
  1  'x, y, z'
loop_
 _atom_site_type_symbol
 _atom_site_label
 _atom_site_symmetry_multiplicity
 _atom_site_fract_x
 _atom_site_fract_y
 _atom_site_fract_z
 _atom_site_occupancy
  Li  Li0  1  0.01545600  0.54416402  0.97593199  1
  Li  Li1  1  0.55961998  0.45583602  0.47593199  1
  Mn  Mn2  1  0.90609497  0.20037701  0.25388500  1
  Mn  Mn3  1  0.10647299  0.79962303  0.75388498  1
  Mn  Mn4  1  0.05601099  0.50612602  0.19441099  1
  Mn  Mn5  1  0.56213798  0.49387402  0.69441099  1
  Te  Te6  1  0.44878698  0.50708602  0.27490499  1
  O  O7  1  0.95587296  0.49291402  0.77490500  1
  O  O8  1  0.77298597  0.88949503  0.27589398  1
  O  O9  1  0.66248098  0.11050500  0.77589401  1
  O  O10  1  0.36830398  0.89967503  0.21137698  1
  O  O11  1  0.26797899  0.10032500  0.71137700  1
  O  O12  1  0.00944700  0.14426201  0.45107900  1
  O  O13  1  0.15370899  0.85573803  0.95107898  1
  O  O14  1  0.87283697  0.23123601  0.04173500  1
  O  O15  1  0.10407299  0.76876403  0.54173498  1
  O  O16  1  0.71209697  0.76003203  0.46572099  1
  O  O17  1  0.47212898  0.23996801  0.96572100  1
  O  O18  1  0.55872997  0.83624303  0.01664098  1
  O  O19  1  0.39497398  0.16375701  0.51664100  1
