# generated using pymatgen
data_MgAl5O8
_symmetry_space_group_name_H-M   'P 1'
_cell_length_a   6.19952488
_cell_length_b   6.19952488
_cell_length_c   6.19952488
_cell_angle_alpha   60.00000000
_cell_angle_beta   60.00000000
_cell_angle_gamma   60.00000000
_symmetry_Int_Tables_number   1
_chemical_formula_structural   MgAl5O8
_chemical_formula_sum   'Mg1 Al5 O8'
_cell_volume   168.48460490
_cell_formula_units_Z   1
loop_
 _symmetry_equiv_pos_site_id
 _symmetry_equiv_pos_as_xyz
  1  'x, y, z'
loop_
 _atom_site_type_symbol
 _atom_site_label
 _atom_site_symmetry_multiplicity
 _atom_site_fract_x
 _atom_site_fract_y
 _atom_site_fract_z
 _atom_site_occupancy
  Mg  Mg0  1  0.37499999  0.87499998  0.37499999  1
  Al  Al1  1  0.87499998  0.37499999  0.37499999  1
  Al  Al2  1  0.37499999  0.37499999  0.37499999  1
  Al  Al3  1  0.37499999  0.37499999  0.87499998  1
  Al  Al4  1  0.00000000  0.00000000  0.00000000  1
  Al  Al5  1  0.74999999  0.74999999  0.74999999  1
  O  O6  1  0.60320499  0.60320499  0.19038500  1
  O  O7  1  0.14679500  0.14679500  0.14679500  1
  O  O8  1  0.14679500  0.55961499  0.14679500  1
  O  O9  1  0.60320499  0.60320499  0.60320499  1
  O  O10  1  0.19038500  0.60320499  0.60320499  1
  O  O11  1  0.14679500  0.14679500  0.55961499  1
  O  O12  1  0.55961499  0.14679500  0.14679500  1
  O  O13  1  0.60320499  0.19038500  0.60320499  1
