# generated using pymatgen
data_Li6CoO9
_symmetry_space_group_name_H-M   'P 1'
_cell_length_a   3.69591093
_cell_length_b   5.42604971
_cell_length_c   11.40673637
_cell_angle_alpha   90.00000000
_cell_angle_beta   90.00000000
_cell_angle_gamma   109.91166687
_symmetry_Int_Tables_number   1
_chemical_formula_structural   Li6CoO9
_chemical_formula_sum   'Li6 Co1 O9'
_cell_volume   215.07780656
_cell_formula_units_Z   1
loop_
 _symmetry_equiv_pos_site_id
 _symmetry_equiv_pos_as_xyz
  1  'x, y, z'
loop_
 _atom_site_type_symbol
 _atom_site_label
 _atom_site_symmetry_multiplicity
 _atom_site_fract_x
 _atom_site_fract_y
 _atom_site_fract_z
 _atom_site_occupancy
  Li  Li0  1  0.20299503  0.40598900  0.59817198  1
  Li  Li1  1  0.79700606  0.59401201  0.40182799  1
  Li  Li2  1  0.79700606  0.59401201  0.09817200  1
  Li  Li3  1  0.20299503  0.40598900  0.90182797  1
  Li  Li4  1  0.89851207  0.79702101  0.74999998  1
  Li  Li5  1  0.10148902  0.20298000  0.24999999  1
  Co  Co6  1  0.69658104  0.39316100  0.24999999  1
  O  O7  1  0.30342005  0.60684001  0.74999998  1
  O  O8  1  0.23775004  0.47549801  0.07411600  1
  O  O9  1  0.76225205  0.52450301  0.92588397  1
  O  O10  1  0.76225205  0.52450301  0.57411598  1
  O  O11  1  0.23775004  0.47549801  0.42588299  1
  O  O12  1  0.04324301  0.08648500  0.62970398  1
  O  O13  1  0.95675708  0.91351401  0.37029599  1
  O  O14  1  0.04324301  0.08648500  0.87029597  1
  O  O15  1  0.95675708  0.91351401  0.12970500  1
