# generated using pymatgen
data_TiPdCl5O
_symmetry_space_group_name_H-M   'P 1'
_cell_length_a   5.31350040
_cell_length_b   5.31350040
_cell_length_c   5.31350040
_cell_angle_alpha   96.90298462
_cell_angle_beta   96.90298462
_cell_angle_gamma   96.90297699
_symmetry_Int_Tables_number   1
_chemical_formula_structural   TiPdCl5O
_chemical_formula_sum   'Ti1 Pd1 Cl5 O1'
_cell_volume   146.46448035
_cell_formula_units_Z   1
loop_
 _symmetry_equiv_pos_site_id
 _symmetry_equiv_pos_as_xyz
  1  'x, y, z'
loop_
 _atom_site_type_symbol
 _atom_site_label
 _atom_site_symmetry_multiplicity
 _atom_site_fract_x
 _atom_site_fract_y
 _atom_site_fract_z
 _atom_site_occupancy
  Pd  Pd0  1  0.00000000  0.00000000  0.00000000  1
  Ti  Ti1  1  0.49999998  0.49999999  0.50000000  1
  O  O2  1  0.24584899  0.24584899  0.58403001  1
  Cl  Cl3  1  0.24584899  0.58402999  0.24584899  1
  Cl  Cl4  1  0.75415098  0.41596999  0.75415100  1
  Cl  Cl5  1  0.75415098  0.75415098  0.41596999  1
  Cl  Cl6  1  0.41596998  0.75415098  0.75415100  1
  Cl  Cl7  1  0.58402998  0.24584899  0.24584899  1
