# generated using pymatgen
data_Li3Co2O5
_symmetry_space_group_name_H-M   'P 1'
_cell_length_a   5.04624987
_cell_length_b   5.10060978
_cell_length_c   7.68498373
_cell_angle_alpha   82.66033173
_cell_angle_beta   72.95011139
_cell_angle_gamma   71.17761230
_symmetry_Int_Tables_number   1
_chemical_formula_structural   Li3Co2O5
_chemical_formula_sum   'Li6 Co4 O10'
_cell_volume   178.87677765
_cell_formula_units_Z   2
loop_
 _symmetry_equiv_pos_site_id
 _symmetry_equiv_pos_as_xyz
  1  'x, y, z'
loop_
 _atom_site_type_symbol
 _atom_site_label
 _atom_site_symmetry_multiplicity
 _atom_site_fract_x
 _atom_site_fract_y
 _atom_site_fract_z
 _atom_site_occupancy
  Li  Li0  1  -0.00000001  0.50000002  0.49999999  1
  Li  Li1  1  0.59615201  0.49987202  0.30345498  1
  Li  Li2  1  0.20156600  0.49895102  0.10078898  1
  Li  Li3  1  0.79843401  0.50104902  0.89921099  1
  Li  Li4  1  0.40384800  0.50012802  0.69654499  1
  Li  Li5  1  0.50000001  0.00000000  0.50000001  1
  Co  Co6  1  0.89699001  0.99782504  0.69567997  1
  Co  Co7  1  0.10301000  0.00217500  0.30432001  1
  Co  Co8  1  0.69491200  0.99819204  0.10463396  1
  Co  Co9  1  0.30508801  0.00180800  0.89536602  1
  O  O10  1  0.66035601  0.77910903  0.70650398  1
  O  O11  1  0.22844799  0.76749503  0.49058698  1
  O  O12  1  0.86408301  0.77831803  0.28855097  1
  O  O13  1  0.44235600  0.76497903  0.09599797  1
  O  O14  1  0.03938799  0.77337003  0.88961599  1
  O  O15  1  0.33964401  0.22089101  0.29349600  1
  O  O16  1  0.96061202  0.22663001  0.11038399  1
  O  O17  1  0.55764401  0.23502101  0.90400201  1
  O  O18  1  0.13591700  0.22168201  0.71144901  1
  O  O19  1  0.77155202  0.23250501  0.50941300  1
