# generated using pymatgen
data_Li4AsI8Br
_symmetry_space_group_name_H-M   'P 1'
_cell_length_a   7.74018288
_cell_length_b   7.74018288
_cell_length_c   7.74018288
_cell_angle_alpha   86.76817322
_cell_angle_beta   61.76123047
_cell_angle_gamma   118.06526184
_symmetry_Int_Tables_number   1
_chemical_formula_structural   Li4AsI8Br
_chemical_formula_sum   'Li4 As1 I8 Br1'
_cell_volume   336.47692423
_cell_formula_units_Z   1
loop_
 _symmetry_equiv_pos_site_id
 _symmetry_equiv_pos_as_xyz
  1  'x, y, z'
loop_
 _atom_site_type_symbol
 _atom_site_label
 _atom_site_symmetry_multiplicity
 _atom_site_fract_x
 _atom_site_fract_y
 _atom_site_fract_z
 _atom_site_occupancy
  Li  Li0  1  0.50000007  0.50000004  -0.00000004  1
  Li  Li1  1  0.00000000  0.00000000  0.00000000  1
  Li  Li2  1  0.50000001  0.00000000  1.00000003  1
  Li  Li3  1  0.00000000  0.00000000  0.50000001  1
  As  As4  1  0.50000001  0.00000000  0.50000002  1
  I  I5  1  0.00000006  0.50000004  0.49999997  1
  I  I6  1  0.01425709  0.76044206  0.25381494  1
  I  I7  1  0.48574304  0.23192802  0.25381499  1
  I  I8  1  0.00800009  0.74614406  0.74585595  1
  I  I9  1  0.49200010  0.74614406  0.26185594  1
  Br  Br10  1  0.98574305  0.23955802  0.74618500  1
  I  I11  1  0.51425710  0.76807207  0.74618495  1
  I  I12  1  0.99200005  0.25385602  0.25414399  1
  I  I13  1  0.50800004  0.25385602  0.73814400  1
