# generated using pymatgen
data_HoCuSe2
_symmetry_space_group_name_H-M   'P 1'
_cell_length_a   4.21929693
_cell_length_b   6.82486010
_cell_length_c   13.72502899
_cell_angle_alpha   90.00000000
_cell_angle_beta   90.00000000
_cell_angle_gamma   90.00000000
_symmetry_Int_Tables_number   1
_chemical_formula_structural   HoCuSe2
_chemical_formula_sum   'Ho4 Cu4 Se8'
_cell_volume   395.22746197
_cell_formula_units_Z   4
loop_
 _symmetry_equiv_pos_site_id
 _symmetry_equiv_pos_as_xyz
  1  'x, y, z'
loop_
 _atom_site_type_symbol
 _atom_site_label
 _atom_site_symmetry_multiplicity
 _atom_site_fract_x
 _atom_site_fract_y
 _atom_site_fract_z
 _atom_site_occupancy
  Ho  Ho0  1  0.27100900  0.70886599  0.62829500  1
  Ho  Ho1  1  0.77100901  0.79113399  0.37170500  1
  Ho  Ho2  1  0.72899101  0.20886600  0.87170500  1
  Ho  Ho3  1  0.22899100  0.29113400  0.12829500  1
  Cu  Cu4  1  0.49794201  0.70442999  0.87613200  1
  Cu  Cu5  1  0.99794202  0.79556999  0.12386800  1
  Cu  Cu6  1  0.50205801  0.20443000  0.62386800  1
  Cu  Cu7  1  0.00205800  0.29557000  0.37613200  1
  Se  Se8  1  0.77162501  0.91095499  0.72700400  1
  Se  Se9  1  0.27162500  0.58904499  0.27299600  1
  Se  Se10  1  0.22837500  0.41095499  0.77299600  1
  Se  Se11  1  0.72837501  0.08904500  0.22700400  1
  Se  Se12  1  0.76555001  0.51567699  0.52733100  1
  Se  Se13  1  0.26555000  0.98432299  0.47266900  1
  Se  Se14  1  0.23445000  0.01567700  0.97266900  1
  Se  Se15  1  0.73445001  0.48432299  0.02733100  1
