# generated using pymatgen
data_Ba3LaO8
_symmetry_space_group_name_H-M   'P 1'
_cell_length_a   4.36847115
_cell_length_b   4.36847115
_cell_length_c   11.08537388
_cell_angle_alpha   90.00000000
_cell_angle_beta   90.00000000
_cell_angle_gamma   90.00000000
_symmetry_Int_Tables_number   1
_chemical_formula_structural   Ba3LaO8
_chemical_formula_sum   'Ba3 La1 O8'
_cell_volume   211.54817749
_cell_formula_units_Z   1
loop_
 _symmetry_equiv_pos_site_id
 _symmetry_equiv_pos_as_xyz
  1  'x, y, z'
loop_
 _atom_site_type_symbol
 _atom_site_label
 _atom_site_symmetry_multiplicity
 _atom_site_fract_x
 _atom_site_fract_y
 _atom_site_fract_z
 _atom_site_occupancy
  Ba  Ba0  1  0.00000000  0.49999998  0.14284400  1
  La  La1  1  0.49999998  0.00000000  0.85715601  1
  Ba  Ba2  1  0.00000000  0.49999998  0.61891801  1
  Ba  Ba3  1  0.49999998  0.00000000  0.38108200  1
  O  O4  1  0.00000000  0.49999998  0.33424300  1
  O  O5  1  0.49999998  0.00000000  0.66575701  1
  O  O6  1  0.49999998  0.49999998  0.50000001  1
  O  O7  1  0.00000000  0.00000000  0.50000001  1
  O  O8  1  0.00000000  0.00000000  0.20140000  1
  O  O9  1  0.49999998  0.49999998  0.20140000  1
  O  O10  1  0.49999998  0.49999998  0.79860001  1
  O  O11  1  0.00000000  0.00000000  0.79860001  1
