# generated using pymatgen
data_Tl2CuS3
_symmetry_space_group_name_H-M   'P 1'
_cell_length_a   6.90372276
_cell_length_b   6.97259760
_cell_length_c   8.56188488
_cell_angle_alpha   88.80018616
_cell_angle_beta   67.60592651
_cell_angle_gamma   67.61204529
_symmetry_Int_Tables_number   1
_chemical_formula_structural   Tl2CuS3
_chemical_formula_sum   'Tl4 Cu2 S6'
_cell_volume   348.60282298
_cell_formula_units_Z   2
loop_
 _symmetry_equiv_pos_site_id
 _symmetry_equiv_pos_as_xyz
  1  'x, y, z'
loop_
 _atom_site_type_symbol
 _atom_site_label
 _atom_site_symmetry_multiplicity
 _atom_site_fract_x
 _atom_site_fract_y
 _atom_site_fract_z
 _atom_site_occupancy
  Tl  Tl0  1  0.72369801  0.68424001  0.89665905  1
  Tl  Tl1  1  0.27630200  0.31576001  0.10334101  1
  Tl  Tl2  1  0.86144901  0.95913202  0.33161202  1
  Tl  Tl3  1  0.13855100  0.04086800  0.66838803  1
  Cu  Cu4  1  0.43312301  0.45051901  0.67443604  1
  Cu  Cu5  1  0.56687701  0.54948101  0.32556402  1
  S  S6  1  0.73977502  0.32025701  0.10865400  1
  S  S7  1  0.26022499  0.67974301  0.89134605  1
  S  S8  1  0.50661102  0.14017300  0.72639904  1
  S  S9  1  0.49338900  0.85982701  0.27360102  1
  S  S10  1  0.25206800  0.52723801  0.50488203  1
  S  S11  1  0.74793202  0.47276201  0.49511802  1
