# generated using pymatgen
data_Li4Ta2VWO11
_symmetry_space_group_name_H-M   'P 1'
_cell_length_a   6.27443600
_cell_length_b   6.29643106
_cell_length_c   6.36884022
_cell_angle_alpha   99.71582031
_cell_angle_beta   99.26142883
_cell_angle_gamma   99.23740387
_symmetry_Int_Tables_number   1
_chemical_formula_structural   Li4Ta2VWO11
_chemical_formula_sum   'Li4 Ta2 V1 W1 O11'
_cell_volume   240.17046706
_cell_formula_units_Z   1
loop_
 _symmetry_equiv_pos_site_id
 _symmetry_equiv_pos_as_xyz
  1  'x, y, z'
loop_
 _atom_site_type_symbol
 _atom_site_label
 _atom_site_symmetry_multiplicity
 _atom_site_fract_x
 _atom_site_fract_y
 _atom_site_fract_z
 _atom_site_occupancy
  Li  Li0  1  0.40029102  0.70006901  0.87038102  1
  Li  Li1  1  0.99545099  0.00911300  0.01322994  1
  Li  Li2  1  0.13406602  0.59981601  0.31783402  1
  Li  Li3  1  0.31147500  0.12711100  0.59230300  1
  V  V4  1  0.70472502  0.86716501  0.38293999  1
  Ta  Ta5  1  0.85747400  0.38187601  0.70336497  1
  Ta  Ta6  1  0.61560200  0.29167100  0.14352397  1
  W  W7  1  0.58028700  0.17799800  0.43510098  1
  O  O8  1  0.67090502  0.93085001  0.06288799  1
  O  O9  1  0.07396503  0.92297401  0.32466903  1
  O  O10  1  0.93801900  0.33806000  0.07069795  1
  O  O11  1  0.81751601  0.56857801  0.43218498  1
  O  O12  1  0.57449801  0.43913201  0.82417400  1
  O  O13  1  0.17214701  0.41141201  0.57329702  1
  O  O14  1  0.90960999  0.05802200  0.68187596  1
  O  O15  1  0.42472601  0.58086701  0.18224700  1
  O  O16  1  0.42657702  0.80758401  0.58022401  1
  O  O17  1  0.32294000  0.09661500  0.92312200  1
  O  O18  1  0.06959302  0.69082001  0.88604304  1
