# generated using pymatgen
data_LiFe(P2O7)2
_symmetry_space_group_name_H-M   'P 1'
_cell_length_a   4.97605085
_cell_length_b   6.62483501
_cell_length_c   8.15406322
_cell_angle_alpha   68.52559662
_cell_angle_beta   88.38151550
_cell_angle_gamma   88.40126038
_symmetry_Int_Tables_number   1
_chemical_formula_structural   LiFe(P2O7)2
_chemical_formula_sum   'Li1 Fe1 P4 O14'
_cell_volume   249.99857927
_cell_formula_units_Z   1
loop_
 _symmetry_equiv_pos_site_id
 _symmetry_equiv_pos_as_xyz
  1  'x, y, z'
loop_
 _atom_site_type_symbol
 _atom_site_label
 _atom_site_symmetry_multiplicity
 _atom_site_fract_x
 _atom_site_fract_y
 _atom_site_fract_z
 _atom_site_occupancy
  Li  Li0  1  0.75905411  0.78795198  0.26725297  1
  Fe  Fe1  1  0.24094603  0.21204799  0.73274695  1
  P  P2  1  0.27686106  0.45622599  0.31437998  1
  P  P3  1  0.72313908  0.54377399  0.68561994  1
  P  P4  1  0.24364702  0.10372600  0.16498998  1
  P  P5  1  0.75635312  0.89627398  0.83500994  1
  O  O6  1  0.56720907  0.52511399  0.31952797  1
  O  O7  1  0.95073403  0.04875200  0.22601596  1
  O  O8  1  0.04926611  0.95124897  0.77398396  1
  O  O9  1  0.08530307  0.64960098  0.23391899  1
  O  O10  1  0.17629504  0.28777799  0.48880397  1
  O  O11  1  0.28613305  0.33844999  0.17351398  1
  O  O12  1  0.30336702  0.13623000  0.97381894  1
  O  O13  1  0.43279106  0.47488599  0.68047195  1
  O  O14  1  0.82370510  0.71222198  0.51119595  1
  O  O15  1  0.55692902  0.05649900  0.70897694  1
  O  O16  1  0.44307112  0.94350097  0.29102298  1
  O  O17  1  0.69663312  0.86376998  0.02618098  1
  O  O18  1  0.71386709  0.66154998  0.82648594  1
  O  O19  1  0.91469707  0.35039899  0.76608093  1
