# generated using pymatgen
data_NbTl(MoSe)6
_symmetry_space_group_name_H-M   'P 1'
_cell_length_a   4.53725004
_cell_length_b   10.10048771
_cell_length_c   10.10048676
_cell_angle_alpha   120.00000000
_cell_angle_beta   90.00000000
_cell_angle_gamma   90.00000000
_symmetry_Int_Tables_number   1
_chemical_formula_structural   NbTl(MoSe)6
_chemical_formula_sum   'Nb1 Tl1 Mo6 Se6'
_cell_volume   400.87409549
_cell_formula_units_Z   1
loop_
 _symmetry_equiv_pos_site_id
 _symmetry_equiv_pos_as_xyz
  1  'x, y, z'
loop_
 _atom_site_type_symbol
 _atom_site_label
 _atom_site_symmetry_multiplicity
 _atom_site_fract_x
 _atom_site_fract_y
 _atom_site_fract_z
 _atom_site_occupancy
  Tl  Tl0  1  0.74999999  0.66666666  0.33333329  1
  Nb  Nb1  1  0.25000000  0.33333333  0.66666666  1
  Mo  Mo2  1  0.74999999  0.86110800  0.02394094  1
  Mo  Mo3  1  0.25000000  0.13889200  0.97605901  1
  Mo  Mo4  1  0.74999999  0.16283300  0.13889199  1
  Mo  Mo5  1  0.74999999  0.97605899  0.83716695  1
  Mo  Mo6  1  0.25000000  0.02394100  0.16283300  1
  Mo  Mo7  1  0.25000000  0.83716700  0.86110796  1
  Se  Se8  1  0.74999999  0.04843800  0.32275200  1
  Se  Se9  1  0.25000000  0.95156199  0.67724795  1
  Se  Se10  1  0.74999999  0.27431400  0.95156200  1
  Se  Se11  1  0.74999999  0.67724800  0.72568597  1
  Se  Se12  1  0.25000000  0.32275200  0.27431398  1
  Se  Se13  1  0.25000000  0.72568600  0.04843795  1
