# generated using pymatgen
data_SmYZrTiO8
_symmetry_space_group_name_H-M   'P 1'
_cell_length_a   5.22543001
_cell_length_b   5.22543001
_cell_length_c   6.78258228
_cell_angle_alpha   112.65674591
_cell_angle_beta   112.65674591
_cell_angle_gamma   90.00000000
_symmetry_Int_Tables_number   1
_chemical_formula_structural   SmYZrTiO8
_chemical_formula_sum   'Sm1 Y1 Zr1 Ti1 O8'
_cell_volume   155.30556030
_cell_formula_units_Z   1
loop_
 _symmetry_equiv_pos_site_id
 _symmetry_equiv_pos_as_xyz
  1  'x, y, z'
loop_
 _atom_site_type_symbol
 _atom_site_label
 _atom_site_symmetry_multiplicity
 _atom_site_fract_x
 _atom_site_fract_y
 _atom_site_fract_z
 _atom_site_occupancy
  Y  Y0  1  0.25000001  0.75000000  0.50000001  1
  Sm  Sm1  1  0.50000000  0.50000000  0.00000001  1
  Ti  Ti2  1  0.75000000  0.25000000  0.50000001  1
  Zr  Zr3  1  0.00000000  0.00000000  0.00000000  1
  O  O4  1  0.58937400  0.18013300  0.67160001  1
  O  O5  1  0.08222600  0.49146700  0.67160001  1
  O  O6  1  0.50853300  0.41062600  0.32840001  1
  O  O7  1  0.81986701  0.91777400  0.32840002  1
  O  O8  1  0.24146701  0.83937400  0.17160001  1
  O  O9  1  0.93013300  0.33222600  0.17160001  1
  O  O10  1  0.66777401  0.75853300  0.82840002  1
  O  O11  1  0.16062600  0.06986700  0.82840001  1
