# generated using pymatgen
data_LiVF4
_symmetry_space_group_name_H-M   'P 1'
_cell_length_a   4.70249033
_cell_length_b   5.04234314
_cell_length_c   9.10624695
_cell_angle_alpha   90.00000000
_cell_angle_beta   97.38497162
_cell_angle_gamma   90.00000000
_symmetry_Int_Tables_number   1
_chemical_formula_structural   LiVF4
_chemical_formula_sum   'Li3 V3 F12'
_cell_volume   214.13230664
_cell_formula_units_Z   3
loop_
 _symmetry_equiv_pos_site_id
 _symmetry_equiv_pos_as_xyz
  1  'x, y, z'
loop_
 _atom_site_type_symbol
 _atom_site_label
 _atom_site_symmetry_multiplicity
 _atom_site_fract_x
 _atom_site_fract_y
 _atom_site_fract_z
 _atom_site_occupancy
  Li  Li0  1  0.51663999  0.98087297  0.67897205  1
  Li  Li1  1  0.01664000  0.51912699  0.17897201  1
  V  V2  1  0.48335999  0.01912700  0.32102803  1
  Li  Li3  1  0.98335999  0.48087299  0.82102807  1
  V  V4  1  0.49999999  0.49999999  0.50000004  1
  V  V5  1  0.00000000  0.00000000  0.00000000  1
  F  F6  1  0.73234699  0.19529599  0.46706105  1
  F  F7  1  0.23234700  0.30470399  0.96706105  1
  F  F8  1  0.26765300  0.80470398  0.53293903  1
  F  F9  1  0.76765299  0.69529598  0.03293903  1
  F  F10  1  0.80522799  0.20658799  0.13847903  1
  F  F11  1  0.30522800  0.29341199  0.63847904  1
  F  F12  1  0.19477200  0.79341198  0.86152105  1
  F  F13  1  0.69477199  0.70658798  0.36152104  1
  F  F14  1  0.75136499  0.16871100  0.82878206  1
  F  F15  1  0.25136500  0.33128899  0.32878202  1
  F  F16  1  0.24863500  0.83128898  0.17121802  1
  F  F17  1  0.74863499  0.66871098  0.67121806  1
