# generated using pymatgen
data_Al3Si(HO2)4
_symmetry_space_group_name_H-M   'P 1'
_cell_length_a   3.01672101
_cell_length_b   4.56777000
_cell_length_c   9.92279053
_cell_angle_alpha   90.00000000
_cell_angle_beta   90.00000000
_cell_angle_gamma   90.00000000
_symmetry_Int_Tables_number   1
_chemical_formula_structural   Al3Si(HO2)4
_chemical_formula_sum   'Al3 Si1 H4 O8'
_cell_volume   136.73295499
_cell_formula_units_Z   1
loop_
 _symmetry_equiv_pos_site_id
 _symmetry_equiv_pos_as_xyz
  1  'x, y, z'
loop_
 _atom_site_type_symbol
 _atom_site_label
 _atom_site_symmetry_multiplicity
 _atom_site_fract_x
 _atom_site_fract_y
 _atom_site_fract_z
 _atom_site_occupancy
  Al  Al0  1  0.25000000  0.44869900  0.35503802  1
  Al  Al1  1  0.25000000  0.05130100  0.85503804  1
  Si  Si2  1  0.75000000  0.55130100  0.64496203  1
  Al  Al3  1  0.75000000  0.94869900  0.14496201  1
  H  H4  1  0.25000000  0.09463100  0.58795303  1
  H  H5  1  0.25000000  0.40536900  0.08795300  1
  H  H6  1  0.75000000  0.90536900  0.41204702  1
  H  H7  1  0.75000000  0.59463100  0.91204704  1
  O  O8  1  0.25000000  0.80056300  0.69416703  1
  O  O9  1  0.25000000  0.69943700  0.19416701  1
  O  O10  1  0.75000000  0.19943700  0.30583301  1
  O  O11  1  0.75000000  0.30056300  0.80583304  1
  O  O12  1  0.25000000  0.30439700  0.55516503  1
  O  O13  1  0.25000000  0.19560300  0.05516500  1
  O  O14  1  0.75000000  0.69560300  0.44483502  1
  O  O15  1  0.75000000  0.80439700  0.94483505  1
