# generated using pymatgen
data_KPSe3
_symmetry_space_group_name_H-M   'P 1'
_cell_length_a   7.13022614
_cell_length_b   7.91295004
_cell_length_c   9.90955639
_cell_angle_alpha   90.00000000
_cell_angle_beta   91.83181763
_cell_angle_gamma   90.00000000
_symmetry_Int_Tables_number   1
_chemical_formula_structural   KPSe3
_chemical_formula_sum   'K4 P4 Se12'
_cell_volume   558.82257668
_cell_formula_units_Z   4
loop_
 _symmetry_equiv_pos_site_id
 _symmetry_equiv_pos_as_xyz
  1  'x, y, z'
loop_
 _atom_site_type_symbol
 _atom_site_label
 _atom_site_symmetry_multiplicity
 _atom_site_fract_x
 _atom_site_fract_y
 _atom_site_fract_z
 _atom_site_occupancy
  K  K0  1  0.53503199  0.10961200  0.25114699  1
  K  K1  1  0.96496798  0.60961200  0.24885299  1
  K  K2  1  0.46496799  0.89038800  0.74885298  1
  K  K3  1  0.03503200  0.39038800  0.75114698  1
  P  P4  1  0.05825900  0.10573600  0.43635199  1
  P  P5  1  0.44174099  0.60573600  0.06364800  1
  P  P6  1  0.94174098  0.89426400  0.56364798  1
  P  P7  1  0.55825899  0.39426400  0.93635197  1
  Se  Se8  1  0.60195899  0.50135000  0.73455198  1
  Se  Se9  1  0.89804098  0.00135000  0.76544798  1
  Se  Se10  1  0.39804099  0.49865000  0.26544799  1
  Se  Se11  1  0.10195900  0.99865000  0.23455199  1
  Se  Se12  1  0.81707198  0.30045800  0.04138199  1
  Se  Se13  1  0.68292799  0.80045800  0.45861798  1
  Se  Se14  1  0.18292800  0.69954200  0.95861798  1
  Se  Se15  1  0.31707199  0.19954200  0.54138198  1
  Se  Se16  1  0.33844199  0.19791100  0.94463198  1
  Se  Se17  1  0.16155800  0.69791100  0.55536799  1
  Se  Se18  1  0.66155799  0.80208900  0.05536799  1
  Se  Se19  1  0.83844198  0.30208900  0.44463198  1
