# generated using pymatgen
data_LaTiO3
_symmetry_space_group_name_H-M   'P 1'
_cell_length_a   5.72759342
_cell_length_b   5.76225281
_cell_length_c   8.26377583
_cell_angle_alpha   90.00000000
_cell_angle_beta   90.45067596
_cell_angle_gamma   90.00000000
_symmetry_Int_Tables_number   1
_chemical_formula_structural   LaTiO3
_chemical_formula_sum   'La4 Ti4 O12'
_cell_volume   272.72790857
_cell_formula_units_Z   4
loop_
 _symmetry_equiv_pos_site_id
 _symmetry_equiv_pos_as_xyz
  1  'x, y, z'
loop_
 _atom_site_type_symbol
 _atom_site_label
 _atom_site_symmetry_multiplicity
 _atom_site_fract_x
 _atom_site_fract_y
 _atom_site_fract_z
 _atom_site_occupancy
  La  La0  1  0.24310599  0.75769503  0.00073800  1
  La  La1  1  0.75689397  0.25769501  0.99926202  1
  La  La2  1  0.24928999  0.80766603  0.49993401  1
  La  La3  1  0.75070997  0.30766601  0.50006602  1
  Ti  Ti4  1  0.74623897  0.77516903  0.24406602  1
  Ti  Ti5  1  0.25376099  0.27516901  0.75593401  1
  Ti  Ti6  1  0.75754497  0.76926803  0.75034402  1
  Ti  Ti7  1  0.24245499  0.26926801  0.24965601  1
  O  O8  1  0.54231798  0.02751900  0.69322401  1
  O  O9  1  0.45768198  0.52751902  0.30677601  1
  O  O10  1  0.51078098  0.05906100  0.30747101  1
  O  O11  1  0.48921898  0.55906102  0.69252901  1
  O  O12  1  0.97874996  0.47200802  0.24603402  1
  O  O13  1  0.02125000  0.97200803  0.75396600  1
  O  O14  1  0.95004296  0.49390002  0.75691702  1
  O  O15  1  0.04995700  0.99390003  0.24308300  1
  O  O16  1  0.82574597  0.74682602  0.50548002  1
  O  O17  1  0.17425399  0.24682601  0.49452000  1
  O  O18  1  0.70736997  0.77427703  0.97462902  1
  O  O19  1  0.29262999  0.27427701  0.02537101  1
