# generated using pymatgen
data_Sr2Li2NiCl8
_symmetry_space_group_name_H-M   'P 1'
_cell_length_a   6.53273249
_cell_length_b   7.59762812
_cell_length_c   7.93814611
_cell_angle_alpha   61.40913773
_cell_angle_beta   73.07089233
_cell_angle_gamma   90.00000000
_symmetry_Int_Tables_number   1
_chemical_formula_structural   Sr2Li2NiCl8
_chemical_formula_sum   'Sr2 Li2 Ni1 Cl8'
_cell_volume   326.37476984
_cell_formula_units_Z   1
loop_
 _symmetry_equiv_pos_site_id
 _symmetry_equiv_pos_as_xyz
  1  'x, y, z'
loop_
 _atom_site_type_symbol
 _atom_site_label
 _atom_site_symmetry_multiplicity
 _atom_site_fract_x
 _atom_site_fract_y
 _atom_site_fract_z
 _atom_site_occupancy
  Sr  Sr0  1  0.65870003  0.72932700  0.54134596  1
  Sr  Sr1  1  0.34130001  0.27067300  0.45865398  1
  Li  Li2  1  0.50000001  0.00000000  0.00000000  1
  Li  Li3  1  1.00000003  0.26061000  -0.00000001  1
  Ni  Ni4  1  0.00000001  0.73939000  0.99999994  1
  Cl  Cl5  1  0.40181402  0.34110300  0.77376196  1
  Cl  Cl6  1  0.40181402  0.88513500  0.77376194  1
  Cl  Cl7  1  0.59818603  0.65889700  0.22623797  1
  Cl  Cl8  1  0.59818602  0.11486500  0.22623799  1
  Cl  Cl9  1  0.91383903  0.10868300  0.78263397  1
  Cl  Cl10  1  0.08616101  0.89131700  0.21736596  1
  Cl  Cl11  1  0.95763004  0.61928600  0.76142795  1
  Cl  Cl12  1  0.04237001  0.38071400  0.23857198  1
