# generated using pymatgen
data_Y6ZrRu(NO)6
_symmetry_space_group_name_H-M   'P 1'
_cell_length_a   5.52936077
_cell_length_b   5.57643366
_cell_length_c   10.32857227
_cell_angle_alpha   75.46685791
_cell_angle_beta   74.92567444
_cell_angle_gamma   60.66498947
_symmetry_Int_Tables_number   1
_chemical_formula_structural   Y6ZrRu(NO)6
_chemical_formula_sum   'Y6 Zr1 Ru1 N6 O6'
_cell_volume   265.17887026
_cell_formula_units_Z   1
loop_
 _symmetry_equiv_pos_site_id
 _symmetry_equiv_pos_as_xyz
  1  'x, y, z'
loop_
 _atom_site_type_symbol
 _atom_site_label
 _atom_site_symmetry_multiplicity
 _atom_site_fract_x
 _atom_site_fract_y
 _atom_site_fract_z
 _atom_site_occupancy
  Y  Y0  1  0.69219905  0.68811000  0.96203101  1
  Y  Y1  1  0.83042906  0.81659301  0.53778801  1
  Y  Y2  1  0.41200703  0.44224600  0.71278501  1
  Y  Y3  1  0.92084307  0.95277201  0.21272100  1
  Y  Y4  1  0.08698701  0.06625500  0.78794401  1
  Y  Y5  1  0.56560304  0.57969300  0.28691800  1
  Zr  Zr6  1  0.20091001  0.16862300  0.46367301  1
  Ru  Ru7  1  0.31965302  0.30908500  0.03748600  1
  N  N8  1  0.08405102  0.67533900  0.87355901  1
  O  O9  1  0.41775904  0.82880301  0.62158901  1
  N  N10  1  0.38386902  0.07415700  0.87450301  1
  O  O11  1  0.11204302  0.42465200  0.62810101  1
  O  O12  1  0.16985003  0.86733201  0.37678000  1
  N  N13  1  0.62094705  0.91967101  0.12494400  1
  O  O14  1  0.57749003  0.17319900  0.36986101  1
  N  N15  1  0.92122505  0.32669700  0.12138000  1
  N  N16  1  0.67952204  0.37316900  0.87593501  1
  O  O17  1  0.81245904  0.12914000  0.62543601  1
  O  O18  1  0.87293405  0.56425900  0.37881601  1
  N  N19  1  0.31921803  0.62020400  0.12775000  1
