# generated using pymatgen
data_TaPb3O16
_symmetry_space_group_name_H-M   'P 1'
_cell_length_a   5.29216814
_cell_length_b   5.49951649
_cell_length_c   9.33048725
_cell_angle_alpha   88.81727600
_cell_angle_beta   89.92568207
_cell_angle_gamma   88.90872955
_symmetry_Int_Tables_number   1
_chemical_formula_structural   TaPb3O16
_chemical_formula_sum   'Ta1 Pb3 O16'
_cell_volume   271.45070647
_cell_formula_units_Z   1
loop_
 _symmetry_equiv_pos_site_id
 _symmetry_equiv_pos_as_xyz
  1  'x, y, z'
loop_
 _atom_site_type_symbol
 _atom_site_label
 _atom_site_symmetry_multiplicity
 _atom_site_fract_x
 _atom_site_fract_y
 _atom_site_fract_z
 _atom_site_occupancy
  Pb  Pb0  1  0.56825600  0.77054800  0.25046005  1
  Ta  Ta1  1  0.00000001  0.50000000  0.50000003  1
  Pb  Pb2  1  0.43174399  0.22945200  0.74954005  1
  Pb  Pb3  1  0.00000000  0.00000000  0.00000000  1
  O  O4  1  0.72220100  0.94771400  0.12529405  1
  O  O5  1  0.80166399  0.69856400  0.37218706  1
  O  O6  1  0.19833600  0.30143600  0.62781304  1
  O  O7  1  0.27779899  0.05228600  0.87470605  1
  O  O8  1  0.60940698  0.00784800  0.65604805  1
  O  O9  1  0.20233001  0.80677700  0.11895603  1
  O  O10  1  0.08621301  0.76124600  0.59645005  1
  O  O11  1  0.91742299  0.73925200  0.90256208  1
  O  O12  1  0.27951000  0.53894300  0.38379904  1
  O  O13  1  0.44132700  0.50697000  0.84019706  1
  O  O14  1  0.55867299  0.49303000  0.15980304  1
  O  O15  1  0.72048999  0.46105700  0.61620106  1
  O  O16  1  0.08257700  0.26074800  0.09743801  1
  O  O17  1  0.91378698  0.23875400  0.40355005  1
  O  O18  1  0.79766998  0.19322300  0.88104407  1
  O  O19  1  0.39059301  0.99215200  0.34395205  1
