# generated using pymatgen
data_LaTiO3
_symmetry_space_group_name_H-M   'P 1'
_cell_length_a   5.67049503
_cell_length_b   5.83290052
_cell_length_c   8.13544655
_cell_angle_alpha   90.00000000
_cell_angle_beta   90.00000000
_cell_angle_gamma   89.74587250
_symmetry_Int_Tables_number   1
_chemical_formula_structural   LaTiO3
_chemical_formula_sum   'La4 Ti4 O12'
_cell_volume   269.08077415
_cell_formula_units_Z   4
loop_
 _symmetry_equiv_pos_site_id
 _symmetry_equiv_pos_as_xyz
  1  'x, y, z'
loop_
 _atom_site_type_symbol
 _atom_site_label
 _atom_site_symmetry_multiplicity
 _atom_site_fract_x
 _atom_site_fract_y
 _atom_site_fract_z
 _atom_site_occupancy
  La  La0  1  0.98808599  0.04608100  1.00000006  1
  La  La1  1  0.48809800  0.45418399  0.50000003  1
  La  La2  1  0.01340601  0.95264097  0.50000003  1
  La  La3  1  0.51333600  0.55315099  -0.00000000  1
  Ti  Ti4  1  0.49893701  0.99955497  0.24748901  1
  Ti  Ti5  1  0.00063501  0.50037299  0.75307504  1
  Ti  Ti6  1  0.49893701  0.99955497  0.75251104  1
  Ti  Ti7  1  0.00063501  0.50037299  0.24692501  1
  O  O8  1  0.39954601  0.94864297  -0.00000000  1
  O  O9  1  0.12417700  0.46474699  -0.00000000  1
  O  O10  1  0.60239600  0.03623900  0.50000003  1
  O  O11  1  0.89972400  0.53458999  0.50000003  1
  O  O12  1  0.19876300  0.20030399  0.30366302  1
  O  O13  1  0.29837201  0.70230398  0.69730804  1
  O  O14  1  0.79546600  0.79534598  0.80737504  1
  O  O15  1  0.69344200  0.30697999  0.18696301  1
  O  O16  1  0.79546600  0.79534598  0.19262501  1
  O  O17  1  0.69344200  0.30697999  0.81303705  1
  O  O18  1  0.19876300  0.20030399  0.69633704  1
  O  O19  1  0.29837201  0.70230398  0.30269202  1
