# generated using pymatgen
data_K4Tl3BiS10
_symmetry_space_group_name_H-M   'P 1'
_cell_length_a   6.93455887
_cell_length_b   6.93455887
_cell_length_c   11.63268471
_cell_angle_alpha   75.08567810
_cell_angle_beta   75.08567810
_cell_angle_gamma   70.20915222
_symmetry_Int_Tables_number   1
_chemical_formula_structural   K4Tl3BiS10
_chemical_formula_sum   'K4 Tl3 Bi1 S10'
_cell_volume   499.62742180
_cell_formula_units_Z   1
loop_
 _symmetry_equiv_pos_site_id
 _symmetry_equiv_pos_as_xyz
  1  'x, y, z'
loop_
 _atom_site_type_symbol
 _atom_site_label
 _atom_site_symmetry_multiplicity
 _atom_site_fract_x
 _atom_site_fract_y
 _atom_site_fract_z
 _atom_site_occupancy
  K  K0  1  0.10356501  0.46099202  0.81716098  1
  K  K1  1  0.53900804  0.89643503  0.68283895  1
  K  K2  1  0.89643504  0.53900802  0.18283894  1
  K  K3  1  0.46099202  0.10356500  0.31716098  1
  Tl  Tl4  1  0.94004204  0.24908901  0.55795596  1
  Tl  Tl5  1  0.75091103  0.05995800  0.94204397  1
  Tl  Tl6  1  0.05995802  0.75091103  0.44204397  1
  Bi  Bi7  1  0.24908903  0.94004203  0.05795595  1
  S  S8  1  0.31493902  0.68506102  0.24999996  1
  S  S9  1  0.68506103  0.31493901  0.74999996  1
  S  S10  1  0.12513802  0.85154803  0.61464096  1
  S  S11  1  0.14845202  0.87486203  0.88535896  1
  S  S12  1  0.87486204  0.14845201  0.38535896  1
  S  S13  1  0.85154804  0.12513800  0.11464096  1
  S  S14  1  0.75092704  0.64135802  0.46219795  1
  S  S15  1  0.35864202  0.24907301  0.03780198  1
  S  S16  1  0.64135804  0.75092703  0.96219795  1
  S  S17  1  0.24907302  0.35864201  0.53780198  1
