# generated using pymatgen
data_Li3Ni2O7
_symmetry_space_group_name_H-M   'P 1'
_cell_length_a   5.78163385
_cell_length_b   5.78163433
_cell_length_c   5.78163433
_cell_angle_alpha   60.22477722
_cell_angle_beta   60.22478867
_cell_angle_gamma   60.22478485
_symmetry_Int_Tables_number   1
_chemical_formula_structural   Li3Ni2O7
_chemical_formula_sum   'Li3 Ni2 O7'
_cell_volume   137.35402989
_cell_formula_units_Z   1
loop_
 _symmetry_equiv_pos_site_id
 _symmetry_equiv_pos_as_xyz
  1  'x, y, z'
loop_
 _atom_site_type_symbol
 _atom_site_label
 _atom_site_symmetry_multiplicity
 _atom_site_fract_x
 _atom_site_fract_y
 _atom_site_fract_z
 _atom_site_occupancy
  Li  Li0  1  0.50000002  0.49999999  0.00000003  1
  Li  Li1  1  1.00000004  0.49999999  0.50000003  1
  Li  Li2  1  0.50000001  0.00000000  0.50000000  1
  Ni  Ni3  1  0.00000000  0.00000000  0.00000000  1
  Ni  Ni4  1  0.23152601  0.23152500  0.73895700  1
  O  O5  1  0.73487203  0.73487098  0.73487203  1
  O  O6  1  0.23152602  0.73895598  0.23152602  1
  O  O7  1  0.73895703  0.23152500  0.23152602  1
  O  O8  1  0.26104302  0.76847498  0.76847402  1
  O  O9  1  0.76847403  0.26104399  0.76847401  1
  O  O10  1  0.26512801  0.26512899  0.26512801  1
  O  O11  1  0.76847403  0.76847498  0.26104304  1
