# generated using pymatgen
data_Zr2Al2Ru5
_symmetry_space_group_name_H-M   'P 1'
_cell_length_a   3.60991096
_cell_length_b   7.12705994
_cell_length_c   7.12705994
_cell_angle_alpha   120.00000000
_cell_angle_beta   90.00000000
_cell_angle_gamma   90.00000000
_symmetry_Int_Tables_number   1
_chemical_formula_structural   Zr2Al2Ru5
_chemical_formula_sum   'Zr2 Al2 Ru5'
_cell_volume   158.79906627
_cell_formula_units_Z   1
loop_
 _symmetry_equiv_pos_site_id
 _symmetry_equiv_pos_as_xyz
  1  'x, y, z'
loop_
 _atom_site_type_symbol
 _atom_site_label
 _atom_site_symmetry_multiplicity
 _atom_site_fract_x
 _atom_site_fract_y
 _atom_site_fract_z
 _atom_site_occupancy
  Zr  Zr0  1  -0.00000000  0.59949201  0.59949200  1
  Zr  Zr1  1  1.00000001  0.00000000  0.40050800  1
  Al  Al2  1  -0.00000000  0.40050800  -0.00000000  1
  Al  Al3  1  0.50000000  0.25823100  0.25823100  1
  Ru  Ru4  1  0.50000000  1.00000001  0.74176900  1
  Ru  Ru5  1  0.50000000  0.74176901  1.00000001  1
  Ru  Ru6  1  0.50000000  0.66666667  0.33333334  1
  Ru  Ru7  1  0.50000000  0.33333334  0.66666667  1
  Ru  Ru8  1  0.00000000  0.00000000  0.00000000  1
