# generated using pymatgen
data_Zr(BIr2)3
_symmetry_space_group_name_H-M   'P 1'
_cell_length_a   4.02695322
_cell_length_b   4.02695322
_cell_length_c   9.82492733
_cell_angle_alpha   90.00000000
_cell_angle_beta   90.00000000
_cell_angle_gamma   90.00000000
_symmetry_Int_Tables_number   1
_chemical_formula_structural   Zr(BIr2)3
_chemical_formula_sum   'Zr1 B3 Ir6'
_cell_volume   159.32448231
_cell_formula_units_Z   1
loop_
 _symmetry_equiv_pos_site_id
 _symmetry_equiv_pos_as_xyz
  1  'x, y, z'
loop_
 _atom_site_type_symbol
 _atom_site_label
 _atom_site_symmetry_multiplicity
 _atom_site_fract_x
 _atom_site_fract_y
 _atom_site_fract_z
 _atom_site_occupancy
  Zr  Zr0  1  0.00000000  0.00000000  0.99145497  1
  B  B1  1  0.49999997  0.49999997  0.50345498  1
  B  B2  1  0.00000000  0.49999997  0.25974899  1
  B  B3  1  0.49999997  0.00000000  0.74597097  1
  Ir  Ir4  1  0.49999997  0.00000000  0.25974899  1
  Ir  Ir5  1  0.00000000  0.49999997  0.74597097  1
  Ir  Ir6  1  0.49999997  0.49999997  0.12798700  1
  Ir  Ir7  1  0.00000000  0.00000000  0.63137598  1
  Ir  Ir8  1  0.00000000  0.00000000  0.36897199  1
  Ir  Ir9  1  0.49999997  0.49999997  0.86531597  1
