# generated using pymatgen
data_LiTa2O17
_symmetry_space_group_name_H-M   'P 1'
_cell_length_a   5.36185694
_cell_length_b   5.46731806
_cell_length_c   7.66461182
_cell_angle_alpha   90.00000000
_cell_angle_beta   90.00000000
_cell_angle_gamma   90.00000000
_symmetry_Int_Tables_number   1
_chemical_formula_structural   LiTa2O17
_chemical_formula_sum   'Li1 Ta2 O17'
_cell_volume   224.68792109
_cell_formula_units_Z   1
loop_
 _symmetry_equiv_pos_site_id
 _symmetry_equiv_pos_as_xyz
  1  'x, y, z'
loop_
 _atom_site_type_symbol
 _atom_site_label
 _atom_site_symmetry_multiplicity
 _atom_site_fract_x
 _atom_site_fract_y
 _atom_site_fract_z
 _atom_site_occupancy
  Li  Li0  1  0.00997200  0.45156800  0.25000001  1
  Ta  Ta1  1  0.99002801  0.54843199  0.75000002  1
  O  O2  1  0.50997201  0.04843200  0.75000002  1
  Ta  Ta3  1  0.49002801  0.95156799  0.25000001  1
  O  O4  1  0.00000000  0.00000000  0.00000000  1
  O  O5  1  0.50000001  0.49999999  0.00000000  1
  O  O6  1  0.00000000  0.00000000  0.50000001  1
  O  O7  1  0.50000001  0.49999999  0.50000001  1
  O  O8  1  0.29336100  0.20402800  0.03870400  1
  O  O9  1  0.70663901  0.79597199  0.96129602  1
  O  O10  1  0.79336101  0.29597200  0.96129602  1
  O  O11  1  0.70663901  0.79597199  0.53870401  1
  O  O12  1  0.20663900  0.70402799  0.03870400  1
  O  O13  1  0.29336100  0.20402800  0.46129601  1
  O  O14  1  0.20663900  0.70402799  0.46129601  1
  O  O15  1  0.79336101  0.29597200  0.53870401  1
  O  O16  1  0.57324301  0.51462899  0.25000001  1
  O  O17  1  0.42675700  0.48537099  0.75000002  1
  O  O18  1  0.07324300  0.98537099  0.75000002  1
  O  O19  1  0.92675701  0.01462900  0.25000001  1
