# generated using pymatgen
data_Cs2BaEu4Cl13
_symmetry_space_group_name_H-M   'P 1'
_cell_length_a   4.44776201
_cell_length_b   14.86979198
_cell_length_c   14.86979103
_cell_angle_alpha   120.00000000
_cell_angle_beta   90.00000000
_cell_angle_gamma   90.00000000
_symmetry_Int_Tables_number   1
_chemical_formula_structural   Cs2BaEu4Cl13
_chemical_formula_sum   'Cs2 Ba1 Eu4 Cl13'
_cell_volume   851.69075187
_cell_formula_units_Z   1
loop_
 _symmetry_equiv_pos_site_id
 _symmetry_equiv_pos_as_xyz
  1  'x, y, z'
loop_
 _atom_site_type_symbol
 _atom_site_label
 _atom_site_symmetry_multiplicity
 _atom_site_fract_x
 _atom_site_fract_y
 _atom_site_fract_z
 _atom_site_occupancy
  Cs  Cs0  1  0.50000000  0.28329500  0.28329500  1
  Cs  Cs1  1  0.50000000  0.71670499  1.00000001  1
  Ba  Ba2  1  0.50000000  0.00000000  0.71670502  1
  Eu  Eu3  1  0.50000000  0.33333333  0.66666668  1
  Eu  Eu4  1  0.50000000  0.66666666  0.33333333  1
  Eu  Eu5  1  1.00000000  0.67605399  0.67605400  1
  Eu  Eu6  1  -0.00000000  0.00000000  0.32394601  1
  Cl  Cl7  1  -0.00000000  0.32394600  -0.00000001  1
  Cl  Cl8  1  0.50000000  0.82409899  0.82409900  1
  Cl  Cl9  1  -0.00000000  0.76101299  0.20502699  1
  Cl  Cl10  1  -0.00000000  0.44401400  0.23898700  1
  Cl  Cl11  1  0.50000000  0.00000000  0.17590101  1
  Cl  Cl12  1  0.50000000  0.17590100  -0.00000000  1
  Cl  Cl13  1  0.50000000  0.00000000  0.46829701  1
  Cl  Cl14  1  0.50000000  0.53170299  0.53170300  1
  Cl  Cl15  1  0.50000000  0.46829699  -0.00000001  1
  Cl  Cl16  1  -0.00000000  0.23898700  0.44401401  1
  Cl  Cl17  1  1.00000000  0.55598599  0.79497301  1
  Cl  Cl18  1  1.00000000  0.20502700  0.76101302  1
  Cl  Cl19  1  -0.00000000  0.79497299  0.55598600  1
