# generated using pymatgen
data_KSI2
_symmetry_space_group_name_H-M   'P 1'
_cell_length_a   5.38910818
_cell_length_b   5.38910818
_cell_length_c   6.84162092
_cell_angle_alpha   113.19410706
_cell_angle_beta   113.19410706
_cell_angle_gamma   90.00000000
_symmetry_Int_Tables_number   1
_chemical_formula_structural   KSI2
_chemical_formula_sum   'K1 S1 I2'
_cell_volume   165.02300350
_cell_formula_units_Z   1
loop_
 _symmetry_equiv_pos_site_id
 _symmetry_equiv_pos_as_xyz
  1  'x, y, z'
loop_
 _atom_site_type_symbol
 _atom_site_label
 _atom_site_symmetry_multiplicity
 _atom_site_fract_x
 _atom_site_fract_y
 _atom_site_fract_z
 _atom_site_occupancy
  K  K0  1  0.00000000  0.00000000  0.00000000  1
  I  I1  1  0.75000001  0.25000000  0.50000005  1
  I  I2  1  0.25000005  0.75000000  0.50000007  1
  S  S3  1  0.50000003  0.50000000  0.00000007  1
