# generated using pymatgen
data_Mg11Fe2Si3
_symmetry_space_group_name_H-M   'P 1'
_cell_length_a   6.37666416
_cell_length_b   6.37666464
_cell_length_c   10.30834866
_cell_angle_alpha   90.00000000
_cell_angle_beta   90.00000000
_cell_angle_gamma   119.99999237
_symmetry_Int_Tables_number   1
_chemical_formula_structural   Mg11Fe2Si3
_chemical_formula_sum   'Mg11 Fe2 Si3'
_cell_volume   363.00021819
_cell_formula_units_Z   1
loop_
 _symmetry_equiv_pos_site_id
 _symmetry_equiv_pos_as_xyz
  1  'x, y, z'
loop_
 _atom_site_type_symbol
 _atom_site_label
 _atom_site_symmetry_multiplicity
 _atom_site_fract_x
 _atom_site_fract_y
 _atom_site_fract_z
 _atom_site_occupancy
  Mg  Mg0  1  0.33333328  0.66666667  0.50000002  1
  Mg  Mg1  1  0.83366697  0.16633400  1.00000003  1
  Mg  Mg2  1  0.83325697  0.16674300  0.50000002  1
  Mg  Mg3  1  0.83366694  0.66733400  1.00000003  1
  Mg  Mg4  1  0.83325694  0.66651400  0.50000002  1
  Mg  Mg5  1  0.33266698  0.16633400  1.00000003  1
  Mg  Mg6  1  0.33348598  0.16674300  0.50000002  1
  Mg  Mg7  1  0.00010497  0.50005200  0.75033903  1
  Mg  Mg8  1  0.00010497  0.50005200  0.24966101  1
  Mg  Mg9  1  0.49994692  0.99989400  0.75033903  1
  Mg  Mg10  1  0.49994692  0.99989400  0.24966101  1
  Si  Si11  1  0.49994695  0.50005200  0.75033903  1
  Si  Si12  1  0.49994695  0.50005200  0.24966101  1
  Si  Si13  1  0.00000000  0.00000000  0.74966903  1
  Fe  Fe14  1  0.00000000  0.00000000  0.25033101  1
  Fe  Fe15  1  0.33333328  0.66666667  1.00000003  1
