# generated using pymatgen
data_Mn3V2CrC6
_symmetry_space_group_name_H-M   'P 1'
_cell_length_a   3.52730989
_cell_length_b   3.91367698
_cell_length_c   13.46979618
_cell_angle_alpha   90.00000000
_cell_angle_beta   90.00000000
_cell_angle_gamma   90.00000000
_symmetry_Int_Tables_number   1
_chemical_formula_structural   Mn3V2CrC6
_chemical_formula_sum   'Mn3 V2 Cr1 C6'
_cell_volume   185.94718938
_cell_formula_units_Z   1
loop_
 _symmetry_equiv_pos_site_id
 _symmetry_equiv_pos_as_xyz
  1  'x, y, z'
loop_
 _atom_site_type_symbol
 _atom_site_label
 _atom_site_symmetry_multiplicity
 _atom_site_fract_x
 _atom_site_fract_y
 _atom_site_fract_z
 _atom_site_occupancy
  Mn  Mn0  1  0.50000001  0.50000000  0.25000000  1
  Mn  Mn1  1  0.50000001  0.50000000  0.74999999  1
  V  V2  1  0.00000000  0.00000000  0.37352699  1
  V  V3  1  0.00000000  0.00000000  0.87352699  1
  Cr  Cr4  1  0.00000000  0.00000000  0.12647300  1
  Mn  Mn5  1  0.00000000  0.00000000  0.62647299  1
  C  C6  1  0.50000001  0.50000000  0.00000000  1
  C  C7  1  0.50000001  0.50000000  0.49999999  1
  C  C8  1  0.50000001  0.00000000  0.25000000  1
  C  C9  1  0.50000001  0.00000000  0.74999999  1
  C  C10  1  -0.00000000  0.50000000  0.00000000  1
  C  C11  1  -0.00000000  0.50000000  0.49999999  1
