# generated using pymatgen
data_Al3Si3N8
_symmetry_space_group_name_H-M   'P 1'
_cell_length_a   5.59497213
_cell_length_b   5.59497213
_cell_length_c   6.55212641
_cell_angle_alpha   115.27468872
_cell_angle_beta   115.27468872
_cell_angle_gamma   90.00000000
_symmetry_Int_Tables_number   1
_chemical_formula_structural   Al3Si3N8
_chemical_formula_sum   'Al3 Si3 N8'
_cell_volume   163.49563814
_cell_formula_units_Z   1
loop_
 _symmetry_equiv_pos_site_id
 _symmetry_equiv_pos_as_xyz
  1  'x, y, z'
loop_
 _atom_site_type_symbol
 _atom_site_label
 _atom_site_symmetry_multiplicity
 _atom_site_fract_x
 _atom_site_fract_y
 _atom_site_fract_z
 _atom_site_occupancy
  Al  Al0  1  0.87499995  0.12499999  0.24999995  1
  Al  Al1  1  0.87499995  0.12499999  0.74999996  1
  Al  Al2  1  0.87499991  0.62499996  0.74999992  1
  Si  Si3  1  0.37499997  0.12499999  0.24999998  1
  Si  Si4  1  0.24999994  0.74999995  0.49999994  1
  Si  Si5  1  0.49999994  0.49999997  -0.00000007  1
  N  N6  1  0.61139191  0.84831495  0.69662992  1
  N  N7  1  0.15168497  0.38860797  0.30336997  1
  N  N8  1  0.15168493  0.91476194  0.30336993  1
  N  N9  1  0.13860797  0.40168497  0.80336998  1
  N  N10  1  0.66476194  0.40168497  0.80336995  1
  N  N11  1  0.59831491  0.86139194  0.19662990  1
  N  N12  1  0.08523794  0.84831495  0.69662994  1
  N  N13  1  0.59831495  0.33523798  0.19662995  1
