# generated using pymatgen
data_SrEu3(CuHg3)2
_symmetry_space_group_name_H-M   'P 1'
_cell_length_a   4.72006989
_cell_length_b   7.88123322
_cell_length_c   8.81831455
_cell_angle_alpha   90.00000000
_cell_angle_beta   90.00000000
_cell_angle_gamma   90.00000000
_symmetry_Int_Tables_number   1
_chemical_formula_structural   SrEu3(CuHg3)2
_chemical_formula_sum   'Sr1 Eu3 Cu2 Hg6'
_cell_volume   328.04105054
_cell_formula_units_Z   1
loop_
 _symmetry_equiv_pos_site_id
 _symmetry_equiv_pos_as_xyz
  1  'x, y, z'
loop_
 _atom_site_type_symbol
 _atom_site_label
 _atom_site_symmetry_multiplicity
 _atom_site_fract_x
 _atom_site_fract_y
 _atom_site_fract_z
 _atom_site_occupancy
  Sr  Sr0  1  0.75000002  0.48080399  0.68409603  1
  Eu  Eu1  1  0.75000002  0.98080397  0.81590404  1
  Eu  Eu2  1  0.25000001  0.51919599  0.31590402  1
  Eu  Eu3  1  0.25000001  0.01919600  0.18409601  1
  Hg  Hg4  1  0.75000002  0.85564298  0.43673102  1
  Hg  Hg5  1  0.25000001  0.14435700  0.56326903  1
  Hg  Hg6  1  0.25000001  0.64435698  0.93673105  1
  Hg  Hg7  1  0.75000002  0.35564299  0.06326900  1
  Hg  Hg8  1  0.75000002  0.73503898  0.11552201  1
  Hg  Hg9  1  0.25000001  0.26496099  0.88447804  1
  Cu  Cu10  1  0.75000002  0.23503899  0.38447802  1
  Cu  Cu11  1  0.25000001  0.76496098  0.61552203  1
