# generated using pymatgen
data_Er2TlFeCu3O5
_symmetry_space_group_name_H-M   'P 1'
_cell_length_a   4.43671989
_cell_length_b   6.91394091
_cell_length_c   7.13657331
_cell_angle_alpha   94.09824371
_cell_angle_beta   90.00000000
_cell_angle_gamma   90.00000000
_symmetry_Int_Tables_number   1
_chemical_formula_structural   Er2TlFeCu3O5
_chemical_formula_sum   'Er2 Tl1 Fe1 Cu3 O5'
_cell_volume   218.35617678
_cell_formula_units_Z   1
loop_
 _symmetry_equiv_pos_site_id
 _symmetry_equiv_pos_as_xyz
  1  'x, y, z'
loop_
 _atom_site_type_symbol
 _atom_site_label
 _atom_site_symmetry_multiplicity
 _atom_site_fract_x
 _atom_site_fract_y
 _atom_site_fract_z
 _atom_site_occupancy
  Er  Er0  1  0.75000002  0.19517300  0.48330100  1
  Er  Er1  1  0.25000001  0.71619399  0.03923796  1
  Cu  Cu2  1  0.75000002  0.28380600  0.96076200  1
  Tl  Tl3  1  0.25000001  0.80482699  0.51669896  1
  Cu  Cu4  1  0.25000001  0.02991900  0.73901501  1
  Cu  Cu5  1  0.25000001  0.47207299  0.36568298  1
  Fe  Fe6  1  0.75000002  0.97008099  0.26098495  1
  O  O7  1  0.75000002  0.52792699  0.63431698  1
  O  O8  1  0.25000001  0.40688699  0.70965099  1
  O  O9  1  0.75000002  0.59311299  0.29034897  1
  O  O10  1  0.25000001  0.12486200  0.19664800  1
  O  O11  1  0.75000002  0.87513799  0.80335196  1
