# generated using pymatgen
data_MnO
_symmetry_space_group_name_H-M   'P 1'
_cell_length_a   3.80202389
_cell_length_b   5.26630020
_cell_length_c   6.49112177
_cell_angle_alpha   113.93212128
_cell_angle_beta   107.02946472
_cell_angle_gamma   90.00000000
_symmetry_Int_Tables_number   1
_chemical_formula_structural   MnO
_chemical_formula_sum   'Mn3 O3'
_cell_volume   112.53223564
_cell_formula_units_Z   3
loop_
 _symmetry_equiv_pos_site_id
 _symmetry_equiv_pos_as_xyz
  1  'x, y, z'
loop_
 _atom_site_type_symbol
 _atom_site_label
 _atom_site_symmetry_multiplicity
 _atom_site_fract_x
 _atom_site_fract_y
 _atom_site_fract_z
 _atom_site_occupancy
  Mn  Mn0  1  0.83067305  0.57149398  0.66134600  1
  Mn  Mn1  1  0.16932803  0.91014896  0.33865499  1
  Mn  Mn2  1  0.50000003  0.26705299  0.00000001  1
  O  O3  1  0.66724504  0.66693397  0.33449000  1
  O  O4  1  0.33275402  0.33244299  0.66550899  1
  O  O5  1  0.00000002  0.99292696  -0.00000001  1
