# generated using pymatgen
data_LiBiO4
_symmetry_space_group_name_H-M   'P 1'
_cell_length_a   4.44282198
_cell_length_b   4.59639215
_cell_length_c   5.33176661
_cell_angle_alpha   64.46652222
_cell_angle_beta   90.00000000
_cell_angle_gamma   90.00000000
_symmetry_Int_Tables_number   1
_chemical_formula_structural   LiBiO4
_chemical_formula_sum   'Li1 Bi1 O4'
_cell_volume   98.24585538
_cell_formula_units_Z   1
loop_
 _symmetry_equiv_pos_site_id
 _symmetry_equiv_pos_as_xyz
  1  'x, y, z'
loop_
 _atom_site_type_symbol
 _atom_site_label
 _atom_site_symmetry_multiplicity
 _atom_site_fract_x
 _atom_site_fract_y
 _atom_site_fract_z
 _atom_site_occupancy
  Li  Li0  1  0.75000000  0.24147499  0.51704998  1
  Bi  Bi1  1  0.25000000  0.75852498  0.48294997  1
  O  O2  1  0.75000000  0.59092499  0.81814997  1
  O  O3  1  0.25000000  0.40907499  0.18184999  1
  O  O4  1  0.75000000  0.92294498  0.15410998  1
  O  O5  1  0.25000000  0.07705500  0.84588998  1
