# generated using pymatgen
data_Li2H4Pd3N
_symmetry_space_group_name_H-M   'P 1'
_cell_length_a   4.05426598
_cell_length_b   5.20546961
_cell_length_c   5.20546961
_cell_angle_alpha   81.27739716
_cell_angle_beta   67.08135986
_cell_angle_gamma   67.08135986
_symmetry_Int_Tables_number   1
_chemical_formula_structural   Li2H4Pd3N
_chemical_formula_sum   'Li2 H4 Pd3 N1'
_cell_volume   93.19803254
_cell_formula_units_Z   1
loop_
 _symmetry_equiv_pos_site_id
 _symmetry_equiv_pos_as_xyz
  1  'x, y, z'
loop_
 _atom_site_type_symbol
 _atom_site_label
 _atom_site_symmetry_multiplicity
 _atom_site_fract_x
 _atom_site_fract_y
 _atom_site_fract_z
 _atom_site_occupancy
  Li  Li0  1  0.18492801  0.21032399  0.42103200  1
  Li  Li1  1  0.39525202  0.42103198  0.78967600  1
  H  H2  1  0.60596003  0.57896798  0.21032403  1
  H  H3  1  0.81628404  0.78967597  0.57896803  1
  Pd  Pd4  1  0.98645699  0.00000000  0.00000004  1
  H  H5  1  0.73155800  0.18665399  0.35637702  1
  N  N6  1  0.91821201  0.35637698  0.81334502  1
  Pd  Pd7  1  0.08793404  0.64362297  0.18665501  1
  H  H8  1  0.27458805  0.81334597  0.64362301  1
  Pd  Pd9  1  0.50140899  0.00000000  1.00000000  1
