# generated using pymatgen
data_LiO4
_symmetry_space_group_name_H-M   'P 1'
_cell_length_a   5.13153505
_cell_length_b   5.76870298
_cell_length_c   5.76870298
_cell_angle_alpha   60.93870544
_cell_angle_beta   72.15520477
_cell_angle_gamma   72.15520477
_symmetry_Int_Tables_number   1
_chemical_formula_structural   LiO4
_chemical_formula_sum   'Li3 O12'
_cell_volume   139.51448862
_cell_formula_units_Z   3
loop_
 _symmetry_equiv_pos_site_id
 _symmetry_equiv_pos_as_xyz
  1  'x, y, z'
loop_
 _atom_site_type_symbol
 _atom_site_label
 _atom_site_symmetry_multiplicity
 _atom_site_fract_x
 _atom_site_fract_y
 _atom_site_fract_z
 _atom_site_occupancy
  Li  Li0  1  0.72468998  0.35047700  0.92327999  1
  Li  Li1  1  0.73003199  0.90219200  0.36781797  1
  Li  Li2  1  0.31380700  0.62450800  0.63691198  1
  O  O3  1  0.68619298  0.36308800  0.37549199  1
  O  O4  1  0.26996800  0.63218200  0.09780798  1
  O  O5  1  0.27530999  0.07672000  0.64952299  1
  O  O6  1  0.23854699  0.12796800  0.14480700  1
  O  O7  1  0.76145299  0.85519300  0.87203197  1
  O  O8  1  0.99999998  0.99470300  0.00529697  1
  O  O9  1  0.49999999  0.21880600  0.78119399  1
  O  O10  1  0.55091899  0.73623700  0.75858597  1
  O  O11  1  0.00180001  0.98126700  0.51389996  1
  O  O12  1  0.99819998  0.48610000  0.01873299  1
  O  O13  1  0.44908099  0.24141400  0.26376299  1
  O  O14  1  0.49999999  0.76361700  0.23638298  1
