# generated using pymatgen
data_Mg3Pd10Rh3
_symmetry_space_group_name_H-M   'P 1'
_cell_length_a   3.98149395
_cell_length_b   3.98149395
_cell_length_c   17.19284630
_cell_angle_alpha   90.00000000
_cell_angle_beta   90.00000000
_cell_angle_gamma   90.00000000
_symmetry_Int_Tables_number   1
_chemical_formula_structural   Mg3Pd10Rh3
_chemical_formula_sum   'Mg3 Pd10 Rh3'
_cell_volume   272.54605547
_cell_formula_units_Z   1
loop_
 _symmetry_equiv_pos_site_id
 _symmetry_equiv_pos_as_xyz
  1  'x, y, z'
loop_
 _atom_site_type_symbol
 _atom_site_label
 _atom_site_symmetry_multiplicity
 _atom_site_fract_x
 _atom_site_fract_y
 _atom_site_fract_z
 _atom_site_occupancy
  Mg  Mg0  1  0.00000000  0.00000000  0.88109104  1
  Mg  Mg1  1  0.00000000  0.00000000  0.12310001  1
  Mg  Mg2  1  0.50000001  0.50000001  0.61648003  1
  Pd  Pd3  1  0.50000001  0.50000001  0.38139502  1
  Pd  Pd4  1  0.50000001  0.00000000  0.00122700  1
  Pd  Pd5  1  0.00000000  0.50000001  0.49661902  1
  Pd  Pd6  1  0.00000000  0.50000001  0.00122700  1
  Pd  Pd7  1  0.50000001  0.00000000  0.49661902  1
  Pd  Pd8  1  0.50000001  0.50000001  0.12423301  1
  Pd  Pd9  1  0.00000000  0.00000000  0.62368503  1
  Pd  Pd10  1  0.00000000  0.00000000  0.37397102  1
  Rh  Rh11  1  0.50000001  0.50000001  0.87468204  1
  Rh  Rh12  1  0.00000000  0.50000001  0.25379101  1
  Pd  Pd13  1  0.50000001  0.00000000  0.74904503  1
  Rh  Rh14  1  0.50000001  0.00000000  0.25379101  1
  Pd  Pd15  1  0.00000000  0.50000001  0.74904503  1
