# generated using pymatgen
data_CeC4
_symmetry_space_group_name_H-M   'P 1'
_cell_length_a   4.23169565
_cell_length_b   5.83086634
_cell_length_c   5.83086634
_cell_angle_alpha   90.18668365
_cell_angle_beta   90.00000000
_cell_angle_gamma   90.00000000
_symmetry_Int_Tables_number   1
_chemical_formula_structural   CeC4
_chemical_formula_sum   'Ce2 C8'
_cell_volume   143.87266625
_cell_formula_units_Z   2
loop_
 _symmetry_equiv_pos_site_id
 _symmetry_equiv_pos_as_xyz
  1  'x, y, z'
loop_
 _atom_site_type_symbol
 _atom_site_label
 _atom_site_symmetry_multiplicity
 _atom_site_fract_x
 _atom_site_fract_y
 _atom_site_fract_z
 _atom_site_occupancy
  Ce  Ce0  1  0.49999999  0.49999999  0.50000001  1
  Ce  Ce1  1  0.49999999  0.00000000  -0.00000000  1
  C  C2  1  0.00000000  0.00000000  0.49999999  1
  C  C3  1  -0.00000000  0.49999999  0.00000002  1
  C  C4  1  0.49999999  0.00000000  0.49999999  1
  C  C5  1  0.49999999  0.49999999  0.00000002  1
  C  C6  1  -0.00000000  0.30989052  0.69010948  1
  C  C7  1  -0.00000000  0.69010947  0.30989054  1
  C  C8  1  -0.00000000  0.81058632  0.81058635  1
  C  C9  1  -0.00000000  0.18941367  0.18941368  1
