# generated using pymatgen
data_La(SnAu2)3
_symmetry_space_group_name_H-M   'P 1'
_cell_length_a   6.14434481
_cell_length_b   6.27985811
_cell_length_c   12.93642712
_cell_angle_alpha   90.00000000
_cell_angle_beta   90.00000000
_cell_angle_gamma   90.00000000
_symmetry_Int_Tables_number   1
_chemical_formula_structural   La(SnAu2)3
_chemical_formula_sum   'La2 Sn6 Au12'
_cell_volume   499.15997781
_cell_formula_units_Z   2
loop_
 _symmetry_equiv_pos_site_id
 _symmetry_equiv_pos_as_xyz
  1  'x, y, z'
loop_
 _atom_site_type_symbol
 _atom_site_label
 _atom_site_symmetry_multiplicity
 _atom_site_fract_x
 _atom_site_fract_y
 _atom_site_fract_z
 _atom_site_occupancy
  La  La0  1  0.25000001  0.50341599  0.30774500  1
  La  La1  1  0.75000002  0.49658399  0.69225499  1
  Sn  Sn2  1  0.25000001  0.00341600  0.69225499  1
  Sn  Sn3  1  0.75000002  0.99658398  0.30774500  1
  Sn  Sn4  1  0.00000000  0.74999999  0.90582299  1
  Sn  Sn5  1  0.00000000  0.25000000  0.09417700  1
  Sn  Sn6  1  0.50000002  0.25000000  0.09417700  1
  Au  Au7  1  0.50000002  0.74999999  0.90582299  1
  Sn  Sn8  1  0.00000000  0.74999999  0.50113800  1
  Au  Au9  1  0.00000000  0.25000000  0.49886200  1
  Au  Au10  1  0.50000002  0.25000000  0.49886200  1
  Au  Au11  1  0.50000002  0.74999999  0.50113800  1
  Au  Au12  1  0.25000001  0.59944599  0.06271900  1
  Au  Au13  1  0.75000002  0.40055399  0.93728099  1
  Au  Au14  1  0.25000001  0.09944600  0.93728099  1
  Au  Au15  1  0.75000002  0.90055398  0.06271900  1
  Au  Au16  1  0.25000001  0.00205600  0.22629400  1
  Au  Au17  1  0.75000002  0.99794398  0.77370599  1
  Au  Au18  1  0.25000001  0.50205599  0.77370599  1
  Au  Au19  1  0.75000002  0.49794399  0.22629400  1
