# generated using pymatgen
data_LiCoCuO7
_symmetry_space_group_name_H-M   'P 1'
_cell_length_a   5.07720947
_cell_length_b   5.07720947
_cell_length_c   5.79815722
_cell_angle_alpha   64.03452301
_cell_angle_beta   64.03452301
_cell_angle_gamma   60.00000381
_symmetry_Int_Tables_number   1
_chemical_formula_structural   LiCoCuO7
_chemical_formula_sum   'Li1 Co1 Cu1 O7'
_cell_volume   111.68016528
_cell_formula_units_Z   1
loop_
 _symmetry_equiv_pos_site_id
 _symmetry_equiv_pos_as_xyz
  1  'x, y, z'
loop_
 _atom_site_type_symbol
 _atom_site_label
 _atom_site_symmetry_multiplicity
 _atom_site_fract_x
 _atom_site_fract_y
 _atom_site_fract_z
 _atom_site_occupancy
  Li  Li0  1  0.63296904  0.63296903  0.10109299  1
  Cu  Cu1  1  0.36703102  0.36703102  0.89890700  1
  Co  Co2  1  0.83707305  0.83707304  0.48878099  1
  O  O3  1  0.16292701  0.16292701  0.51121900  1
  O  O4  1  0.96751105  0.55862403  0.29036899  1
  O  O5  1  0.44137603  0.81650404  0.70963099  1
  O  O6  1  0.81650404  0.03248900  0.70963100  1
  O  O7  1  0.18349602  0.96751105  0.29036899  1
  O  O8  1  0.55862403  0.18349601  0.29036899  1
  O  O9  1  0.03248900  0.44137602  0.70963100  1
