# generated using pymatgen
data_ZrCo(NiSn)2
_symmetry_space_group_name_H-M   'P 1'
_cell_length_a   5.69053173
_cell_length_b   5.69053173
_cell_length_c   5.69053173
_cell_angle_alpha   105.64912415
_cell_angle_beta   105.64912415
_cell_angle_gamma   117.41996002
_symmetry_Int_Tables_number   1
_chemical_formula_structural   ZrCo(NiSn)2
_chemical_formula_sum   'Zr1 Co1 Ni2 Sn2'
_cell_volume   139.77833489
_cell_formula_units_Z   1
loop_
 _symmetry_equiv_pos_site_id
 _symmetry_equiv_pos_as_xyz
  1  'x, y, z'
loop_
 _atom_site_type_symbol
 _atom_site_label
 _atom_site_symmetry_multiplicity
 _atom_site_fract_x
 _atom_site_fract_y
 _atom_site_fract_z
 _atom_site_occupancy
  Zr  Zr0  1  0.66546005  0.83454002  0.50000006  1
  Ni  Ni1  1  0.83454001  0.33454001  0.16908004  1
  Sn  Sn2  1  0.16546005  0.66546002  0.83092002  1
  Sn  Sn3  1  0.33454001  0.16546000  0.50000001  1
  Ni  Ni4  1  0.25000001  0.25000001  0.00000002  1
  Co  Co5  1  0.75000004  0.75000002  0.00000007  1
