# generated using pymatgen
data_SrCaMg2
_symmetry_space_group_name_H-M   'P 1'
_cell_length_a   5.25961018
_cell_length_b   5.25961018
_cell_length_c   6.47856092
_cell_angle_alpha   113.94905853
_cell_angle_beta   113.94905853
_cell_angle_gamma   90.00000000
_symmetry_Int_Tables_number   1
_chemical_formula_structural   SrCaMg2
_chemical_formula_sum   'Sr1 Ca1 Mg2'
_cell_volume   146.74698372
_cell_formula_units_Z   1
loop_
 _symmetry_equiv_pos_site_id
 _symmetry_equiv_pos_as_xyz
  1  'x, y, z'
loop_
 _atom_site_type_symbol
 _atom_site_label
 _atom_site_symmetry_multiplicity
 _atom_site_fract_x
 _atom_site_fract_y
 _atom_site_fract_z
 _atom_site_occupancy
  Sr  Sr0  1  0.74999997  0.24999999  0.49999998  1
  Ca  Ca1  1  0.24999998  0.74999997  0.49999998  1
  Mg  Mg2  1  0.49999998  0.49999998  -0.00000001  1
  Mg  Mg3  1  0.00000000  0.00000000  0.00000000  1
