# generated using pymatgen
data_ZrCr(BiN3)2
_symmetry_space_group_name_H-M   'P 1'
_cell_length_a   5.78311014
_cell_length_b   5.78311014
_cell_length_c   5.91843557
_cell_angle_alpha   60.75353241
_cell_angle_beta   60.75353241
_cell_angle_gamma   59.99999619
_symmetry_Int_Tables_number   1
_chemical_formula_structural   ZrCr(BiN3)2
_chemical_formula_sum   'Zr1 Cr1 Bi2 N6'
_cell_volume   141.53652218
_cell_formula_units_Z   1
loop_
 _symmetry_equiv_pos_site_id
 _symmetry_equiv_pos_as_xyz
  1  'x, y, z'
loop_
 _atom_site_type_symbol
 _atom_site_label
 _atom_site_symmetry_multiplicity
 _atom_site_fract_x
 _atom_site_fract_y
 _atom_site_fract_z
 _atom_site_occupancy
  Cr  Cr0  1  0.77948004  0.77948003  0.66155999  1
  Zr  Zr1  1  0.27948002  0.27948001  0.16156000  1
  Bi  Bi2  1  0.99423106  0.99423104  0.01730698  1
  Bi  Bi3  1  0.49423103  0.49423102  0.51730700  1
  N  N4  1  0.57259203  0.12124600  0.35213600  1
  N  N5  1  0.62124603  0.07259200  0.85213600  1
  N  N6  1  0.07259201  0.45402602  0.85213600  1
  N  N7  1  0.12124602  0.95402604  0.35213599  1
  N  N8  1  0.95402605  0.57259202  0.35213599  1
  N  N9  1  0.45402603  0.62124602  0.85213600  1
