# generated using pymatgen
data_MnV2(CoSi)5
_symmetry_space_group_name_H-M   'P 1'
_cell_length_a   4.68341398
_cell_length_b   6.39559412
_cell_length_c   6.39559412
_cell_angle_alpha   81.93719482
_cell_angle_beta   68.52201080
_cell_angle_gamma   68.52201080
_symmetry_Int_Tables_number   1
_chemical_formula_structural   MnV2(CoSi)5
_chemical_formula_sum   'Mn1 V2 Co5 Si5'
_cell_volume   165.88242842
_cell_formula_units_Z   1
loop_
 _symmetry_equiv_pos_site_id
 _symmetry_equiv_pos_as_xyz
  1  'x, y, z'
loop_
 _atom_site_type_symbol
 _atom_site_label
 _atom_site_symmetry_multiplicity
 _atom_site_fract_x
 _atom_site_fract_y
 _atom_site_fract_z
 _atom_site_occupancy
  Mn  Mn0  1  0.00000000  0.00000000  0.00000000  1
  Co  Co1  1  0.63161900  0.36838099  0.36838102  1
  Co  Co2  1  0.36838100  0.63161899  0.63161902  1
  Co  Co3  1  1.00000000  0.00000000  0.50000001  1
  Co  Co4  1  0.50000000  0.00000000  0.50000000  1
  Si  Si5  1  0.50000000  0.49999999  1.00000001  1
  Si  Si6  1  1.00000000  0.49999999  0.00000003  1
  V  V7  1  0.50000000  0.77408598  0.22591404  1
  V  V8  1  0.50000000  0.22591400  0.77408601  1
  Si  Si9  1  0.72833200  0.77166798  0.77166803  1
  Si  Si10  1  0.27166800  0.22833200  0.22833201  1
  Si  Si11  1  1.00000000  0.35945399  0.64054602  1
  Co  Co12  1  0.00000000  0.64054599  0.35945402  1
