# generated using pymatgen
data_Er2Al2Ir5
_symmetry_space_group_name_H-M   'P 1'
_cell_length_a   4.16346979
_cell_length_b   7.22942019
_cell_length_c   7.22941971
_cell_angle_alpha   120.00000000
_cell_angle_beta   90.00000000
_cell_angle_gamma   90.00000000
_symmetry_Int_Tables_number   1
_chemical_formula_structural   Er2Al2Ir5
_chemical_formula_sum   'Er2 Al2 Ir5'
_cell_volume   188.44861748
_cell_formula_units_Z   1
loop_
 _symmetry_equiv_pos_site_id
 _symmetry_equiv_pos_as_xyz
  1  'x, y, z'
loop_
 _atom_site_type_symbol
 _atom_site_label
 _atom_site_symmetry_multiplicity
 _atom_site_fract_x
 _atom_site_fract_y
 _atom_site_fract_z
 _atom_site_occupancy
  Er  Er0  1  0.50000003  0.58186498  0.58186498  1
  Er  Er1  1  0.50000003  0.00000000  0.41813500  1
  Al  Al2  1  0.50000003  0.41813498  -0.00000001  1
  Al  Al3  1  -0.00000000  0.22998899  0.22998899  1
  Ir  Ir4  1  0.00000000  0.00000000  0.77001100  1
  Ir  Ir5  1  -0.00000000  0.77001097  -0.00000002  1
  Ir  Ir6  1  -0.00000000  0.66666664  0.33333331  1
  Ir  Ir7  1  1.00000005  0.33333332  0.66666665  1
  Ir  Ir8  1  0.50000003  0.00000000  -0.00000000  1
