# generated using pymatgen
data_Li2Co2O11
_symmetry_space_group_name_H-M   'P 1'
_cell_length_a   5.58342981
_cell_length_b   5.67402267
_cell_length_c   5.71751261
_cell_angle_alpha   118.23184204
_cell_angle_beta   118.30903625
_cell_angle_gamma   91.46070862
_symmetry_Int_Tables_number   1
_chemical_formula_structural   Li2Co2O11
_chemical_formula_sum   'Li2 Co2 O11'
_cell_volume   133.01365312
_cell_formula_units_Z   1
loop_
 _symmetry_equiv_pos_site_id
 _symmetry_equiv_pos_as_xyz
  1  'x, y, z'
loop_
 _atom_site_type_symbol
 _atom_site_label
 _atom_site_symmetry_multiplicity
 _atom_site_fract_x
 _atom_site_fract_y
 _atom_site_fract_z
 _atom_site_occupancy
  Li  Li0  1  0.00000000  0.50000001  0.00000000  1
  Li  Li1  1  0.50000003  0.00000000  0.00000003  1
  Co  Co2  1  0.50000003  0.00000000  0.50000003  1
  Co  Co3  1  0.50000003  0.50000001  0.00000003  1
  O  O4  1  0.50000003  0.50000001  0.50000003  1
  O  O5  1  0.00000000  0.00000000  0.00000000  1
  O  O6  1  0.00000000  0.50000001  0.50000000  1
  O  O7  1  0.76475105  0.28436501  0.04776804  1
  O  O8  1  0.75701205  0.72543902  0.50760604  1
  O  O9  1  0.28734402  0.28933201  0.05611702  1
  O  O10  1  0.25843802  0.72234602  0.49937802  1
  O  O11  1  0.74156204  0.27765401  0.50062204  1
  O  O12  1  0.71265604  0.71066802  0.94388304  1
  O  O13  1  0.24298801  0.27456101  0.49239402  1
  O  O14  1  0.23524902  0.71563502  0.95223202  1
