# generated using pymatgen
data_SrYBi4
_symmetry_space_group_name_H-M   'P 1'
_cell_length_a   6.94901085
_cell_length_b   6.94901085
_cell_length_c   9.00790977
_cell_angle_alpha   90.00000000
_cell_angle_beta   90.00000000
_cell_angle_gamma   90.00000000
_symmetry_Int_Tables_number   1
_chemical_formula_structural   SrYBi4
_chemical_formula_sum   'Sr2 Y2 Bi8'
_cell_volume   434.98071917
_cell_formula_units_Z   2
loop_
 _symmetry_equiv_pos_site_id
 _symmetry_equiv_pos_as_xyz
  1  'x, y, z'
loop_
 _atom_site_type_symbol
 _atom_site_label
 _atom_site_symmetry_multiplicity
 _atom_site_fract_x
 _atom_site_fract_y
 _atom_site_fract_z
 _atom_site_occupancy
  Sr  Sr0  1  0.50000001  0.50000001  0.00000000  1
  Sr  Sr1  1  0.00000000  0.00000000  0.00000000  1
  Y  Y2  1  0.50000001  0.50000001  0.50000001  1
  Y  Y3  1  0.00000000  0.00000000  0.50000001  1
  Bi  Bi4  1  0.35588501  0.85588502  0.28681101  1
  Bi  Bi5  1  0.14411500  0.35588501  0.28681101  1
  Bi  Bi6  1  0.85588502  0.64411501  0.28681101  1
  Bi  Bi7  1  0.35588501  0.14411500  0.71318902  1
  Bi  Bi8  1  0.64411501  0.85588502  0.71318902  1
  Bi  Bi9  1  0.64411501  0.14411500  0.28681101  1
  Bi  Bi10  1  0.85588502  0.35588501  0.71318902  1
  Bi  Bi11  1  0.14411500  0.64411501  0.71318902  1
