# generated using pymatgen
data_Tm2NiSn4Ir5
_symmetry_space_group_name_H-M   'P 1'
_cell_length_a   5.27152395
_cell_length_b   5.27152348
_cell_length_c   8.78940392
_cell_angle_alpha   90.00000000
_cell_angle_beta   90.00000000
_cell_angle_gamma   120.00000000
_symmetry_Int_Tables_number   1
_chemical_formula_structural   Tm2NiSn4Ir5
_chemical_formula_sum   'Tm2 Ni1 Sn4 Ir5'
_cell_volume   211.52533115
_cell_formula_units_Z   1
loop_
 _symmetry_equiv_pos_site_id
 _symmetry_equiv_pos_as_xyz
  1  'x, y, z'
loop_
 _atom_site_type_symbol
 _atom_site_label
 _atom_site_symmetry_multiplicity
 _atom_site_fract_x
 _atom_site_fract_y
 _atom_site_fract_z
 _atom_site_occupancy
  Tm  Tm0  1  0.66666665  0.33333332  0.56582201  1
  Tm  Tm1  1  0.33333328  0.66666663  0.43417800  1
  Sn  Sn2  1  0.33333328  0.66666663  0.06582200  1
  Sn  Sn3  1  0.66666665  0.33333332  0.93417801  1
  Ir  Ir4  1  0.82753799  0.17246299  0.25000000  1
  Ir  Ir5  1  0.82753796  0.65507596  0.25000000  1
  Sn  Sn6  1  0.65507494  0.82753695  0.75000001  1
  Sn  Sn7  1  0.17246194  0.82753695  0.75000001  1
  Ir  Ir8  1  0.34492499  0.17246299  0.25000000  1
  Ir  Ir9  1  0.00000000  0.00000000  0.00000000  1
  Ir  Ir10  1  0.17246197  0.34492398  0.75000001  1
  Ni  Ni11  1  0.00000000  0.00000000  0.50000000  1
