# generated using pymatgen
data_MgTi3AlCu8
_symmetry_space_group_name_H-M   'P 1'
_cell_length_a   5.06786489
_cell_length_b   6.82520151
_cell_length_c   6.82520103
_cell_angle_alpha   82.07742310
_cell_angle_beta   68.20658112
_cell_angle_gamma   68.20657349
_symmetry_Int_Tables_number   1
_chemical_formula_structural   MgTi3AlCu8
_chemical_formula_sum   'Mg1 Ti3 Al1 Cu8'
_cell_volume   203.53841426
_cell_formula_units_Z   1
loop_
 _symmetry_equiv_pos_site_id
 _symmetry_equiv_pos_as_xyz
  1  'x, y, z'
loop_
 _atom_site_type_symbol
 _atom_site_label
 _atom_site_symmetry_multiplicity
 _atom_site_fract_x
 _atom_site_fract_y
 _atom_site_fract_z
 _atom_site_occupancy
  Mg  Mg0  1  0.00000000  0.00000000  0.00000000  1
  Ti  Ti1  1  0.33573996  0.66426000  0.66426004  1
  Ti  Ti2  1  0.66425999  0.33574000  0.33574001  1
  Ti  Ti3  1  -0.00000006  0.66426000  0.33574005  1
  Al  Al4  1  -0.00000003  0.33574000  0.66426003  1
  Cu  Cu5  1  0.27146899  0.22853100  0.22853101  1
  Cu  Cu6  1  0.72853096  0.77146900  0.77146904  1
  Cu  Cu7  1  0.50000000  0.22853100  0.77146900  1
  Cu  Cu8  1  0.49999995  0.77146900  0.22853104  1
  Cu  Cu9  1  0.50000002  0.00000000  0.49999999  1
  Cu  Cu10  1  0.00000000  0.00000000  0.50000000  1
  Cu  Cu11  1  0.49999998  0.50000000  0.00000002  1
  Cu  Cu12  1  -0.00000004  0.50000000  1.00000004  1
