# generated using pymatgen
data_Ta2SiRh4
_symmetry_space_group_name_H-M   'P 1'
_cell_length_a   4.22378492
_cell_length_b   4.31006384
_cell_length_c   15.26939774
_cell_angle_alpha   90.00000000
_cell_angle_beta   90.00000000
_cell_angle_gamma   90.00000000
_symmetry_Int_Tables_number   1
_chemical_formula_structural   Ta2SiRh4
_chemical_formula_sum   'Ta4 Si2 Rh8'
_cell_volume   277.97606716
_cell_formula_units_Z   2
loop_
 _symmetry_equiv_pos_site_id
 _symmetry_equiv_pos_as_xyz
  1  'x, y, z'
loop_
 _atom_site_type_symbol
 _atom_site_label
 _atom_site_symmetry_multiplicity
 _atom_site_fract_x
 _atom_site_fract_y
 _atom_site_fract_z
 _atom_site_occupancy
  Ta  Ta0  1  0.00000000  0.50000002  0.50000001  1
  Ta  Ta1  1  0.00000000  0.00000000  0.24573600  1
  Ta  Ta2  1  0.00000000  0.00000000  0.75426401  1
  Ta  Ta3  1  0.50000001  0.50000002  0.18461500  1
  Si  Si4  1  0.50000001  0.50000002  0.81538501  1
  Si  Si5  1  0.50000001  0.50000002  0.34190001  1
  Rh  Rh6  1  0.50000001  0.50000002  0.65810001  1
  Rh  Rh7  1  0.50000001  0.00000000  0.41924401  1
  Rh  Rh8  1  0.50000001  0.00000000  0.58075601  1
  Rh  Rh9  1  0.50000001  0.00000000  0.08501600  1
  Rh  Rh10  1  0.50000001  0.00000000  0.91498402  1
  Rh  Rh11  1  0.00000000  0.50000002  0.08418900  1
  Rh  Rh12  1  0.00000000  0.50000002  0.91581102  1
  Rh  Rh13  1  0.00000000  0.00000000  0.00000000  1
