# generated using pymatgen
data_Hf(MgFe)2
_symmetry_space_group_name_H-M   'P 1'
_cell_length_a   6.08224201
_cell_length_b   6.08224201
_cell_length_c   6.08224201
_cell_angle_alpha   60.00000000
_cell_angle_beta   60.00000000
_cell_angle_gamma   60.00000000
_symmetry_Int_Tables_number   1
_chemical_formula_structural   Hf(MgFe)2
_chemical_formula_sum   'Hf2 Mg4 Fe4'
_cell_volume   159.10216605
_cell_formula_units_Z   2
loop_
 _symmetry_equiv_pos_site_id
 _symmetry_equiv_pos_as_xyz
  1  'x, y, z'
loop_
 _atom_site_type_symbol
 _atom_site_label
 _atom_site_symmetry_multiplicity
 _atom_site_fract_x
 _atom_site_fract_y
 _atom_site_fract_z
 _atom_site_occupancy
  Hf  Hf0  1  0.74999998  0.75000003  0.74999996  1
  Hf  Hf1  1  0.24999999  0.25000001  0.24999999  1
  Mg  Mg2  1  0.49999999  0.50000002  0.49999997  1
  Mg  Mg3  1  0.00000000  0.00000000  0.00000000  1
  Mg  Mg4  1  0.22859299  0.77140703  0.77140697  1
  Mg  Mg5  1  0.77140698  0.77140703  0.22859297  1
  Fe  Fe6  1  0.77140699  0.22859301  0.22859298  1
  Fe  Fe7  1  0.22859299  0.77140703  0.22859298  1
  Fe  Fe8  1  0.77140699  0.22859301  0.77140697  1
  Fe  Fe9  1  0.22859300  0.22859301  0.77140698  1
