# generated using pymatgen
data_TaOsC4Xe
_symmetry_space_group_name_H-M   'P 1'
_cell_length_a   3.99400401
_cell_length_b   3.99400401
_cell_length_c   9.87839985
_cell_angle_alpha   101.66320801
_cell_angle_beta   101.66320801
_cell_angle_gamma   90.00000000
_symmetry_Int_Tables_number   1
_chemical_formula_structural   TaOsC4Xe
_chemical_formula_sum   'Ta1 Os1 C4 Xe1'
_cell_volume   151.00361855
_cell_formula_units_Z   1
loop_
 _symmetry_equiv_pos_site_id
 _symmetry_equiv_pos_as_xyz
  1  'x, y, z'
loop_
 _atom_site_type_symbol
 _atom_site_label
 _atom_site_symmetry_multiplicity
 _atom_site_fract_x
 _atom_site_fract_y
 _atom_site_fract_z
 _atom_site_occupancy
  Ta  Ta0  1  0.58991300  0.58991300  0.17982600  1
  Xe  Xe1  1  0.41008700  0.41008700  0.82017399  1
  Os  Os2  1  0.00000000  0.00000000  0.00000000  1
  C  C3  1  0.83210800  0.83210800  0.66421599  1
  C  C4  1  0.16789200  0.16789200  0.33578399  1
  C  C5  1  1.00000000  0.50000000  0.00000000  1
  C  C6  1  0.50000000  0.00000000  0.00000000  1
