# generated using pymatgen
data_Fe4Cu2Se9
_symmetry_space_group_name_H-M   'P 1'
_cell_length_a   6.58636665
_cell_length_b   6.58636665
_cell_length_c   6.58636618
_cell_angle_alpha   89.99083710
_cell_angle_beta   89.99083710
_cell_angle_gamma   89.99083710
_symmetry_Int_Tables_number   1
_chemical_formula_structural   Fe4Cu2Se9
_chemical_formula_sum   'Fe4 Cu2 Se9'
_cell_volume   285.71804028
_cell_formula_units_Z   1
loop_
 _symmetry_equiv_pos_site_id
 _symmetry_equiv_pos_as_xyz
  1  'x, y, z'
loop_
 _atom_site_type_symbol
 _atom_site_label
 _atom_site_symmetry_multiplicity
 _atom_site_fract_x
 _atom_site_fract_y
 _atom_site_fract_z
 _atom_site_occupancy
  Fe  Fe0  1  0.00000000  0.00000000  0.00000000  1
  Fe  Fe1  1  0.41461201  0.22406100  0.55971803  1
  Fe  Fe2  1  0.22406102  0.55971800  0.41461204  1
  Fe  Fe3  1  0.55971802  0.41461200  0.22406105  1
  Cu  Cu4  1  0.58538803  0.77593900  0.44028207  1
  Cu  Cu5  1  0.77593902  0.44028200  0.58538807  1
  Se  Se6  1  0.44028202  0.58538800  0.77593906  1
  Se  Se7  1  0.24001401  0.24001400  0.24001403  1
  Se  Se8  1  0.75998603  0.75998600  0.75998608  1
  Se  Se9  1  0.38036603  0.73620200  0.12773206  1
  Se  Se10  1  0.73620200  0.12773200  0.38036605  1
  Se  Se11  1  0.12773202  0.38036600  0.73620203  1
  Se  Se12  1  0.61963401  0.26379800  0.87226805  1
  Se  Se13  1  0.26379804  0.87226800  0.61963406  1
  Se  Se14  1  0.87226802  0.61963400  0.26379808  1
