# generated using pymatgen
data_AlNiP3
_symmetry_space_group_name_H-M   'P 1'
_cell_length_a   4.04549599
_cell_length_b   4.04549599
_cell_length_c   5.65056944
_cell_angle_alpha   110.97573090
_cell_angle_beta   110.97573090
_cell_angle_gamma   90.00000000
_symmetry_Int_Tables_number   1
_chemical_formula_structural   AlNiP3
_chemical_formula_sum   'Al1 Ni1 P3'
_cell_volume   79.75134002
_cell_formula_units_Z   1
loop_
 _symmetry_equiv_pos_site_id
 _symmetry_equiv_pos_as_xyz
  1  'x, y, z'
loop_
 _atom_site_type_symbol
 _atom_site_label
 _atom_site_symmetry_multiplicity
 _atom_site_fract_x
 _atom_site_fract_y
 _atom_site_fract_z
 _atom_site_occupancy
  Al  Al0  1  0.00000000  0.00000000  0.00000000  1
  P  P1  1  0.25000004  0.75000002  0.50000004  1
  P  P2  1  0.75000003  0.25000001  0.50000003  1
  Ni  Ni3  1  0.62538505  0.62538502  0.25077005  1
  P  P4  1  0.37461503  0.37461501  0.74923002  1
