# generated using pymatgen
data_NaOF
_symmetry_space_group_name_H-M   'P 1'
_cell_length_a   3.82730579
_cell_length_b   3.82730579
_cell_length_c   9.83854103
_cell_angle_alpha   78.78413391
_cell_angle_beta   78.78413391
_cell_angle_gamma   60.00000381
_symmetry_Int_Tables_number   1
_chemical_formula_structural   NaOF
_chemical_formula_sum   'Na2 O2 F2'
_cell_volume   121.62086684
_cell_formula_units_Z   2
loop_
 _symmetry_equiv_pos_site_id
 _symmetry_equiv_pos_as_xyz
  1  'x, y, z'
loop_
 _atom_site_type_symbol
 _atom_site_label
 _atom_site_symmetry_multiplicity
 _atom_site_fract_x
 _atom_site_fract_y
 _atom_site_fract_z
 _atom_site_occupancy
  Na  Na0  1  0.71678099  0.71678100  0.84965699  1
  Na  Na1  1  0.28321900  0.28321900  0.15034299  1
  O  O2  1  0.88932599  0.88932600  0.33202197  1
  O  O3  1  0.11067400  0.11067400  0.66797801  1
  F  F4  1  0.36314400  0.36314400  0.91056801  1
  F  F5  1  0.63685599  0.63685600  0.08943197  1
