# generated using pymatgen
data_Li2Co4PN7
_symmetry_space_group_name_H-M   'P 1'
_cell_length_a   3.40357208
_cell_length_b   3.40357137
_cell_length_c   17.13889694
_cell_angle_alpha   90.00000000
_cell_angle_beta   90.00000000
_cell_angle_gamma   120.00000763
_symmetry_Int_Tables_number   1
_chemical_formula_structural   Li2Co4PN7
_chemical_formula_sum   'Li2 Co4 P1 N7'
_cell_volume   171.94251697
_cell_formula_units_Z   1
loop_
 _symmetry_equiv_pos_site_id
 _symmetry_equiv_pos_as_xyz
  1  'x, y, z'
loop_
 _atom_site_type_symbol
 _atom_site_label
 _atom_site_symmetry_multiplicity
 _atom_site_fract_x
 _atom_site_fract_y
 _atom_site_fract_z
 _atom_site_occupancy
  Li  Li0  1  0.00000000  0.00000000  0.00000000  1
  Li  Li1  1  0.00000000  0.00000000  0.50000000  1
  Co  Co2  1  0.66666665  0.33333333  0.86794800  1
  Co  Co3  1  0.33333334  0.66666666  0.75000000  1
  Co  Co4  1  0.66666665  0.33333333  0.63205200  1
  Co  Co5  1  0.33333334  0.66666666  0.36794800  1
  P  P6  1  0.66666665  0.33333333  0.25000000  1
  N  N7  1  0.33333334  0.66666666  0.13205200  1
  N  N8  1  0.33333334  0.66666666  0.90973500  1
  N  N9  1  0.66666665  0.33333333  0.75000000  1
  N  N10  1  0.33333334  0.66666666  0.59026500  1
  N  N11  1  0.66666665  0.33333333  0.40973500  1
  N  N12  1  0.33333334  0.66666666  0.25000000  1
  N  N13  1  0.66666665  0.33333333  0.09026500  1
