# generated using pymatgen
data_PrCu2BiPb4
_symmetry_space_group_name_H-M   'P 1'
_cell_length_a   5.32932806
_cell_length_b   7.17460823
_cell_length_c   7.17460823
_cell_angle_alpha   120.00000000
_cell_angle_beta   90.00000000
_cell_angle_gamma   90.00000000
_symmetry_Int_Tables_number   1
_chemical_formula_structural   PrCu2BiPb4
_chemical_formula_sum   'Pr1 Cu2 Bi1 Pb4'
_cell_volume   237.57430621
_cell_formula_units_Z   1
loop_
 _symmetry_equiv_pos_site_id
 _symmetry_equiv_pos_as_xyz
  1  'x, y, z'
loop_
 _atom_site_type_symbol
 _atom_site_label
 _atom_site_symmetry_multiplicity
 _atom_site_fract_x
 _atom_site_fract_y
 _atom_site_fract_z
 _atom_site_occupancy
  Pr  Pr0  1  0.74999999  0.33333333  0.66666667  1
  Cu  Cu1  1  0.25000000  0.66666665  0.33333334  1
  Cu  Cu2  1  0.74999999  0.84639498  0.15360601  1
  Pb  Pb3  1  0.74999999  0.84639498  0.69279001  1
  Pb  Pb4  1  0.74999999  0.30721099  0.15360600  1
  Bi  Bi5  1  0.25000000  0.69278898  0.84639401  1
  Pb  Pb6  1  0.25000000  0.15360500  0.30721000  1
  Pb  Pb7  1  0.25000000  0.15360500  0.84639400  1
