# generated using pymatgen
data_SrBrO3
_symmetry_space_group_name_H-M   'P 1'
_cell_length_a   5.65433121
_cell_length_b   5.71564579
_cell_length_c   6.95597363
_cell_angle_alpha   114.25788879
_cell_angle_beta   90.00000000
_cell_angle_gamma   90.00000000
_symmetry_Int_Tables_number   1
_chemical_formula_structural   SrBrO3
_chemical_formula_sum   'Sr2 Br2 O6'
_cell_volume   204.95524893
_cell_formula_units_Z   2
loop_
 _symmetry_equiv_pos_site_id
 _symmetry_equiv_pos_as_xyz
  1  'x, y, z'
loop_
 _atom_site_type_symbol
 _atom_site_label
 _atom_site_symmetry_multiplicity
 _atom_site_fract_x
 _atom_site_fract_y
 _atom_site_fract_z
 _atom_site_occupancy
  Sr  Sr0  1  0.24999999  0.08757100  0.17514199  1
  Sr  Sr1  1  0.74999997  0.91242901  0.82485794  1
  Br  Br2  1  0.24999999  0.39322900  0.78645796  1
  Br  Br3  1  0.74999997  0.60677101  0.21354196  1
  O  O4  1  0.24999999  0.74606601  0.49213195  1
  O  O5  1  0.74999997  0.25393400  0.50786798  1
  O  O6  1  0.49999998  0.76227301  0.99999994  1
  O  O7  1  0.99999996  0.23772700  -0.00000001  1
  O  O8  1  0.49999998  0.23772700  -0.00000001  1
  O  O9  1  0.99999996  0.76227301  0.99999994  1
