# generated using pymatgen
data_DyNi3PW
_symmetry_space_group_name_H-M   'P 1'
_cell_length_a   5.08246613
_cell_length_b   5.13996077
_cell_length_c   5.13996077
_cell_angle_alpha   60.88881683
_cell_angle_beta   60.36933899
_cell_angle_gamma   60.36933899
_symmetry_Int_Tables_number   1
_chemical_formula_structural   DyNi3PW
_chemical_formula_sum   'Dy1 Ni3 P1 W1'
_cell_volume   96.10509046
_cell_formula_units_Z   1
loop_
 _symmetry_equiv_pos_site_id
 _symmetry_equiv_pos_as_xyz
  1  'x, y, z'
loop_
 _atom_site_type_symbol
 _atom_site_label
 _atom_site_symmetry_multiplicity
 _atom_site_fract_x
 _atom_site_fract_y
 _atom_site_fract_z
 _atom_site_occupancy
  Dy  Dy0  1  0.87624698  0.37375299  0.87375296  1
  Ni  Ni1  1  0.12375300  0.62624698  0.12624698  1
  Ni  Ni2  1  0.49999999  0.49999999  0.49999997  1
  Ni  Ni3  1  0.50000000  0.99999998  0.99999994  1
  P  P4  1  0.00000001  0.99999998  0.49999995  1
  W  W5  1  0.49999999  0.00000000  0.49999999  1
