# generated using pymatgen
data_La3Ni3Sn11
_symmetry_space_group_name_H-M   'P 1'
_cell_length_a   7.51012039
_cell_length_b   7.51012039
_cell_length_c   7.51012039
_cell_angle_alpha   109.47122192
_cell_angle_beta   109.47122192
_cell_angle_gamma   109.47122192
_symmetry_Int_Tables_number   1
_chemical_formula_structural   La3Ni3Sn11
_chemical_formula_sum   'La3 Ni3 Sn11'
_cell_volume   326.07596312
_cell_formula_units_Z   1
loop_
 _symmetry_equiv_pos_site_id
 _symmetry_equiv_pos_as_xyz
  1  'x, y, z'
loop_
 _atom_site_type_symbol
 _atom_site_label
 _atom_site_symmetry_multiplicity
 _atom_site_fract_x
 _atom_site_fract_y
 _atom_site_fract_z
 _atom_site_occupancy
  La  La0  1  0.50000003  0.50000002  0.50000004  1
  La  La1  1  0.00000003  0.50000002  1.00000002  1
  La  La2  1  0.00000000  0.00000000  0.50000000  1
  Sn  Sn3  1  0.50000000  0.00000000  0.00000001  1
  Ni  Ni4  1  0.50000005  0.75000002  0.25000005  1
  Sn  Sn5  1  0.75000002  0.25000001  0.50000003  1
  Sn  Sn6  1  0.25000003  0.50000002  0.75000003  1
  Sn  Sn7  1  0.25000005  0.75000002  0.50000004  1
  Sn  Sn8  1  0.50000002  0.25000001  0.75000002  1
  Sn  Sn9  1  0.75000003  0.50000002  0.25000004  1
  Sn  Sn10  1  0.00000000  0.00000000  0.00000000  1
  Sn  Sn11  1  1.00000005  0.71163902  0.71163906  1
  Sn  Sn12  1  0.71163905  0.71163902  0.00000006  1
  Sn  Sn13  1  0.71163900  0.00000000  0.71163901  1
  Sn  Sn14  1  1.00000002  0.28836101  0.28836104  1
  Ni  Ni15  1  0.28836102  0.28836101  0.00000002  1
  Ni  Ni16  1  0.28836100  0.00000000  0.28836100  1
