# generated using pymatgen
data_Tm2TaCo3C10
_symmetry_space_group_name_H-M   'P 1'
_cell_length_a   3.94141889
_cell_length_b   3.94141889
_cell_length_c   15.31271839
_cell_angle_alpha   90.00000000
_cell_angle_beta   90.00000000
_cell_angle_gamma   90.00000000
_symmetry_Int_Tables_number   1
_chemical_formula_structural   Tm2TaCo3C10
_chemical_formula_sum   'Tm2 Ta1 Co3 C10'
_cell_volume   237.87975485
_cell_formula_units_Z   1
loop_
 _symmetry_equiv_pos_site_id
 _symmetry_equiv_pos_as_xyz
  1  'x, y, z'
loop_
 _atom_site_type_symbol
 _atom_site_label
 _atom_site_symmetry_multiplicity
 _atom_site_fract_x
 _atom_site_fract_y
 _atom_site_fract_z
 _atom_site_occupancy
  Ta  Ta0  1  0.50000001  0.50000001  0.49999999  1
  Tm  Tm1  1  0.50000001  0.50000001  0.84980498  1
  Tm  Tm2  1  0.50000001  0.50000001  0.15019500  1
  Co  Co3  1  0.00000000  0.00000000  0.00000000  1
  Co  Co4  1  0.00000000  0.00000000  0.27995199  1
  Co  Co5  1  0.00000000  0.00000000  0.72004798  1
  C  C6  1  0.00000000  0.00000000  0.60260498  1
  C  C7  1  0.00000000  0.00000000  0.39739499  1
  C  C8  1  0.50000001  0.00000000  0.74736098  1
  C  C9  1  0.00000000  0.50000001  0.74736098  1
  C  C10  1  0.50000001  0.00000000  0.25263899  1
  C  C11  1  0.00000000  0.50000001  0.25263899  1
  C  C12  1  0.00000000  0.50000001  0.00000000  1
  C  C13  1  0.50000001  0.00000000  0.00000000  1
  C  C14  1  0.00000000  0.00000000  0.12876200  1
  C  C15  1  0.00000000  0.00000000  0.87123798  1
