# generated using pymatgen
data_FeF8
_symmetry_space_group_name_H-M   'P 1'
_cell_length_a   5.16210651
_cell_length_b   5.50379276
_cell_length_c   7.33412266
_cell_angle_alpha   107.65206146
_cell_angle_beta   106.60166931
_cell_angle_gamma   99.63314819
_symmetry_Int_Tables_number   1
_chemical_formula_structural   FeF8
_chemical_formula_sum   'Fe2 F16'
_cell_volume   182.77536537
_cell_formula_units_Z   2
loop_
 _symmetry_equiv_pos_site_id
 _symmetry_equiv_pos_as_xyz
  1  'x, y, z'
loop_
 _atom_site_type_symbol
 _atom_site_label
 _atom_site_symmetry_multiplicity
 _atom_site_fract_x
 _atom_site_fract_y
 _atom_site_fract_z
 _atom_site_occupancy
  Fe  Fe0  1  0.74338905  0.38820802  0.82530402  1
  Fe  Fe1  1  0.25656405  0.61194104  0.17471602  1
  F  F2  1  0.00043807  0.99998606  0.50017203  1
  F  F3  1  0.00002900  0.00000500  0.99994899  1
  F  F4  1  0.67232305  0.36705602  0.23399402  1
  F  F5  1  0.32761406  0.63269704  0.76594202  1
  F  F6  1  0.35779602  0.07458100  0.34532001  1
  F  F7  1  0.64215409  0.92560406  0.65470404  1
  F  F8  1  0.84103203  0.04130000  0.71988801  1
  F  F9  1  0.71043004  0.22242801  0.38388802  1
  F  F10  1  0.30470703  0.33337902  0.66282801  1
  F  F11  1  0.36713803  0.25858702  0.07237501  1
  F  F12  1  0.88174205  0.33792502  0.11571602  1
  F  F13  1  0.11834905  0.66216404  0.88422302  1
  F  F14  1  0.63265508  0.74154905  0.92760403  1
  F  F15  1  0.69495307  0.66633904  0.33704503  1
  F  F16  1  0.28964807  0.77762105  0.61627103  1
  F  F17  1  0.15904008  0.95862806  0.28006003  1
