# generated using pymatgen
data_MoH2WCN4Cl
_symmetry_space_group_name_H-M   'P 1'
_cell_length_a   3.13899207
_cell_length_b   3.13899207
_cell_length_c   12.88337231
_cell_angle_alpha   83.00264740
_cell_angle_beta   83.00264740
_cell_angle_gamma   59.99999619
_symmetry_Int_Tables_number   1
_chemical_formula_structural   MoH2WCN4Cl
_chemical_formula_sum   'Mo1 H2 W1 C1 N4 Cl1'
_cell_volume   108.84303143
_cell_formula_units_Z   1
loop_
 _symmetry_equiv_pos_site_id
 _symmetry_equiv_pos_as_xyz
  1  'x, y, z'
loop_
 _atom_site_type_symbol
 _atom_site_label
 _atom_site_symmetry_multiplicity
 _atom_site_fract_x
 _atom_site_fract_y
 _atom_site_fract_z
 _atom_site_occupancy
  Mo  Mo0  1  0.90000899  0.90000903  0.29997297  1
  W  W1  1  0.49843799  0.49843801  0.50468598  1
  H  H2  1  0.09867700  0.09867700  0.70396899  1
  H  H3  1  0.70121899  0.70121902  0.89634297  1
  N  N4  1  0.30162000  0.30162001  0.09513999  1
  Cl  Cl5  1  0.40016899  0.40016901  0.79949298  1
  N  N6  1  0.19934400  0.19934401  0.40196799  1
  N  N7  1  0.79853899  0.79853902  0.60438297  1
  N  N8  1  0.00204000  0.00204000  0.99387999  1
  C  C9  1  0.59994499  0.59994502  0.20016498  1
