# generated using pymatgen
data_CaPbO12
_symmetry_space_group_name_H-M   'P 1'
_cell_length_a   5.50799799
_cell_length_b   5.50799799
_cell_length_c   7.27832890
_cell_angle_alpha   90.00000000
_cell_angle_beta   90.00000000
_cell_angle_gamma   115.20494843
_symmetry_Int_Tables_number   1
_chemical_formula_structural   CaPbO12
_chemical_formula_sum   'Ca1 Pb1 O12'
_cell_volume   199.78696404
_cell_formula_units_Z   1
loop_
 _symmetry_equiv_pos_site_id
 _symmetry_equiv_pos_as_xyz
  1  'x, y, z'
loop_
 _atom_site_type_symbol
 _atom_site_label
 _atom_site_symmetry_multiplicity
 _atom_site_fract_x
 _atom_site_fract_y
 _atom_site_fract_z
 _atom_site_occupancy
  Ca  Ca0  1  0.68136299  0.31863699  0.25000000  1
  Pb  Pb1  1  0.31863697  0.68136299  0.75000001  1
  O  O2  1  0.00000000  0.00000000  0.50000001  1
  O  O3  1  0.00000000  0.00000000  0.00000000  1
  O  O4  1  0.35128298  0.64871699  0.25000000  1
  O  O5  1  0.64871699  0.35128299  0.75000001  1
  O  O6  1  0.24697397  0.75302599  0.44262501  1
  O  O7  1  0.75302599  0.24697400  0.55737501  1
  O  O8  1  0.75302599  0.24697400  0.94262501  1
  O  O9  1  0.24697397  0.75302599  0.05737500  1
  O  O10  1  0.70011997  0.77325199  0.25000000  1
  O  O11  1  0.29987999  0.22674800  0.75000001  1
  O  O12  1  0.22674799  0.29987999  0.25000000  1
  O  O13  1  0.77325197  0.70011899  0.75000001  1
