# generated using pymatgen
data_Bi3Te3Se6(ICl)2
_symmetry_space_group_name_H-M   'P 1'
_cell_length_a   4.65636396
_cell_length_b   4.65636444
_cell_length_c   23.78258514
_cell_angle_alpha   90.00000000
_cell_angle_beta   90.00000000
_cell_angle_gamma   120.00000000
_symmetry_Int_Tables_number   1
_chemical_formula_structural   Bi3Te3Se6(ICl)2
_chemical_formula_sum   'Bi3 Te3 Se6 I2 Cl2'
_cell_volume   446.56386245
_cell_formula_units_Z   1
loop_
 _symmetry_equiv_pos_site_id
 _symmetry_equiv_pos_as_xyz
  1  'x, y, z'
loop_
 _atom_site_type_symbol
 _atom_site_label
 _atom_site_symmetry_multiplicity
 _atom_site_fract_x
 _atom_site_fract_y
 _atom_site_fract_z
 _atom_site_occupancy
  Bi  Bi0  1  0.33333338  0.66666668  0.07478800  1
  Bi  Bi1  1  0.66666669  0.33333334  0.92521203  1
  Bi  Bi2  1  0.66666669  0.33333334  0.57478802  1
  Te  Te3  1  0.33333338  0.66666668  0.42521202  1
  Te  Te4  1  0.66666669  0.33333334  0.75000003  1
  Te  Te5  1  0.33333338  0.66666668  0.25000001  1
  Se  Se6  1  0.66666669  0.33333334  0.34691401  1
  I  I7  1  0.00000000  0.00000000  0.50000002  1
  I  I8  1  0.33333338  0.66666668  0.65308602  1
  Se  Se9  1  0.66666669  0.33333334  0.15308601  1
  Se  Se10  1  0.33333338  0.66666668  0.84691403  1
  Se  Se11  1  0.00000000  0.00000000  0.00000000  1
  Se  Se12  1  0.00000000  0.00000000  0.18706001  1
  Cl  Cl13  1  0.00000000  0.00000000  0.81294003  1
  Cl  Cl14  1  0.00000000  0.00000000  0.68706002  1
  Se  Se15  1  0.00000000  0.00000000  0.31294001  1
