# generated using pymatgen
data_Zr4Ni3P
_symmetry_space_group_name_H-M   'P 1'
_cell_length_a   4.14186382
_cell_length_b   5.44216681
_cell_length_c   7.11764622
_cell_angle_alpha   90.00000000
_cell_angle_beta   90.00000000
_cell_angle_gamma   90.00000000
_symmetry_Int_Tables_number   1
_chemical_formula_structural   Zr4Ni3P
_chemical_formula_sum   'Zr4 Ni3 P1'
_cell_volume   160.43682638
_cell_formula_units_Z   1
loop_
 _symmetry_equiv_pos_site_id
 _symmetry_equiv_pos_as_xyz
  1  'x, y, z'
loop_
 _atom_site_type_symbol
 _atom_site_label
 _atom_site_symmetry_multiplicity
 _atom_site_fract_x
 _atom_site_fract_y
 _atom_site_fract_z
 _atom_site_occupancy
  Zr  Zr0  1  0.50000002  0.37778101  0.32052999  1
  Zr  Zr1  1  0.50000002  0.62221902  0.82052997  1
  Zr  Zr2  1  0.00000000  0.12124900  0.68009798  1
  Zr  Zr3  1  0.00000000  0.87875103  0.18009799  1
  Ni  Ni4  1  0.00000000  0.63210702  0.53709698  1
  Ni  Ni5  1  0.00000000  0.36789301  0.03709700  1
  Ni  Ni6  1  0.50000002  0.87017503  0.46227599  1
  P  P7  1  0.50000002  0.12982500  0.96227597  1
