# generated using pymatgen
data_Na4FePbF8
_symmetry_space_group_name_H-M   'P 1'
_cell_length_a   7.17790079
_cell_length_b   7.17790079
_cell_length_c   7.17790079
_cell_angle_alpha   89.45709991
_cell_angle_beta   60.27588654
_cell_angle_gamma   119.65000153
_symmetry_Int_Tables_number   1
_chemical_formula_structural   Na4FePbF8
_chemical_formula_sum   'Na4 Fe1 Pb1 F8'
_cell_volume   262.72745596
_cell_formula_units_Z   1
loop_
 _symmetry_equiv_pos_site_id
 _symmetry_equiv_pos_as_xyz
  1  'x, y, z'
loop_
 _atom_site_type_symbol
 _atom_site_label
 _atom_site_symmetry_multiplicity
 _atom_site_fract_x
 _atom_site_fract_y
 _atom_site_fract_z
 _atom_site_occupancy
  Na  Na0  1  0.25637696  0.49799599  0.74562606  1
  Na  Na1  1  0.75637697  0.50200299  0.24162006  1
  Na  Na2  1  0.24707492  0.99999997  0.75292511  1
  Na  Na3  1  0.74707497  0.49999999  0.75292507  1
  Pb  Pb4  1  0.49411994  0.87036898  0.13551009  1
  Fe  Fe5  1  0.99412000  0.12963000  0.37625003  1
  F  F6  1  0.26816498  0.24831099  0.98352404  1
  F  F7  1  0.25486798  0.24461499  0.50569703  1
  F  F8  1  0.74968895  0.73943598  0.50569709  1
  F  F9  1  0.72417299  0.25016699  0.52566004  1
  F  F10  1  0.22417294  0.74983298  0.52599408  1
  F  F11  1  0.76816495  0.75168898  0.98014609  1
  F  F12  1  0.75486799  0.26056499  0.98974605  1
  F  F13  1  0.24968894  0.75538598  0.98974609  1
