# generated using pymatgen
data_Rb3MgF13
_symmetry_space_group_name_H-M   'P 1'
_cell_length_a   6.99877977
_cell_length_b   7.16153193
_cell_length_c   8.09770203
_cell_angle_alpha   87.48593903
_cell_angle_beta   88.52952576
_cell_angle_gamma   69.32839203
_symmetry_Int_Tables_number   1
_chemical_formula_structural   Rb3MgF13
_chemical_formula_sum   'Rb3 Mg1 F13'
_cell_volume   379.35443055
_cell_formula_units_Z   1
loop_
 _symmetry_equiv_pos_site_id
 _symmetry_equiv_pos_as_xyz
  1  'x, y, z'
loop_
 _atom_site_type_symbol
 _atom_site_label
 _atom_site_symmetry_multiplicity
 _atom_site_fract_x
 _atom_site_fract_y
 _atom_site_fract_z
 _atom_site_occupancy
  Rb  Rb0  1  0.20194896  0.70246801  0.01088002  1
  Rb  Rb1  1  0.72085001  0.20934100  0.47781401  1
  Rb  Rb2  1  0.79805101  0.29753201  0.98912000  1
  Mg  Mg3  1  0.65975097  0.83050802  0.16729204  1
  F  F4  1  0.34024900  0.16949200  0.83270798  1
  F  F5  1  0.27914996  0.79065901  0.52218601  1
  F  F6  1  0.77885198  0.73650401  0.72241802  1
  F  F7  1  0.22114799  0.26349600  0.27758200  1
  F  F8  1  -0.00000003  0.50000001  0.49999999  1
  F  F9  1  0.00832297  0.47003701  0.26403300  1
  F  F10  1  0.76608998  0.74369201  0.51398203  1
  F  F11  1  0.99167700  0.52996301  0.73596702  1
  F  F12  1  0.42098999  0.29690301  0.18838402  1
  F  F13  1  0.81575497  0.93306002  0.79253202  1
  F  F14  1  0.23390999  0.25630800  0.48601799  1
  F  F15  1  0.57900997  0.70309701  0.81161600  1
  F  F16  1  0.18424500  0.06694000  0.20746800  1
