# generated using pymatgen
data_Li2PdO13
_symmetry_space_group_name_H-M   'P 1'
_cell_length_a   5.71021557
_cell_length_b   5.71021557
_cell_length_c   5.77175140
_cell_angle_alpha   60.35205460
_cell_angle_beta   60.35205460
_cell_angle_gamma   60.00000381
_symmetry_Int_Tables_number   1
_chemical_formula_structural   Li2PdO13
_chemical_formula_sum   'Li2 Pd1 O13'
_cell_volume   133.77910052
_cell_formula_units_Z   1
loop_
 _symmetry_equiv_pos_site_id
 _symmetry_equiv_pos_as_xyz
  1  'x, y, z'
loop_
 _atom_site_type_symbol
 _atom_site_label
 _atom_site_symmetry_multiplicity
 _atom_site_fract_x
 _atom_site_fract_y
 _atom_site_fract_z
 _atom_site_occupancy
  Li  Li0  1  0.00000000  0.50000001  0.49999998  1
  Li  Li1  1  0.50000001  0.00000000  0.49999998  1
  Pd  Pd2  1  0.50000001  0.50000001  0.49999996  1
  O  O3  1  0.00000000  0.00000000  0.50000000  1
  O  O4  1  0.50000001  0.50000001  -0.00000004  1
  O  O5  1  0.00000000  0.50000001  -0.00000002  1
  O  O6  1  0.50000001  0.00000000  -0.00000002  1
  O  O7  1  0.00000000  0.00000000  0.00000000  1
  O  O8  1  0.24479701  0.73047601  0.77992996  1
  O  O9  1  0.75520302  0.75520301  0.22006994  1
  O  O10  1  0.26087601  0.26087600  0.21737198  1
  O  O11  1  0.26952401  0.75520301  0.22006996  1
  O  O12  1  0.73047602  0.24479700  0.77992996  1
  O  O13  1  0.73912402  0.73912401  0.78262794  1
  O  O14  1  0.24479701  0.24479700  0.77992998  1
  O  O15  1  0.75520302  0.26952401  0.22006996  1
