# generated using pymatgen
data_ScSbTeMo
_symmetry_space_group_name_H-M   'P 1'
_cell_length_a   4.11410809
_cell_length_b   4.11410809
_cell_length_c   8.12549496
_cell_angle_alpha   75.33540344
_cell_angle_beta   75.33540344
_cell_angle_gamma   60.00000000
_symmetry_Int_Tables_number   1
_chemical_formula_structural   ScSbTeMo
_chemical_formula_sum   'Sc1 Sb1 Te1 Mo1'
_cell_volume   113.90289358
_cell_formula_units_Z   1
loop_
 _symmetry_equiv_pos_site_id
 _symmetry_equiv_pos_as_xyz
  1  'x, y, z'
loop_
 _atom_site_type_symbol
 _atom_site_label
 _atom_site_symmetry_multiplicity
 _atom_site_fract_x
 _atom_site_fract_y
 _atom_site_fract_z
 _atom_site_occupancy
  Sc  Sc0  1  0.00000000  0.00000000  0.00000000  1
  Te  Te1  1  0.49999999  0.49999999  0.50000003  1
  Mo  Mo2  1  0.73315498  0.73315498  0.80053504  1
  Sb  Sb3  1  0.26684499  0.26684499  0.19946502  1
