# generated using pymatgen
data_InCu4(GeS4)3
_symmetry_space_group_name_H-M   'P 1'
_cell_length_a   6.91930199
_cell_length_b   7.87961340
_cell_length_c   10.64013195
_cell_angle_alpha   90.00000000
_cell_angle_beta   90.00000000
_cell_angle_gamma   105.37339020
_symmetry_Int_Tables_number   1
_chemical_formula_structural   InCu4(GeS4)3
_chemical_formula_sum   'In1 Cu4 Ge3 S12'
_cell_volume   559.35783872
_cell_formula_units_Z   1
loop_
 _symmetry_equiv_pos_site_id
 _symmetry_equiv_pos_as_xyz
  1  'x, y, z'
loop_
 _atom_site_type_symbol
 _atom_site_label
 _atom_site_symmetry_multiplicity
 _atom_site_fract_x
 _atom_site_fract_y
 _atom_site_fract_z
 _atom_site_occupancy
  Cu  Cu0  1  0.27834900  0.11795100  0.56895700  1
  In  In1  1  0.22165102  0.88204899  0.06895700  1
  Cu  Cu2  1  0.72165102  0.88204899  0.43104300  1
  Cu  Cu3  1  0.77834900  0.11795100  0.93104300  1
  Cu  Cu4  1  0.98604201  0.29770500  0.28081100  1
  Ge  Ge5  1  0.48604201  0.29770500  0.21918900  1
  Ge  Ge6  1  0.01395802  0.70229500  0.71918900  1
  Ge  Ge7  1  0.51395802  0.70229500  0.78081100  1
  S  S8  1  0.09354402  0.94555599  0.83476900  1
  S  S9  1  0.79742401  0.48330400  0.23210100  1
  S  S10  1  0.70257601  0.51669600  0.73210100  1
  S  S11  1  0.20257601  0.51669600  0.76789900  1
  S  S12  1  0.92707601  0.20735600  0.47984700  1
  S  S13  1  0.57292402  0.79264399  0.97984700  1
  S  S14  1  0.07292402  0.79264399  0.52015300  1
  S  S15  1  0.42707601  0.20735600  0.02015300  1
  S  S16  1  0.90645600  0.05444400  0.16523100  1
  S  S17  1  0.59354403  0.94555599  0.66523100  1
  S  S18  1  0.40645600  0.05444400  0.33476900  1
  S  S19  1  0.29742401  0.48330400  0.26789900  1
