# generated using pymatgen
data_Ta2FePt5
_symmetry_space_group_name_H-M   'P 1'
_cell_length_a   3.99624991
_cell_length_b   5.65167713
_cell_length_c   7.92647505
_cell_angle_alpha   90.00000000
_cell_angle_beta   90.00000000
_cell_angle_gamma   90.00000000
_symmetry_Int_Tables_number   1
_chemical_formula_structural   Ta2FePt5
_chemical_formula_sum   'Ta2 Fe1 Pt5'
_cell_volume   179.02351517
_cell_formula_units_Z   1
loop_
 _symmetry_equiv_pos_site_id
 _symmetry_equiv_pos_as_xyz
  1  'x, y, z'
loop_
 _atom_site_type_symbol
 _atom_site_label
 _atom_site_symmetry_multiplicity
 _atom_site_fract_x
 _atom_site_fract_y
 _atom_site_fract_z
 _atom_site_occupancy
  Ta  Ta0  1  0.50000001  0.49999999  0.25280400  1
  Ta  Ta1  1  0.00000000  0.00000000  0.50000000  1
  Fe  Fe2  1  0.50000001  0.49999999  0.74719600  1
  Pt  Pt3  1  0.00000000  0.00000000  0.00000000  1
  Pt  Pt4  1  0.00000000  0.49999999  0.50000000  1
  Pt  Pt5  1  0.50000001  0.00000000  0.75821200  1
  Pt  Pt6  1  0.00000000  0.49999999  0.00000000  1
  Pt  Pt7  1  0.50000001  0.00000000  0.24178800  1
