# generated using pymatgen
data_LaSiAu3
_symmetry_space_group_name_H-M   'P 1'
_cell_length_a   5.06322384
_cell_length_b   5.06322384
_cell_length_c   5.06322384
_cell_angle_alpha   90.00000000
_cell_angle_beta   90.00000000
_cell_angle_gamma   90.00000000
_symmetry_Int_Tables_number   1
_chemical_formula_structural   LaSiAu3
_chemical_formula_sum   'La1 Si1 Au3'
_cell_volume   129.80199944
_cell_formula_units_Z   1
loop_
 _symmetry_equiv_pos_site_id
 _symmetry_equiv_pos_as_xyz
  1  'x, y, z'
loop_
 _atom_site_type_symbol
 _atom_site_label
 _atom_site_symmetry_multiplicity
 _atom_site_fract_x
 _atom_site_fract_y
 _atom_site_fract_z
 _atom_site_occupancy
  La  La0  1  0.50000002  0.50000002  0.50000002  1
  Si  Si1  1  0.00000000  0.00000000  0.00000000  1
  Au  Au2  1  0.00000000  0.00000000  0.50000002  1
  Au  Au3  1  0.50000002  0.00000000  0.00000000  1
  Au  Au4  1  -0.00000000  0.50000002  0.00000000  1
