# generated using pymatgen
data_Zr2AlSi7
_symmetry_space_group_name_H-M   'P 1'
_cell_length_a   4.07656384
_cell_length_b   4.07656336
_cell_length_c   13.93721008
_cell_angle_alpha   90.00000000
_cell_angle_beta   90.00000000
_cell_angle_gamma   120.00000763
_symmetry_Int_Tables_number   1
_chemical_formula_structural   Zr2AlSi7
_chemical_formula_sum   'Zr2 Al1 Si7'
_cell_volume   200.58335386
_cell_formula_units_Z   1
loop_
 _symmetry_equiv_pos_site_id
 _symmetry_equiv_pos_as_xyz
  1  'x, y, z'
loop_
 _atom_site_type_symbol
 _atom_site_label
 _atom_site_symmetry_multiplicity
 _atom_site_fract_x
 _atom_site_fract_y
 _atom_site_fract_z
 _atom_site_occupancy
  Zr  Zr0  1  0.66666670  0.33333332  0.11762100  1
  Zr  Zr1  1  0.33333336  0.66666664  0.61762100  1
  Al  Al2  1  0.33333336  0.66666664  0.88237899  1
  Si  Si3  1  0.66666670  0.33333332  0.38237900  1
  Si  Si4  1  0.00000000  0.00000000  0.25000000  1
  Si  Si5  1  0.00000000  0.00000000  0.75000000  1
  Si  Si6  1  0.00000000  0.00000000  0.00000000  1
  Si  Si7  1  0.66666670  0.33333332  0.75000000  1
  Si  Si8  1  0.33333336  0.66666664  0.25000000  1
  Si  Si9  1  0.00000000  0.00000000  0.50000000  1
