# generated using pymatgen
data_CsRbBr3
_symmetry_space_group_name_H-M   'P 1'
_cell_length_a   9.08119297
_cell_length_b   9.08119297
_cell_length_c   9.08119297
_cell_angle_alpha   60.00000000
_cell_angle_beta   60.00000000
_cell_angle_gamma   60.00000000
_symmetry_Int_Tables_number   1
_chemical_formula_structural   CsRbBr3
_chemical_formula_sum   'Cs2 Rb2 Br6'
_cell_volume   529.55822162
_cell_formula_units_Z   2
loop_
 _symmetry_equiv_pos_site_id
 _symmetry_equiv_pos_as_xyz
  1  'x, y, z'
loop_
 _atom_site_type_symbol
 _atom_site_label
 _atom_site_symmetry_multiplicity
 _atom_site_fract_x
 _atom_site_fract_y
 _atom_site_fract_z
 _atom_site_occupancy
  Cs  Cs0  1  0.25000000  0.25000000  0.25000000  1
  Cs  Cs1  1  0.74999999  0.74999999  0.74999999  1
  Rb  Rb2  1  0.00000000  0.00000000  0.00000000  1
  Rb  Rb3  1  0.49999999  0.49999999  0.49999999  1
  Br  Br4  1  0.23591400  0.76408598  0.23591400  1
  Br  Br5  1  0.23591400  0.23591400  0.76408598  1
  Br  Br6  1  0.76408598  0.23591400  0.76408598  1
  Br  Br7  1  0.23591400  0.76408598  0.76408598  1
  Br  Br8  1  0.76408598  0.23591400  0.23591400  1
  Br  Br9  1  0.76408598  0.76408598  0.23591400  1
