# generated using pymatgen
data_Na2Cu5S9
_symmetry_space_group_name_H-M   'P 1'
_cell_length_a   6.54688692
_cell_length_b   7.25073719
_cell_length_c   6.92018890
_cell_angle_alpha   90.00000000
_cell_angle_beta   82.40319061
_cell_angle_gamma   90.00000000
_symmetry_Int_Tables_number   1
_chemical_formula_structural   Na2Cu5S9
_chemical_formula_sum   'Na2 Cu5 S9'
_cell_volume   325.61640868
_cell_formula_units_Z   1
loop_
 _symmetry_equiv_pos_site_id
 _symmetry_equiv_pos_as_xyz
  1  'x, y, z'
loop_
 _atom_site_type_symbol
 _atom_site_label
 _atom_site_symmetry_multiplicity
 _atom_site_fract_x
 _atom_site_fract_y
 _atom_site_fract_z
 _atom_site_occupancy
  Na  Na0  1  0.19049200  0.05068200  0.20022300  1
  Na  Na1  1  0.80950801  0.55068199  0.29977698  1
  Cu  Cu2  1  0.80950801  0.94931798  0.79977700  1
  Cu  Cu3  1  0.19049200  0.44931799  0.70022302  1
  Cu  Cu4  1  0.57311401  0.33527199  0.95194101  1
  Cu  Cu5  1  0.42688601  0.66472798  0.04805899  1
  S  S6  1  0.42688601  0.83527198  0.54805900  1
  Cu  Cu7  1  0.57311401  0.16472800  0.45194099  1
  S  S8  1  0.91299902  0.27420299  0.99880700  1
  S  S9  1  0.08700100  0.77420298  0.50119301  1
  S  S10  1  0.08700100  0.72579698  0.00119300  1
  S  S11  1  0.91299902  0.22579699  0.49880698  1
  S  S12  1  0.58921101  0.88532198  0.22308799  1
  S  S13  1  0.58921101  0.61467798  0.72308800  1
  S  S14  1  0.41078901  0.11467800  0.77691201  1
  S  S15  1  0.41078901  0.38532199  0.27691199  1
