# generated using pymatgen
data_LiNiSe4Cl
_symmetry_space_group_name_H-M   'P 1'
_cell_length_a   4.34825182
_cell_length_b   4.34825182
_cell_length_c   6.74577618
_cell_angle_alpha   90.00000000
_cell_angle_beta   90.00000000
_cell_angle_gamma   90.00000000
_symmetry_Int_Tables_number   1
_chemical_formula_structural   LiNiSe4Cl
_chemical_formula_sum   'Li1 Ni1 Se4 Cl1'
_cell_volume   127.54437266
_cell_formula_units_Z   1
loop_
 _symmetry_equiv_pos_site_id
 _symmetry_equiv_pos_as_xyz
  1  'x, y, z'
loop_
 _atom_site_type_symbol
 _atom_site_label
 _atom_site_symmetry_multiplicity
 _atom_site_fract_x
 _atom_site_fract_y
 _atom_site_fract_z
 _atom_site_occupancy
  Li  Li0  1  0.00000000  0.00000000  0.00000000  1
  Ni  Ni1  1  0.50000002  0.50000002  0.00000000  1
  Se  Se2  1  0.50000002  0.00000000  0.70298098  1
  Se  Se3  1  0.00000000  0.50000002  0.70298098  1
  Se  Se4  1  0.50000002  0.00000000  0.29701899  1
  Se  Se5  1  0.00000000  0.50000002  0.29701899  1
  Cl  Cl6  1  0.00000000  0.00000000  0.49999999  1
