# generated using pymatgen
data_Er2AlSi9
_symmetry_space_group_name_H-M   'P 1'
_cell_length_a   4.14923811
_cell_length_b   7.05347204
_cell_length_c   7.95879412
_cell_angle_alpha   90.00000000
_cell_angle_beta   90.00000000
_cell_angle_gamma   90.00000000
_symmetry_Int_Tables_number   1
_chemical_formula_structural   Er2AlSi9
_chemical_formula_sum   'Er2 Al1 Si9'
_cell_volume   232.92632660
_cell_formula_units_Z   1
loop_
 _symmetry_equiv_pos_site_id
 _symmetry_equiv_pos_as_xyz
  1  'x, y, z'
loop_
 _atom_site_type_symbol
 _atom_site_label
 _atom_site_symmetry_multiplicity
 _atom_site_fract_x
 _atom_site_fract_y
 _atom_site_fract_z
 _atom_site_occupancy
  Er  Er0  1  0.24999999  0.52978600  0.30857700  1
  Er  Er1  1  0.24999999  0.02978600  0.19142300  1
  Si  Si2  1  0.74999998  0.47021400  0.69142299  1
  Al  Al3  1  0.74999998  0.97021399  0.80857699  1
  Si  Si4  1  0.24999999  0.24992400  0.88014099  1
  Si  Si5  1  0.24999999  0.74992400  0.61985899  1
  Si  Si6  1  0.74999998  0.75007600  0.11985900  1
  Si  Si7  1  0.74999998  0.25007600  0.38014099  1
  Si  Si8  1  0.24999999  0.64483600  0.93718499  1
  Si  Si9  1  0.24999999  0.14483600  0.56281499  1
  Si  Si10  1  0.74999998  0.35516400  0.06281500  1
  Si  Si11  1  0.74999998  0.85516399  0.43718499  1
