# generated using pymatgen
data_MgNi3BSe
_symmetry_space_group_name_H-M   'P 1'
_cell_length_a   4.63104200
_cell_length_b   4.75111151
_cell_length_c   12.06912518
_cell_angle_alpha   87.85060883
_cell_angle_beta   85.58642578
_cell_angle_gamma   60.83252335
_symmetry_Int_Tables_number   1
_chemical_formula_structural   MgNi3BSe
_chemical_formula_sum   'Mg3 Ni9 B3 Se3'
_cell_volume   231.19216126
_cell_formula_units_Z   3
loop_
 _symmetry_equiv_pos_site_id
 _symmetry_equiv_pos_as_xyz
  1  'x, y, z'
loop_
 _atom_site_type_symbol
 _atom_site_label
 _atom_site_symmetry_multiplicity
 _atom_site_fract_x
 _atom_site_fract_y
 _atom_site_fract_z
 _atom_site_occupancy
  Mg  Mg0  1  0.73980300  0.99999996  0.88404302  1
  Mg  Mg1  1  0.26019700  0.99999996  0.11595702  1
  Mg  Mg2  1  0.78993800  0.99999996  0.61710502  1
  Ni  Ni3  1  0.21006200  0.00000000  0.38289500  1
  Ni  Ni4  1  0.73605700  0.50039698  0.24952600  1
  Ni  Ni5  1  0.23645400  0.49960298  0.24952601  1
  Ni  Ni6  1  0.26394300  0.49960298  0.75047402  1
  Ni  Ni7  1  0.76354600  0.50039698  0.75047401  1
  Ni  Ni8  1  0.60677400  0.33230799  0.07726100  1
  Ni  Ni9  1  0.93908200  0.66769197  0.07726100  1
  Ni  Ni10  1  0.39322600  0.66769197  0.92273902  1
  Ni  Ni11  1  0.06091800  0.33230799  0.92273902  1
  Se  Se12  1  0.53075600  0.33507599  0.42337901  1
  Se  Se13  1  0.86583200  0.66492397  0.42337901  1
  B  B14  1  0.46924400  0.66492397  0.57662101  1
  Se  Se15  1  0.13416800  0.33507599  0.57662101  1
  B  B16  1  0.73597300  0.00000000  0.25119599  1
  B  B17  1  0.26402700  0.00000000  0.74880401  1
