# generated using pymatgen
data_Er3Mg2Ga3Ni
_symmetry_space_group_name_H-M   'P 1'
_cell_length_a   3.93417811
_cell_length_b   7.72641993
_cell_length_c   7.72641993
_cell_angle_alpha   120.00000000
_cell_angle_beta   90.00000000
_cell_angle_gamma   90.00000000
_symmetry_Int_Tables_number   1
_chemical_formula_structural   Er3Mg2Ga3Ni
_chemical_formula_sum   'Er3 Mg2 Ga3 Ni1'
_cell_volume   203.39546519
_cell_formula_units_Z   1
loop_
 _symmetry_equiv_pos_site_id
 _symmetry_equiv_pos_as_xyz
  1  'x, y, z'
loop_
 _atom_site_type_symbol
 _atom_site_label
 _atom_site_symmetry_multiplicity
 _atom_site_fract_x
 _atom_site_fract_y
 _atom_site_fract_z
 _atom_site_occupancy
  Er  Er0  1  0.49999999  0.59473601  1.00000001  1
  Er  Er1  1  0.49999999  0.40526400  0.40526400  1
  Er  Er2  1  0.49999999  0.00000000  0.59473601  1
  Mg  Mg3  1  -0.00000000  0.26104800  1.00000001  1
  Mg  Mg4  1  -0.00000000  0.73895201  0.73895201  1
  Ga  Ga5  1  -0.00000000  1.00000001  0.26104800  1
  Ga  Ga6  1  0.99999997  0.33333334  0.66666667  1
  Ga  Ga7  1  0.99999997  0.66666667  0.33333334  1
  Ni  Ni8  1  0.49999999  0.00000000  -0.00000000  1
