# generated using pymatgen
data_Li2Mn3CoO10
_symmetry_space_group_name_H-M   'P 1'
_cell_length_a   4.04974222
_cell_length_b   5.31336927
_cell_length_c   9.99362373
_cell_angle_alpha   90.62560272
_cell_angle_beta   90.00000000
_cell_angle_gamma   112.40120697
_symmetry_Int_Tables_number   1
_chemical_formula_structural   Li2Mn3CoO10
_chemical_formula_sum   'Li2 Mn3 Co1 O10'
_cell_volume   198.79930182
_cell_formula_units_Z   1
loop_
 _symmetry_equiv_pos_site_id
 _symmetry_equiv_pos_as_xyz
  1  'x, y, z'
loop_
 _atom_site_type_symbol
 _atom_site_label
 _atom_site_symmetry_multiplicity
 _atom_site_fract_x
 _atom_site_fract_y
 _atom_site_fract_z
 _atom_site_occupancy
  Li  Li0  1  0.13665900  0.27331801  0.06014501  1
  Li  Li1  1  0.86334099  0.72668203  0.93985504  1
  Mn  Mn2  1  0.14039601  0.28079201  0.44229902  1
  Mn  Mn3  1  0.18401001  0.36802001  0.74938003  1
  Mn  Mn4  1  0.81598998  0.63198002  0.25062003  1
  Co  Co5  1  0.85960399  0.71920803  0.55770104  1
  O  O6  1  0.04731900  0.09463800  0.61416802  1
  O  O7  1  0.68938798  0.37877601  0.42458202  1
  O  O8  1  0.31061201  0.62122402  0.57541803  1
  O  O9  1  0.95268099  0.90536203  0.38583204  1
  O  O10  1  0.04653200  0.09306400  0.88137802  1
  O  O11  1  0.68703098  0.37406201  0.09384502  1
  O  O12  1  0.23661201  0.47322402  0.26082302  1
  O  O13  1  0.76338798  0.52677602  0.73917703  1
  O  O14  1  0.31296901  0.62593802  0.90615504  1
  O  O15  1  0.95346799  0.90693603  0.11862203  1
