# generated using pymatgen
data_TiFeNi2B2Mo
_symmetry_space_group_name_H-M   'P 1'
_cell_length_a   3.83031201
_cell_length_b   3.83031201
_cell_length_c   6.71114254
_cell_angle_alpha   106.58094025
_cell_angle_beta   106.58094025
_cell_angle_gamma   90.00000000
_symmetry_Int_Tables_number   1
_chemical_formula_structural   TiFeNi2B2Mo
_chemical_formula_sum   'Ti1 Fe1 Ni2 B2 Mo1'
_cell_volume   90.08672802
_cell_formula_units_Z   1
loop_
 _symmetry_equiv_pos_site_id
 _symmetry_equiv_pos_as_xyz
  1  'x, y, z'
loop_
 _atom_site_type_symbol
 _atom_site_label
 _atom_site_symmetry_multiplicity
 _atom_site_fract_x
 _atom_site_fract_y
 _atom_site_fract_z
 _atom_site_occupancy
  Ti  Ti0  1  0.64225498  0.64225499  0.28450996  1
  Fe  Fe1  1  0.36050899  0.36050899  0.72101797  1
  Ni  Ni2  1  0.00174400  0.00174400  0.00348800  1
  Ni  Ni3  1  0.99299797  0.49299799  0.98599595  1
  Mo  Mo4  1  0.49299797  0.99299798  0.98599595  1
  B  B5  1  0.83944997  0.83944999  0.67889995  1
  B  B6  1  0.17004599  0.17004600  0.34009199  1
