# generated using pymatgen
data_Li2CuO11
_symmetry_space_group_name_H-M   'P 1'
_cell_length_a   5.20728064
_cell_length_b   5.20728064
_cell_length_c   6.38103867
_cell_angle_alpha   88.19891357
_cell_angle_beta   88.19891357
_cell_angle_gamma   66.91325378
_symmetry_Int_Tables_number   1
_chemical_formula_structural   Li2CuO11
_chemical_formula_sum   'Li2 Cu1 O11'
_cell_volume   159.05647353
_cell_formula_units_Z   1
loop_
 _symmetry_equiv_pos_site_id
 _symmetry_equiv_pos_as_xyz
  1  'x, y, z'
loop_
 _atom_site_type_symbol
 _atom_site_label
 _atom_site_symmetry_multiplicity
 _atom_site_fract_x
 _atom_site_fract_y
 _atom_site_fract_z
 _atom_site_occupancy
  Li  Li0  1  0.34065299  0.34065301  0.79520596  1
  Li  Li1  1  0.00000000  0.00000000  0.00000000  1
  Cu  Cu2  1  0.65934699  0.65934603  0.20479396  1
  O  O3  1  0.00000000  0.00000000  0.49999998  1
  O  O4  1  0.35633299  0.35633302  0.25520198  1
  O  O5  1  0.64366699  0.64366703  0.74479795  1
  O  O6  1  0.76382299  0.76382303  0.91300794  1
  O  O7  1  0.72288599  0.72288603  0.51842895  1
  O  O8  1  0.25193698  0.68370903  0.23335597  1
  O  O9  1  0.68370901  0.25193701  0.23335597  1
  O  O10  1  0.31629098  0.74806303  0.76664395  1
  O  O11  1  0.74806301  0.31629101  0.76664395  1
  O  O12  1  0.27711400  0.27711401  0.48157097  1
  O  O13  1  0.23617700  0.23617701  0.08699199  1
