# generated using pymatgen
data_RbAs2OF10
_symmetry_space_group_name_H-M   'P 1'
_cell_length_a   6.04134798
_cell_length_b   6.04134798
_cell_length_c   7.85456181
_cell_angle_alpha   90.00000000
_cell_angle_beta   90.00000000
_cell_angle_gamma   120.00000000
_symmetry_Int_Tables_number   1
_chemical_formula_structural   RbAs2OF10
_chemical_formula_sum   'Rb1 As2 O1 F10'
_cell_volume   248.26774327
_cell_formula_units_Z   1
loop_
 _symmetry_equiv_pos_site_id
 _symmetry_equiv_pos_as_xyz
  1  'x, y, z'
loop_
 _atom_site_type_symbol
 _atom_site_label
 _atom_site_symmetry_multiplicity
 _atom_site_fract_x
 _atom_site_fract_y
 _atom_site_fract_z
 _atom_site_occupancy
  Rb  Rb0  1  0.66666667  0.33333334  0.29795801  1
  As  As1  1  0.33333334  0.66666669  0.70204202  1
  As  As2  1  0.00000000  0.00000000  0.00000000  1
  F  F3  1  0.00000000  0.00000000  0.50000001  1
  F  F4  1  0.66666667  0.33333334  0.74727502  1
  F  F5  1  0.33333334  0.66666669  0.25272501  1
  O  O6  1  0.66666667  0.33333334  0.96145502  1
  F  F7  1  0.33333334  0.66666669  0.03854500  1
  F  F8  1  0.82551701  0.65103402  0.67086102  1
  F  F9  1  0.17448301  0.34896601  0.32913901  1
  F  F10  1  0.82551701  0.17448301  0.67086102  1
  F  F11  1  0.17448301  0.82551703  0.32913901  1
  F  F12  1  0.34896600  0.17448301  0.67086102  1
  F  F13  1  0.65103401  0.82551703  0.32913901  1
