# generated using pymatgen
data_AgTeO
_symmetry_space_group_name_H-M   'P 1'
_cell_length_a   3.21124697
_cell_length_b   3.21124697
_cell_length_c   7.86392117
_cell_angle_alpha   78.21875000
_cell_angle_beta   78.21875000
_cell_angle_gamma   59.99998093
_symmetry_Int_Tables_number   1
_chemical_formula_structural   AgTeO
_chemical_formula_sum   'Ag1 Te1 O1'
_cell_volume   68.24940509
_cell_formula_units_Z   1
loop_
 _symmetry_equiv_pos_site_id
 _symmetry_equiv_pos_as_xyz
  1  'x, y, z'
loop_
 _atom_site_type_symbol
 _atom_site_label
 _atom_site_symmetry_multiplicity
 _atom_site_fract_x
 _atom_site_fract_y
 _atom_site_fract_z
 _atom_site_occupancy
  Ag  Ag0  1  0.00000000  0.00000000  0.00000000  1
  Te  Te1  1  0.22220799  0.22220800  0.33337601  1
  O  O2  1  0.77779198  0.77779199  0.66662403  1
