# generated using pymatgen
data_Ce5Al
_symmetry_space_group_name_H-M   'P 1'
_cell_length_a   9.02147388
_cell_length_b   9.02147388
_cell_length_c   9.02147388
_cell_angle_alpha   73.31622314
_cell_angle_beta   73.31332397
_cell_angle_gamma   115.19960022
_symmetry_Int_Tables_number   1
_chemical_formula_structural   Ce5Al
_chemical_formula_sum   'Ce10 Al2'
_cell_volume   560.93128966
_cell_formula_units_Z   2
loop_
 _symmetry_equiv_pos_site_id
 _symmetry_equiv_pos_as_xyz
  1  'x, y, z'
loop_
 _atom_site_type_symbol
 _atom_site_label
 _atom_site_symmetry_multiplicity
 _atom_site_fract_x
 _atom_site_fract_y
 _atom_site_fract_z
 _atom_site_occupancy
  Ce  Ce0  1  0.50000005  1.00000001  -0.00000005  1
  Ce  Ce1  1  0.00000003  0.50000001  -0.00000001  1
  Ce  Ce2  1  0.25000001  0.26525400  0.48474597  1
  Ce  Ce3  1  0.75000003  0.73474601  0.51525394  1
  Ce  Ce4  1  0.45515804  0.72746901  0.81737295  1
  Ce  Ce5  1  0.98513200  0.17545900  0.30967296  1
  Ce  Ce6  1  0.48513201  0.29480500  0.69032596  1
  Ce  Ce7  1  0.04484204  0.72746901  0.22768897  1
  Ce  Ce8  1  0.95515801  0.27253100  0.77231094  1
  Al  Al9  1  0.01486805  0.82454101  0.69032696  1
  Al  Al10  1  0.51486803  0.70519501  0.30967396  1
  Ce  Ce11  1  0.54484201  0.27253100  0.18262697  1
