# generated using pymatgen
data_CsK(IBr3)2
_symmetry_space_group_name_H-M   'P 1'
_cell_length_a   8.57107353
_cell_length_b   8.78458881
_cell_length_c   12.39946556
_cell_angle_alpha   90.00000000
_cell_angle_beta   90.00000000
_cell_angle_gamma   90.00000000
_symmetry_Int_Tables_number   1
_chemical_formula_structural   CsK(IBr3)2
_chemical_formula_sum   'Cs2 K2 I4 Br12'
_cell_volume   933.59738302
_cell_formula_units_Z   2
loop_
 _symmetry_equiv_pos_site_id
 _symmetry_equiv_pos_as_xyz
  1  'x, y, z'
loop_
 _atom_site_type_symbol
 _atom_site_label
 _atom_site_symmetry_multiplicity
 _atom_site_fract_x
 _atom_site_fract_y
 _atom_site_fract_z
 _atom_site_occupancy
  Cs  Cs0  1  0.47967803  0.95011302  0.25000001  1
  Cs  Cs1  1  0.97967805  0.54988701  0.75000003  1
  K  K2  1  0.02032200  0.45011301  0.25000001  1
  K  K3  1  0.52032203  0.04988700  0.75000003  1
  I  I4  1  0.00000000  0.00000000  0.00000000  1
  I  I5  1  0.50000003  0.50000001  0.00000000  1
  I  I6  1  0.50000003  0.50000001  0.50000002  1
  I  I7  1  0.00000000  0.00000000  0.50000002  1
  Br  Br8  1  0.55564003  0.50274201  0.25000001  1
  Br  Br9  1  0.05564000  0.99725802  0.75000003  1
  Br  Br10  1  0.94436005  0.00274200  0.25000001  1
  Br  Br11  1  0.44436002  0.49725801  0.75000003  1
  Br  Br12  1  0.29474102  0.20713000  0.02749200  1
  Br  Br13  1  0.79474104  0.29287001  0.97250803  1
  Br  Br14  1  0.20525901  0.70713001  0.47250802  1
  Br  Br15  1  0.70525904  0.79287002  0.52749202  1
  Br  Br16  1  0.70525904  0.79287002  0.97250803  1
  Br  Br17  1  0.20525901  0.70713001  0.02749200  1
  Br  Br18  1  0.79474104  0.29287001  0.52749202  1
  Br  Br19  1  0.29474102  0.20713000  0.47250802  1
