# generated using pymatgen
data_Sr2Hg3
_symmetry_space_group_name_H-M   'P 1'
_cell_length_a   8.94118023
_cell_length_b   8.94118023
_cell_length_c   8.94118023
_cell_angle_alpha   72.70255280
_cell_angle_beta   72.70255280
_cell_angle_gamma   72.70255280
_symmetry_Int_Tables_number   1
_chemical_formula_structural   Sr2Hg3
_chemical_formula_sum   'Sr6 Hg9'
_cell_volume   634.26274472
_cell_formula_units_Z   3
loop_
 _symmetry_equiv_pos_site_id
 _symmetry_equiv_pos_as_xyz
  1  'x, y, z'
loop_
 _atom_site_type_symbol
 _atom_site_label
 _atom_site_symmetry_multiplicity
 _atom_site_fract_x
 _atom_site_fract_y
 _atom_site_fract_z
 _atom_site_occupancy
  Sr  Sr0  1  0.50000004  0.49999999  0.49999996  1
  Sr  Sr1  1  0.70620406  0.70620398  0.70620395  1
  Sr  Sr2  1  0.29379602  0.29379599  0.29379598  1
  Sr  Sr3  1  0.66533601  0.16753300  0.88549998  1
  Sr  Sr4  1  0.88550006  0.66533598  0.16753293  1
  Sr  Sr5  1  0.16753308  0.88549998  0.66533596  1
  Hg  Hg6  1  0.33466407  0.83246698  0.11449994  1
  Hg  Hg7  1  0.11450003  0.33466399  0.83246699  1
  Hg  Hg8  1  0.83246701  0.11450000  0.33466397  1
  Hg  Hg9  1  0.36560805  0.53701099  0.90984197  1
  Hg  Hg10  1  0.90984203  0.36560799  0.53701096  1
  Hg  Hg11  1  0.53701108  0.90984198  0.36560794  1
  Hg  Hg12  1  0.63439204  0.46298899  0.09015795  1
  Hg  Hg13  1  0.09015806  0.63439198  0.46298897  1
  Hg  Hg14  1  0.46298901  0.09015800  0.63439199  1
