# generated using pymatgen
data_LaMgSbNO2
_symmetry_space_group_name_H-M   'P 1'
_cell_length_a   3.19847012
_cell_length_b   6.11866093
_cell_length_c   7.43515301
_cell_angle_alpha   107.30747986
_cell_angle_beta   90.00000000
_cell_angle_gamma   105.15137482
_symmetry_Int_Tables_number   1
_chemical_formula_structural   LaMgSbNO2
_chemical_formula_sum   'La1 Mg1 Sb1 N1 O2'
_cell_volume   133.61298533
_cell_formula_units_Z   1
loop_
 _symmetry_equiv_pos_site_id
 _symmetry_equiv_pos_as_xyz
  1  'x, y, z'
loop_
 _atom_site_type_symbol
 _atom_site_label
 _atom_site_symmetry_multiplicity
 _atom_site_fract_x
 _atom_site_fract_y
 _atom_site_fract_z
 _atom_site_occupancy
  Mg  Mg0  1  0.19275100  0.38550199  0.63935298  1
  La  La1  1  0.80724897  0.61449799  0.36064698  1
  Sb  Sb2  1  0.86035997  0.72071999  0.97477497  1
  N  N3  1  0.46757899  0.93515799  0.68944797  1
  O  O4  1  0.53242098  0.06484200  0.31055199  1
  O  O5  1  0.13964000  0.27928000  0.02522500  1
