# generated using pymatgen
data_Hf2ScNi7
_symmetry_space_group_name_H-M   'P 1'
_cell_length_a   6.03307629
_cell_length_b   6.03307629
_cell_length_c   6.03307629
_cell_angle_alpha   60.00000000
_cell_angle_beta   60.00000000
_cell_angle_gamma   60.00000000
_symmetry_Int_Tables_number   1
_chemical_formula_structural   Hf2ScNi7
_chemical_formula_sum   'Hf2 Sc1 Ni7'
_cell_volume   155.27496956
_cell_formula_units_Z   1
loop_
 _symmetry_equiv_pos_site_id
 _symmetry_equiv_pos_as_xyz
  1  'x, y, z'
loop_
 _atom_site_type_symbol
 _atom_site_label
 _atom_site_symmetry_multiplicity
 _atom_site_fract_x
 _atom_site_fract_y
 _atom_site_fract_z
 _atom_site_occupancy
  Hf  Hf0  1  0.24999999  0.24999999  0.24999999  1
  Hf  Hf1  1  0.74999997  0.74999997  0.74999997  1
  Sc  Sc2  1  0.00000000  0.00000000  0.00000000  1
  Ni  Ni3  1  0.49999998  0.49999998  0.49999998  1
  Ni  Ni4  1  0.21498899  0.78501097  0.21498899  1
  Ni  Ni5  1  0.21498899  0.21498899  0.78501097  1
  Ni  Ni6  1  0.78501097  0.21498899  0.78501097  1
  Ni  Ni7  1  0.21498899  0.78501097  0.78501097  1
  Ni  Ni8  1  0.78501097  0.21498899  0.21498899  1
  Ni  Ni9  1  0.78501097  0.78501097  0.21498899  1
