# generated using pymatgen
data_LiS5
_symmetry_space_group_name_H-M   'P 1'
_cell_length_a   6.33687162
_cell_length_b   6.34874821
_cell_length_c   6.42513227
_cell_angle_alpha   60.39249039
_cell_angle_beta   81.04735565
_cell_angle_gamma   71.64035797
_symmetry_Int_Tables_number   1
_chemical_formula_structural   LiS5
_chemical_formula_sum   'Li2 S10'
_cell_volume   213.30002568
_cell_formula_units_Z   2
loop_
 _symmetry_equiv_pos_site_id
 _symmetry_equiv_pos_as_xyz
  1  'x, y, z'
loop_
 _atom_site_type_symbol
 _atom_site_label
 _atom_site_symmetry_multiplicity
 _atom_site_fract_x
 _atom_site_fract_y
 _atom_site_fract_z
 _atom_site_occupancy
  Li  Li0  1  0.99741907  0.24161899  0.51016495  1
  Li  Li1  1  0.49741909  0.75178396  0.48983497  1
  S  S2  1  0.49916106  0.41181798  0.17508397  1
  S  S3  1  0.99916110  0.58690197  0.82491595  1
  S  S4  1  0.02058708  0.89091795  0.16913799  1
  S  S5  1  0.52058703  0.06005600  0.83086198  1
  S  S6  1  0.11815609  0.87608895  0.47722799  1
  S  S7  1  0.61815606  0.35331698  0.52277197  1
  S  S8  1  0.64494703  0.03485500  0.15170097  1
  S  S9  1  0.14494702  0.18655599  0.84829900  1
  S  S10  1  0.11703105  0.54079897  0.16868799  1
  S  S11  1  0.61703109  0.70948696  0.83131197  1
