# generated using pymatgen
data_TiBIr2Ru
_symmetry_space_group_name_H-M   'P 1'
_cell_length_a   3.96766210
_cell_length_b   3.96766210
_cell_length_c   5.72780514
_cell_angle_alpha   110.26428986
_cell_angle_beta   110.26428986
_cell_angle_gamma   90.00000000
_symmetry_Int_Tables_number   1
_chemical_formula_structural   TiBIr2Ru
_chemical_formula_sum   'Ti1 B1 Ru1 Ir2'
_cell_volume   78.61180946
_cell_formula_units_Z   1
loop_
 _symmetry_equiv_pos_site_id
 _symmetry_equiv_pos_as_xyz
  1  'x, y, z'
loop_
 _atom_site_type_symbol
 _atom_site_label
 _atom_site_symmetry_multiplicity
 _atom_site_fract_x
 _atom_site_fract_y
 _atom_site_fract_z
 _atom_site_occupancy
  Ti  Ti0  1  0.00000000  0.00000000  0.00000000  1
  B  B1  1  0.25000002  0.75000000  0.50000003  1
  Ru  Ru2  1  0.75000000  0.25000000  0.50000003  1
  Ir  Ir3  1  0.61766102  0.61766100  0.23532204  1
  Ir  Ir4  1  0.38233901  0.38233900  0.76467802  1
