# generated using pymatgen
data_ZrBe(O5F2)2
_symmetry_space_group_name_H-M   'P 1'
_cell_length_a   4.65927601
_cell_length_b   6.90842056
_cell_length_c   6.90842056
_cell_angle_alpha   83.88069153
_cell_angle_beta   70.29257965
_cell_angle_gamma   70.29257965
_symmetry_Int_Tables_number   1
_chemical_formula_structural   ZrBe(O5F2)2
_chemical_formula_sum   'Zr1 Be1 O10 F4'
_cell_volume   197.07664623
_cell_formula_units_Z   1
loop_
 _symmetry_equiv_pos_site_id
 _symmetry_equiv_pos_as_xyz
  1  'x, y, z'
loop_
 _atom_site_type_symbol
 _atom_site_label
 _atom_site_symmetry_multiplicity
 _atom_site_fract_x
 _atom_site_fract_y
 _atom_site_fract_z
 _atom_site_occupancy
  Be  Be0  1  0.72991596  0.84799504  0.69217301  1
  Zr  Zr1  1  0.27008399  0.15200501  0.30782701  1
  F  F2  1  0.77008399  0.30782701  0.15200499  1
  F  F3  1  0.22991596  0.69217303  0.84799503  1
  F  F4  1  0.57628597  0.69935603  0.14807100  1
  O  O5  1  0.42371399  0.30064401  0.85192902  1
  O  O6  1  0.07628599  0.14807201  0.69935602  1
  O  O7  1  0.92371396  0.85192804  0.30064400  1
  O  O8  1  0.74999998  0.50000002  0.50000000  1
  O  O9  1  0.24999997  0.50000002  0.50000002  1
  O  O10  1  0.25000000  0.00000000  -0.00000001  1
  O  O11  1  0.74999995  1.00000004  1.00000003  1
  F  F12  1  0.16399997  0.50192002  0.17008001  1
  O  O13  1  0.83599998  0.49808002  0.82992001  1
  O  O14  1  0.33599996  0.82992004  0.49808002  1
  O  O15  1  0.66400000  0.17008001  0.50192000  1
