# generated using pymatgen
data_MgAl
_symmetry_space_group_name_H-M   'P 1'
_cell_length_a   4.36703777
_cell_length_b   4.81794977
_cell_length_c   6.58535290
_cell_angle_alpha   90.00000000
_cell_angle_beta   109.36421967
_cell_angle_gamma   90.00000000
_symmetry_Int_Tables_number   1
_chemical_formula_structural   MgAl
_chemical_formula_sum   'Mg2 Al2'
_cell_volume   130.71875633
_cell_formula_units_Z   2
loop_
 _symmetry_equiv_pos_site_id
 _symmetry_equiv_pos_as_xyz
  1  'x, y, z'
loop_
 _atom_site_type_symbol
 _atom_site_label
 _atom_site_symmetry_multiplicity
 _atom_site_fract_x
 _atom_site_fract_y
 _atom_site_fract_z
 _atom_site_occupancy
  Mg  Mg0  1  0.61952403  0.25000001  0.23904800  1
  Mg  Mg1  1  0.38047602  0.75000004  0.76095202  1
  Al  Al2  1  0.13853601  0.75000004  0.27707201  1
  Al  Al3  1  0.86146404  0.25000001  0.72292801  1
