# generated using pymatgen
data_Tl4GeO15
_symmetry_space_group_name_H-M   'P 1'
_cell_length_a   4.94141006
_cell_length_b   4.94141006
_cell_length_c   16.01537132
_cell_angle_alpha   88.91828918
_cell_angle_beta   88.91828918
_cell_angle_gamma   64.24919128
_symmetry_Int_Tables_number   1
_chemical_formula_structural   Tl4GeO15
_chemical_formula_sum   'Tl4 Ge1 O15'
_cell_volume   352.13341083
_cell_formula_units_Z   1
loop_
 _symmetry_equiv_pos_site_id
 _symmetry_equiv_pos_as_xyz
  1  'x, y, z'
loop_
 _atom_site_type_symbol
 _atom_site_label
 _atom_site_symmetry_multiplicity
 _atom_site_fract_x
 _atom_site_fract_y
 _atom_site_fract_z
 _atom_site_occupancy
  Tl  Tl0  1  0.03589895  0.96410099  0.25000000  1
  Tl  Tl1  1  0.96410097  0.03589900  0.74999998  1
  Tl  Tl2  1  0.00000000  0.00000000  0.00000000  1
  Tl  Tl3  1  0.00000000  0.00000000  0.49999997  1
  Ge  Ge4  1  0.36348297  0.36527500  0.09092001  1
  O  O5  1  0.36527497  0.36348300  0.59091998  1
  O  O6  1  0.63472495  0.63651700  0.40908000  1
  O  O7  1  0.63651695  0.63472500  0.90907997  1
  O  O8  1  0.75511697  0.17474100  0.09833101  1
  O  O9  1  0.82525896  0.24488300  0.40166899  1
  O  O10  1  0.24488295  0.82525899  0.90166897  1
  O  O11  1  0.17474095  0.75511699  0.59833098  1
  O  O12  1  0.31387895  0.73836299  0.07837701  1
  O  O13  1  0.26163696  0.68612100  0.42162299  1
  O  O14  1  0.68612097  0.26163700  0.92162297  1
  O  O15  1  0.73836296  0.31387900  0.57837699  1
  O  O16  1  0.36153797  0.27268800  0.69395297  1
  O  O17  1  0.72731194  0.63846200  0.80604698  1
  O  O18  1  0.63846194  0.72731199  0.30604700  1
  O  O19  1  0.27268797  0.36153800  0.19395300  1
