# generated using pymatgen
data_La2Mg3Fe5
_symmetry_space_group_name_H-M   'P 1'
_cell_length_a   6.33821535
_cell_length_b   6.33821535
_cell_length_c   6.33821535
_cell_angle_alpha   60.00000000
_cell_angle_beta   60.00000000
_cell_angle_gamma   60.00000000
_symmetry_Int_Tables_number   1
_chemical_formula_structural   La2Mg3Fe5
_chemical_formula_sum   'La2 Mg3 Fe5'
_cell_volume   180.04703550
_cell_formula_units_Z   1
loop_
 _symmetry_equiv_pos_site_id
 _symmetry_equiv_pos_as_xyz
  1  'x, y, z'
loop_
 _atom_site_type_symbol
 _atom_site_label
 _atom_site_symmetry_multiplicity
 _atom_site_fract_x
 _atom_site_fract_y
 _atom_site_fract_z
 _atom_site_occupancy
  La  La0  1  0.74999999  0.74999999  0.74999999  1
  La  La1  1  0.25000000  0.25000000  0.25000000  1
  Mg  Mg2  1  0.00000000  0.00000000  0.00000000  1
  Fe  Fe3  1  0.49999999  0.49999999  0.49999999  1
  Fe  Fe4  1  0.21695700  0.21695700  0.78304299  1
  Mg  Mg5  1  0.78304299  0.21695700  0.78304299  1
  Mg  Mg6  1  0.78304299  0.78304299  0.21695700  1
  Fe  Fe7  1  0.21695700  0.78304299  0.78304299  1
  Fe  Fe8  1  0.78304299  0.21695700  0.21695700  1
  Fe  Fe9  1  0.21695700  0.78304299  0.21695700  1
