# generated using pymatgen
data_Er(BPt2)3
_symmetry_space_group_name_H-M   'P 1'
_cell_length_a   4.34974813
_cell_length_b   4.34974813
_cell_length_c   8.80017757
_cell_angle_alpha   90.00000000
_cell_angle_beta   90.00000000
_cell_angle_gamma   90.00000000
_symmetry_Int_Tables_number   1
_chemical_formula_structural   Er(BPt2)3
_chemical_formula_sum   'Er1 B3 Pt6'
_cell_volume   166.50207750
_cell_formula_units_Z   1
loop_
 _symmetry_equiv_pos_site_id
 _symmetry_equiv_pos_as_xyz
  1  'x, y, z'
loop_
 _atom_site_type_symbol
 _atom_site_label
 _atom_site_symmetry_multiplicity
 _atom_site_fract_x
 _atom_site_fract_y
 _atom_site_fract_z
 _atom_site_occupancy
  Er  Er0  1  0.49999998  0.49999998  0.26290201  1
  B  B1  1  0.49999998  0.49999998  0.73709804  1
  B  B2  1  0.00000000  0.00000000  0.00000000  1
  B  B3  1  0.00000000  0.00000000  0.50000002  1
  Pt  Pt4  1  0.00000000  0.00000000  0.26233501  1
  Pt  Pt5  1  0.00000000  0.00000000  0.73766504  1
  Pt  Pt6  1  0.00000000  0.49999998  0.00000000  1
  Pt  Pt7  1  0.00000000  0.49999998  0.50000002  1
  Pt  Pt8  1  0.49999998  0.00000000  0.00000000  1
  Pt  Pt9  1  0.49999998  0.00000000  0.50000002  1
