# generated using pymatgen
data_UMnAlB3(RhC)5
_symmetry_space_group_name_H-M   'P 1'
_cell_length_a   3.97181106
_cell_length_b   3.97181106
_cell_length_c   15.72054577
_cell_angle_alpha   90.00000000
_cell_angle_beta   90.00000000
_cell_angle_gamma   90.00000000
_symmetry_Int_Tables_number   1
_chemical_formula_structural   UMnAlB3(RhC)5
_chemical_formula_sum   'U1 Mn1 Al1 B3 Rh5 C5'
_cell_volume   247.99605945
_cell_formula_units_Z   1
loop_
 _symmetry_equiv_pos_site_id
 _symmetry_equiv_pos_as_xyz
  1  'x, y, z'
loop_
 _atom_site_type_symbol
 _atom_site_label
 _atom_site_symmetry_multiplicity
 _atom_site_fract_x
 _atom_site_fract_y
 _atom_site_fract_z
 _atom_site_occupancy
  U  U0  1  0.49999999  0.49999999  0.50000001  1
  Mn  Mn1  1  0.49999999  0.49999999  0.85589301  1
  Al  Al2  1  0.49999999  0.49999999  0.14410700  1
  B  B3  1  0.00000000  0.00000000  0.00000000  1
  B  B4  1  0.00000000  0.00000000  0.27988600  1
  B  B5  1  0.00000000  0.00000000  0.72011401  1
  C  C6  1  0.00000000  0.00000000  0.60614501  1
  C  C7  1  0.00000000  0.00000000  0.39385501  1
  Rh  Rh8  1  0.49999999  0.00000000  0.74578701  1
  Rh  Rh9  1  0.00000000  0.49999999  0.74578701  1
  C  C10  1  0.49999999  0.00000000  0.25421300  1
  C  C11  1  0.00000000  0.49999999  0.25421300  1
  Rh  Rh12  1  0.00000000  0.49999999  -0.00000000  1
  Rh  Rh13  1  0.49999999  0.00000000  -0.00000000  1
  Rh  Rh14  1  0.00000000  0.00000000  0.12565900  1
  C  C15  1  0.00000000  0.00000000  0.87434101  1
