# generated using pymatgen
data_Er2Zn4NiSe8S
_symmetry_space_group_name_H-M   'P 1'
_cell_length_a   3.99819303
_cell_length_b   7.91159010
_cell_length_c   11.35508633
_cell_angle_alpha   90.00000000
_cell_angle_beta   90.00000000
_cell_angle_gamma   90.00000000
_symmetry_Int_Tables_number   1
_chemical_formula_structural   Er2Zn4NiSe8S
_chemical_formula_sum   'Er2 Zn4 Ni1 Se8 S1'
_cell_volume   359.18482146
_cell_formula_units_Z   1
loop_
 _symmetry_equiv_pos_site_id
 _symmetry_equiv_pos_as_xyz
  1  'x, y, z'
loop_
 _atom_site_type_symbol
 _atom_site_label
 _atom_site_symmetry_multiplicity
 _atom_site_fract_x
 _atom_site_fract_y
 _atom_site_fract_z
 _atom_site_occupancy
  Er  Er0  1  0.50000000  0.43361099  0.16964500  1
  Er  Er1  1  0.50000000  0.06638900  0.66964498  1
  Zn  Zn2  1  0.50000000  0.56638899  0.83035498  1
  Zn  Zn3  1  0.50000000  0.93361099  0.33035499  1
  Zn  Zn4  1  0.00000000  0.49999999  0.49999999  1
  Zn  Zn5  1  0.00000000  0.00000000  0.00000000  1
  Se  Se6  1  0.00000000  0.34974300  0.70157798  1
  Se  Se7  1  0.00000000  0.15025700  0.20157799  1
  Se  Se8  1  0.00000000  0.00000000  0.49999999  1
  Se  Se9  1  0.50000000  0.81351999  0.07461500  1
  Ni  Ni10  1  0.00000000  0.49999999  0.00000000  1
  Se  Se11  1  0.00000000  0.65025699  0.29842199  1
  Se  Se12  1  0.50000000  0.31352000  0.42538499  1
  Se  Se13  1  0.50000000  0.68647999  0.57461498  1
  Se  Se14  1  0.50000000  0.18648000  0.92538497  1
  S  S15  1  0.00000000  0.84974299  0.79842198  1
