# generated using pymatgen
data_LiCo3O10
_symmetry_space_group_name_H-M   'P 1'
_cell_length_a   6.04389191
_cell_length_b   6.04472017
_cell_length_c   6.06239080
_cell_angle_alpha   61.05847168
_cell_angle_beta   61.07534027
_cell_angle_gamma   60.44893646
_symmetry_Int_Tables_number   1
_chemical_formula_structural   LiCo3O10
_chemical_formula_sum   'Li1 Co3 O10'
_cell_volume   159.63866483
_cell_formula_units_Z   1
loop_
 _symmetry_equiv_pos_site_id
 _symmetry_equiv_pos_as_xyz
  1  'x, y, z'
loop_
 _atom_site_type_symbol
 _atom_site_label
 _atom_site_symmetry_multiplicity
 _atom_site_fract_x
 _atom_site_fract_y
 _atom_site_fract_z
 _atom_site_occupancy
  Li  Li0  1  0.62454103  0.62545798  0.62499399  1
  Co  Co1  1  0.62447403  0.62550598  0.12501298  1
  Co  Co2  1  0.26126501  0.26221899  0.19412999  1
  Co  Co3  1  0.12348903  0.62533198  0.62643201  1
  O  O4  1  0.98779705  0.98875297  0.05584696  1
  O  O5  1  0.62465701  0.12649000  0.62361700  1
  O  O6  1  0.38434702  0.38358499  0.81873201  1
  O  O7  1  0.86631704  0.86587197  0.43125898  1
  O  O8  1  0.39064802  0.38791699  0.34939999  1
  O  O9  1  0.86164204  0.85967097  0.90070199  1
  O  O10  1  0.86207902  0.38569899  0.36853898  1
  O  O11  1  0.38637204  0.86205297  0.36846899  1
  O  O12  1  0.86449902  0.38801699  0.88137200  1
  O  O13  1  0.38787404  0.86342697  0.88149400  1
