# generated using pymatgen
data_MgZrGa4
_symmetry_space_group_name_H-M   'P 1'
_cell_length_a   4.69222593
_cell_length_b   5.76734781
_cell_length_c   5.76734734
_cell_angle_alpha   120.00000763
_cell_angle_beta   90.00000000
_cell_angle_gamma   90.00000000
_symmetry_Int_Tables_number   1
_chemical_formula_structural   MgZrGa4
_chemical_formula_sum   'Mg1 Zr1 Ga4'
_cell_volume   135.16422681
_cell_formula_units_Z   1
loop_
 _symmetry_equiv_pos_site_id
 _symmetry_equiv_pos_as_xyz
  1  'x, y, z'
loop_
 _atom_site_type_symbol
 _atom_site_label
 _atom_site_symmetry_multiplicity
 _atom_site_fract_x
 _atom_site_fract_y
 _atom_site_fract_z
 _atom_site_occupancy
  Mg  Mg0  1  0.00000000  0.00000000  0.00000000  1
  Zr  Zr1  1  -0.00000000  0.33333336  0.66666668  1
  Ga  Ga2  1  0.50000001  0.50000003  0.50000002  1
  Ga  Ga3  1  0.50000001  0.50000003  0.00000003  1
  Ga  Ga4  1  0.50000001  0.00000000  0.49999999  1
  Ga  Ga5  1  -0.00000000  0.66666671  0.33333337  1
