# generated using pymatgen
data_LiMgH3RuC
_symmetry_space_group_name_H-M   'P 1'
_cell_length_a   5.06085300
_cell_length_b   6.64972067
_cell_length_c   6.64972067
_cell_angle_alpha   101.23802948
_cell_angle_beta   90.00000000
_cell_angle_gamma   90.00000000
_symmetry_Int_Tables_number   1
_chemical_formula_structural   LiMgH3RuC
_chemical_formula_sum   'Li2 Mg2 H6 Ru2 C2'
_cell_volume   219.49392567
_cell_formula_units_Z   2
loop_
 _symmetry_equiv_pos_site_id
 _symmetry_equiv_pos_as_xyz
  1  'x, y, z'
loop_
 _atom_site_type_symbol
 _atom_site_label
 _atom_site_symmetry_multiplicity
 _atom_site_fract_x
 _atom_site_fract_y
 _atom_site_fract_z
 _atom_site_occupancy
  Li  Li0  1  0.75000000  0.83049000  0.59556697  1
  Li  Li1  1  0.25000000  0.10677800  0.89322200  1
  Mg  Mg2  1  0.25000000  0.59556700  0.83048998  1
  Mg  Mg3  1  0.75000000  0.89322200  0.10677796  1
  H  H4  1  0.25000000  0.16951000  0.40443300  1
  H  H5  1  0.75000000  0.40443300  0.16950998  1
  H  H6  1  0.25000000  0.69579500  0.30420497  1
  Ru  Ru7  1  0.75000000  0.30420500  0.69579499  1
  H  H8  1  0.25000000  0.81801000  0.56568597  1
  H  H9  1  0.75000000  0.12697800  0.87302200  1
  C  C10  1  0.25000000  0.87302200  0.12697796  1
  H  H11  1  0.75000000  0.56568600  0.81800998  1
  Ru  Ru12  1  0.75000000  0.18199000  0.43431400  1
  C  C13  1  0.25000000  0.43431400  0.18198998  1
