# generated using pymatgen
data_TaFeCo3SiC8
_symmetry_space_group_name_H-M   'P 1'
_cell_length_a   3.95383906
_cell_length_b   3.95383906
_cell_length_c   11.74808979
_cell_angle_alpha   90.00000000
_cell_angle_beta   90.00000000
_cell_angle_gamma   90.00000000
_symmetry_Int_Tables_number   1
_chemical_formula_structural   TaFeCo3SiC8
_chemical_formula_sum   'Ta1 Fe1 Co3 Si1 C8'
_cell_volume   183.65604725
_cell_formula_units_Z   1
loop_
 _symmetry_equiv_pos_site_id
 _symmetry_equiv_pos_as_xyz
  1  'x, y, z'
loop_
 _atom_site_type_symbol
 _atom_site_label
 _atom_site_symmetry_multiplicity
 _atom_site_fract_x
 _atom_site_fract_y
 _atom_site_fract_z
 _atom_site_occupancy
  Ta  Ta0  1  0.49999999  0.49999999  0.19913800  1
  Fe  Fe1  1  0.49999999  0.49999999  0.80086201  1
  Co  Co2  1  0.49999999  0.49999999  0.50000001  1
  Co  Co3  1  0.00000000  0.00000000  0.00000000  1
  Co  Co4  1  0.00000000  0.00000000  0.35700701  1
  Si  Si5  1  0.00000000  0.00000000  0.64299301  1
  C  C6  1  0.00000000  0.00000000  0.16841300  1
  C  C7  1  0.00000000  0.00000000  0.83158701  1
  C  C8  1  0.00000000  0.49999999  0.00000000  1
  C  C9  1  0.49999999  0.00000000  0.00000000  1
  C  C10  1  0.00000000  0.49999999  0.36868301  1
  C  C11  1  0.00000000  0.49999999  0.63131701  1
  C  C12  1  0.49999999  0.00000000  0.36868301  1
  C  C13  1  0.49999999  0.00000000  0.63131701  1
