# generated using pymatgen
data_Fe2PO11
_symmetry_space_group_name_H-M   'P 1'
_cell_length_a   4.78850031
_cell_length_b   6.15557623
_cell_length_c   6.16075373
_cell_angle_alpha   90.01147461
_cell_angle_beta   89.87673187
_cell_angle_gamma   89.83120728
_symmetry_Int_Tables_number   1
_chemical_formula_structural   Fe2PO11
_chemical_formula_sum   'Fe2 P1 O11'
_cell_volume   181.59303332
_cell_formula_units_Z   1
loop_
 _symmetry_equiv_pos_site_id
 _symmetry_equiv_pos_as_xyz
  1  'x, y, z'
loop_
 _atom_site_type_symbol
 _atom_site_label
 _atom_site_symmetry_multiplicity
 _atom_site_fract_x
 _atom_site_fract_y
 _atom_site_fract_z
 _atom_site_occupancy
  Fe  Fe0  1  0.77619698  0.73785698  0.75033206  1
  Fe  Fe1  1  0.22383999  0.24728299  0.24986902  1
  P  P2  1  0.49990500  0.24191199  0.74985103  1
  O  O3  1  0.50035696  0.74311598  0.25010904  1
  O  O4  1  0.88848102  0.24274399  0.24985804  1
  O  O5  1  0.70072700  0.43621599  0.73196505  1
  O  O6  1  0.68173203  0.03646800  0.76813103  1
  O  O7  1  0.69106997  0.75406098  0.45046705  1
  O  O8  1  0.69261197  0.71877498  0.05077304  1
  O  O9  1  0.30881199  0.26422299  0.94987203  1
  O  O10  1  0.30794500  0.23159999  0.55007603  1
  O  O11  1  0.29897597  0.54862798  0.26530103  1
  O  O12  1  0.31778594  0.94824297  0.23381704  1
  O  O13  1  0.11155895  0.74187098  0.74957804  1
