# generated using pymatgen
data_Ti2SiNiGe3Ru
_symmetry_space_group_name_H-M   'P 1'
_cell_length_a   4.29755020
_cell_length_b   4.29755068
_cell_length_c   7.65334606
_cell_angle_alpha   90.00000000
_cell_angle_beta   90.00000000
_cell_angle_gamma   120.00000000
_symmetry_Int_Tables_number   1
_chemical_formula_structural   Ti2SiNiGe3Ru
_chemical_formula_sum   'Ti2 Si1 Ni1 Ge3 Ru1'
_cell_volume   122.41198722
_cell_formula_units_Z   1
loop_
 _symmetry_equiv_pos_site_id
 _symmetry_equiv_pos_as_xyz
  1  'x, y, z'
loop_
 _atom_site_type_symbol
 _atom_site_label
 _atom_site_symmetry_multiplicity
 _atom_site_fract_x
 _atom_site_fract_y
 _atom_site_fract_z
 _atom_site_occupancy
  Ti  Ti0  1  0.00000000  0.00000000  0.50000000  1
  Ti  Ti1  1  0.00000000  0.00000000  0.00000000  1
  Si  Si2  1  0.33333337  0.66666666  0.58883800  1
  Ge  Ge3  1  0.66666666  0.33333333  0.08883800  1
  Ru  Ru4  1  0.33333337  0.66666666  0.91116199  1
  Ge  Ge5  1  0.66666666  0.33333333  0.41116200  1
  Ge  Ge6  1  0.33333337  0.66666666  0.25000000  1
  Ni  Ni7  1  0.66666666  0.33333333  0.74999999  1
