# generated using pymatgen
data_Ti4VFe5P4
_symmetry_space_group_name_H-M   'P 1'
_cell_length_a   5.52141380
_cell_length_b   5.52141380
_cell_length_c   11.26954937
_cell_angle_alpha   90.00000000
_cell_angle_beta   90.00000000
_cell_angle_gamma   90.00000000
_symmetry_Int_Tables_number   1
_chemical_formula_structural   Ti4VFe5P4
_chemical_formula_sum   'Ti4 V1 Fe5 P4'
_cell_volume   343.56359912
_cell_formula_units_Z   1
loop_
 _symmetry_equiv_pos_site_id
 _symmetry_equiv_pos_as_xyz
  1  'x, y, z'
loop_
 _atom_site_type_symbol
 _atom_site_label
 _atom_site_symmetry_multiplicity
 _atom_site_fract_x
 _atom_site_fract_y
 _atom_site_fract_z
 _atom_site_occupancy
  Ti  Ti0  1  -0.00000000  0.50000002  0.25490299  1
  Ti  Ti1  1  0.50000002  0.00000000  0.74509698  1
  Ti  Ti2  1  -0.00000000  0.50000002  0.74509698  1
  Ti  Ti3  1  0.50000002  0.00000000  0.25490299  1
  Fe  Fe4  1  0.00000000  0.00000000  0.00000000  1
  Fe  Fe5  1  0.50000002  0.50000002  0.49999998  1
  Fe  Fe6  1  0.26811201  0.26811201  0.11509300  1
  V  V7  1  0.73188803  0.73188803  0.11509300  1
  Fe  Fe8  1  0.26811201  0.73188803  0.88490697  1
  Fe  Fe9  1  0.73188803  0.26811201  0.88490697  1
  P  P10  1  0.23870701  0.23870701  0.61758698  1
  P  P11  1  0.76129303  0.76129303  0.61758698  1
  P  P12  1  0.23870701  0.76129303  0.38241299  1
  P  P13  1  0.76129303  0.23870701  0.38241299  1
