# generated using pymatgen
data_BeW4
_symmetry_space_group_name_H-M   'P 1'
_cell_length_a   3.78378201
_cell_length_b   3.78378201
_cell_length_c   5.70694304
_cell_angle_alpha   109.36026764
_cell_angle_beta   109.36026764
_cell_angle_gamma   90.00000000
_symmetry_Int_Tables_number   1
_chemical_formula_structural   BeW4
_chemical_formula_sum   'Be1 W4'
_cell_volume   72.17062549
_cell_formula_units_Z   1
loop_
 _symmetry_equiv_pos_site_id
 _symmetry_equiv_pos_as_xyz
  1  'x, y, z'
loop_
 _atom_site_type_symbol
 _atom_site_label
 _atom_site_symmetry_multiplicity
 _atom_site_fract_x
 _atom_site_fract_y
 _atom_site_fract_z
 _atom_site_occupancy
  Be  Be0  1  0.01153400  0.01153400  0.02306800  1
  W  W1  1  0.37959002  0.37959001  0.75918000  1
  W  W2  1  0.75356002  0.25356001  0.50712002  1
  W  W3  1  0.25356004  0.75356002  0.50712002  1
  W  W4  1  0.60175604  0.60175601  0.20351204  1
