# generated using pymatgen
data_KSn(IBr7)2
_symmetry_space_group_name_H-M   'P 1'
_cell_length_a   8.19889545
_cell_length_b   8.58853722
_cell_length_c   11.86037827
_cell_angle_alpha   90.00000000
_cell_angle_beta   91.02991486
_cell_angle_gamma   90.00000000
_symmetry_Int_Tables_number   1
_chemical_formula_structural   KSn(IBr7)2
_chemical_formula_sum   'K1 Sn1 I2 Br14'
_cell_volume   835.03162454
_cell_formula_units_Z   1
loop_
 _symmetry_equiv_pos_site_id
 _symmetry_equiv_pos_as_xyz
  1  'x, y, z'
loop_
 _atom_site_type_symbol
 _atom_site_label
 _atom_site_symmetry_multiplicity
 _atom_site_fract_x
 _atom_site_fract_y
 _atom_site_fract_z
 _atom_site_occupancy
  K  K0  1  0.46424297  0.67018198  0.52268098  1
  Sn  Sn1  1  0.96424295  0.32981799  0.02268098  1
  I  I2  1  0.48352797  0.26433899  0.74969498  1
  I  I3  1  0.48302797  0.22467199  0.25091299  1
  Br  Br4  1  0.98352794  0.73566098  0.24969497  1
  Br  Br5  1  0.98302794  0.77532798  0.75091297  1
  Br  Br6  1  0.16140899  0.41365199  0.29899399  1
  Br  Br7  1  0.09912499  0.71100298  0.99906598  1
  Br  Br8  1  0.17624099  0.46925999  0.68578699  1
  Br  Br9  1  0.36359198  0.20737999  0.99619898  1
  Br  Br10  1  0.28702398  0.96762698  0.67706698  1
  Br  Br11  1  0.31401898  0.90335298  0.30443499  1
  Br  Br12  1  0.66140896  0.58634799  0.79899397  1
  Br  Br13  1  0.59912497  0.28899699  0.49906598  1
  Br  Br14  1  0.67624096  0.53073999  0.18578698  1
  Br  Br15  1  0.86359195  0.79261998  0.49619897  1
  Br  Br16  1  0.78702396  0.03237300  0.17706698  1
  Br  Br17  1  0.81401895  0.09664700  0.80443497  1
