# generated using pymatgen
data_CsSiS3
_symmetry_space_group_name_H-M   'P 1'
_cell_length_a   6.54818201
_cell_length_b   7.74615192
_cell_length_c   12.73744106
_cell_angle_alpha   90.00000000
_cell_angle_beta   90.00000000
_cell_angle_gamma   107.59455872
_symmetry_Int_Tables_number   1
_chemical_formula_structural   CsSiS3
_chemical_formula_sum   'Cs4 Si4 S12'
_cell_volume   615.85972453
_cell_formula_units_Z   4
loop_
 _symmetry_equiv_pos_site_id
 _symmetry_equiv_pos_as_xyz
  1  'x, y, z'
loop_
 _atom_site_type_symbol
 _atom_site_label
 _atom_site_symmetry_multiplicity
 _atom_site_fract_x
 _atom_site_fract_y
 _atom_site_fract_z
 _atom_site_occupancy
  Cs  Cs0  1  0.28093299  0.25277300  0.91706000  1
  Cs  Cs1  1  0.78093299  0.25277300  0.58294000  1
  Cs  Cs2  1  0.21906698  0.74722699  0.41706000  1
  Cs  Cs3  1  0.71906698  0.74722699  0.08294000  1
  Si  Si4  1  0.35657198  0.80963799  0.77079200  1
  Si  Si5  1  0.14342800  0.19036200  0.27079200  1
  Si  Si6  1  0.85657198  0.80963799  0.72920800  1
  Si  Si7  1  0.64342799  0.19036200  0.22920800  1
  S  S8  1  0.81200800  0.02023900  0.32375500  1
  S  S9  1  0.31200800  0.02023900  0.17624500  1
  S  S10  1  0.36934999  0.56001399  0.67238500  1
  S  S11  1  0.64439498  0.69213999  0.58555000  1
  S  S12  1  0.35560499  0.30785999  0.41445000  1
  S  S13  1  0.14439498  0.69213999  0.91445000  1
  S  S14  1  0.86934999  0.56001399  0.82761500  1
  S  S15  1  0.13064999  0.43998599  0.17238500  1
  S  S16  1  0.68799198  0.97976098  0.82375500  1
  S  S17  1  0.18799198  0.97976098  0.67624500  1
  S  S18  1  0.63064999  0.43998599  0.32761500  1
  S  S19  1  0.85560499  0.30785999  0.08555000  1
