# generated using pymatgen
data_Er3Ni(GePt)6
_symmetry_space_group_name_H-M   'P 1'
_cell_length_a   4.41931915
_cell_length_b   9.09129620
_cell_length_c   9.61187077
_cell_angle_alpha   118.22402191
_cell_angle_beta   103.29051971
_cell_angle_gamma   90.00000000
_symmetry_Int_Tables_number   1
_chemical_formula_structural   Er3Ni(GePt)6
_chemical_formula_sum   'Er3 Ni1 Ge6 Pt6'
_cell_volume   328.47903654
_cell_formula_units_Z   1
loop_
 _symmetry_equiv_pos_site_id
 _symmetry_equiv_pos_as_xyz
  1  'x, y, z'
loop_
 _atom_site_type_symbol
 _atom_site_label
 _atom_site_symmetry_multiplicity
 _atom_site_fract_x
 _atom_site_fract_y
 _atom_site_fract_z
 _atom_site_occupancy
  Er  Er0  1  1.00000000  0.26465100  1.00000002  1
  Er  Er1  1  0.00000005  0.73534899  1.00000000  1
  Er  Er2  1  0.20769704  0.70769699  0.41539401  1
  Ni  Ni3  1  0.79230300  0.29230299  0.58460602  1
  Ge  Ge4  1  0.57897999  0.07897900  0.15795901  1
  Ge  Ge5  1  0.42102005  0.92102098  0.84204101  1
  Ge  Ge6  1  0.57804902  0.57804899  0.15609802  1
  Ge  Ge7  1  0.42195102  0.42195099  0.84390201  1
  Pt  Pt8  1  0.80081002  0.64373099  0.60162002  1
  Pt  Pt9  1  0.19919002  0.35626899  0.39838000  1
  Pt  Pt10  1  0.80081004  0.95788998  0.60162002  1
  Pt  Pt11  1  0.19919000  0.04211000  0.39838000  1
  Ge  Ge12  1  0.64594101  0.39328399  0.29188302  1
  Pt  Pt13  1  0.35405903  0.60671599  0.70811701  1
  Pt  Pt14  1  0.64594104  0.89859898  0.29188302  1
  Ge  Ge15  1  0.35405900  0.10140100  0.70811700  1
