# generated using pymatgen
data_Ti3Pt3Se2
_symmetry_space_group_name_H-M   'P 1'
_cell_length_a   4.39671993
_cell_length_b   4.39671993
_cell_length_c   9.59293461
_cell_angle_alpha   90.00000000
_cell_angle_beta   90.00000000
_cell_angle_gamma   90.00000000
_symmetry_Int_Tables_number   1
_chemical_formula_structural   Ti3Pt3Se2
_chemical_formula_sum   'Ti3 Pt3 Se2'
_cell_volume   185.44242107
_cell_formula_units_Z   1
loop_
 _symmetry_equiv_pos_site_id
 _symmetry_equiv_pos_as_xyz
  1  'x, y, z'
loop_
 _atom_site_type_symbol
 _atom_site_label
 _atom_site_symmetry_multiplicity
 _atom_site_fract_x
 _atom_site_fract_y
 _atom_site_fract_z
 _atom_site_occupancy
  Ti  Ti0  1  0.00000000  0.50000001  0.84029803  1
  Ti  Ti1  1  0.50000001  0.00000000  0.15970201  1
  Ti  Ti2  1  0.50000001  0.50000001  0.50000002  1
  Pt  Pt3  1  0.00000000  0.00000000  0.50000002  1
  Se  Se4  1  0.00000000  0.50000001  0.32975801  1
  Se  Se5  1  0.50000001  0.00000000  0.67024203  1
  Pt  Pt6  1  0.50000001  0.50000001  0.00000000  1
  Pt  Pt7  1  0.00000000  0.00000000  0.00000000  1
