# generated using pymatgen
data_Er2FeCo4Ni5
_symmetry_space_group_name_H-M   'P 1'
_cell_length_a   4.03574085
_cell_length_b   6.88399220
_cell_length_c   7.68982983
_cell_angle_alpha   90.00000000
_cell_angle_beta   90.00000000
_cell_angle_gamma   90.00000000
_symmetry_Int_Tables_number   1
_chemical_formula_structural   Er2FeCo4Ni5
_chemical_formula_sum   'Er2 Fe1 Co4 Ni5'
_cell_volume   213.63891782
_cell_formula_units_Z   1
loop_
 _symmetry_equiv_pos_site_id
 _symmetry_equiv_pos_as_xyz
  1  'x, y, z'
loop_
 _atom_site_type_symbol
 _atom_site_label
 _atom_site_symmetry_multiplicity
 _atom_site_fract_x
 _atom_site_fract_y
 _atom_site_fract_z
 _atom_site_occupancy
  Er  Er0  1  -0.00000000  0.38336099  0.75000002  1
  Er  Er1  1  -0.00000000  0.61663898  0.25000001  1
  Fe  Fe2  1  0.00000000  0.00000000  0.50000001  1
  Co  Co3  1  0.00000000  0.00000000  0.00000000  1
  Co  Co4  1  0.50000002  0.04169000  0.75000002  1
  Ni  Ni5  1  0.50000002  0.95830997  0.25000001  1
  Ni  Ni6  1  0.50000002  0.30066199  0.07069700  1
  Ni  Ni7  1  0.50000002  0.69933798  0.92930302  1
  Co  Co8  1  0.50000002  0.30066199  0.42930301  1
  Ni  Ni9  1  0.50000002  0.69933798  0.57069701  1
  Co  Co10  1  -0.00000000  0.81628398  0.75000002  1
  Ni  Ni11  1  -0.00000000  0.18371599  0.25000001  1
