# generated using pymatgen
data_Hf3Al2C5O4
_symmetry_space_group_name_H-M   'P 1'
_cell_length_a   3.74191594
_cell_length_b   3.74191594
_cell_length_c   12.91215801
_cell_angle_alpha   90.00000000
_cell_angle_beta   90.00000000
_cell_angle_gamma   90.00000000
_symmetry_Int_Tables_number   1
_chemical_formula_structural   Hf3Al2C5O4
_chemical_formula_sum   'Hf3 Al2 C5 O4'
_cell_volume   180.79519605
_cell_formula_units_Z   1
loop_
 _symmetry_equiv_pos_site_id
 _symmetry_equiv_pos_as_xyz
  1  'x, y, z'
loop_
 _atom_site_type_symbol
 _atom_site_label
 _atom_site_symmetry_multiplicity
 _atom_site_fract_x
 _atom_site_fract_y
 _atom_site_fract_z
 _atom_site_occupancy
  Hf  Hf0  1  0.50000001  0.00000000  0.58319700  1
  Hf  Hf1  1  0.00000000  0.50000001  0.41680300  1
  Hf  Hf2  1  0.00000000  0.50000001  0.10575200  1
  Al  Al3  1  0.50000001  0.00000000  0.89424800  1
  Al  Al4  1  0.50000001  0.00000000  0.26648500  1
  C  C5  1  0.00000000  0.50000001  0.73351500  1
  O  O6  1  0.00000000  0.50000001  0.93357900  1
  O  O7  1  0.50000001  0.00000000  0.06642100  1
  C  C8  1  0.00000000  0.50000001  0.59642100  1
  C  C9  1  0.50000001  0.00000000  0.40357900  1
  C  C10  1  0.00000000  0.00000000  0.22828000  1
  C  C11  1  0.50000001  0.50000001  0.22828000  1
  O  O12  1  0.00000000  0.00000000  0.77172000  1
  O  O13  1  0.50000001  0.50000001  0.77172000  1
