# generated using pymatgen
data_H2NO5
_symmetry_space_group_name_H-M   'P 1'
_cell_length_a   2.78873301
_cell_length_b   4.41104794
_cell_length_c   5.96742105
_cell_angle_alpha   90.00000000
_cell_angle_beta   90.00000000
_cell_angle_gamma   90.00000000
_symmetry_Int_Tables_number   1
_chemical_formula_structural   H2NO5
_chemical_formula_sum   'H2 N1 O5'
_cell_volume   73.40664854
_cell_formula_units_Z   1
loop_
 _symmetry_equiv_pos_site_id
 _symmetry_equiv_pos_as_xyz
  1  'x, y, z'
loop_
 _atom_site_type_symbol
 _atom_site_label
 _atom_site_symmetry_multiplicity
 _atom_site_fract_x
 _atom_site_fract_y
 _atom_site_fract_z
 _atom_site_occupancy
  H  H0  1  0.50000000  0.78636801  0.76403799  1
  H  H1  1  0.00000000  0.28636800  0.23596200  1
  O  O2  1  0.00000000  0.32634000  0.74355699  1
  O  O3  1  0.50000000  0.82634001  0.25644300  1
  O  O4  1  0.50000000  0.03930100  0.34073300  1
  O  O5  1  0.00000000  0.53930101  0.65926699  1
  O  O6  1  0.50000000  0.53438101  0.14494400  1
  N  N7  1  0.00000000  0.03438100  0.85505599  1
