# generated using pymatgen
data_Sc4(BiO3)3
_symmetry_space_group_name_H-M   'P 1'
_cell_length_a   7.27329397
_cell_length_b   7.27329397
_cell_length_c   9.74592400
_cell_angle_alpha   75.39985657
_cell_angle_beta   75.39985657
_cell_angle_gamma   61.21400833
_symmetry_Int_Tables_number   1
_chemical_formula_structural   Sc4(BiO3)3
_chemical_formula_sum   'Sc4 Bi3 O9'
_cell_volume   432.04214771
_cell_formula_units_Z   1
loop_
 _symmetry_equiv_pos_site_id
 _symmetry_equiv_pos_as_xyz
  1  'x, y, z'
loop_
 _atom_site_type_symbol
 _atom_site_label
 _atom_site_symmetry_multiplicity
 _atom_site_fract_x
 _atom_site_fract_y
 _atom_site_fract_z
 _atom_site_occupancy
  Sc  Sc0  1  0.00000000  0.49999998  0.50000003  1
  Sc  Sc1  1  0.49999998  0.00000000  0.00000001  1
  Sc  Sc2  1  0.69659298  0.30340699  0.75000005  1
  Sc  Sc3  1  0.30340699  0.69659297  0.25000003  1
  Bi  Bi4  1  0.19393400  0.71495497  0.88969305  1
  Bi  Bi5  1  0.28504499  0.80606597  0.61030704  1
  Bi  Bi6  1  0.80606597  0.28504499  0.11030703  1
  O  O7  1  0.71495498  0.19393399  0.38969303  1
  O  O8  1  0.99041597  0.65056698  0.12607404  1
  O  O9  1  0.34943299  0.00958400  0.37392602  1
  O  O10  1  0.00958400  0.34943299  0.87392604  1
  O  O11  1  0.65056698  0.99041596  0.62607406  1
  O  O12  1  0.60071298  0.22755299  0.96459605  1
  O  O13  1  0.77244698  0.39928698  0.53540504  1
  O  O14  1  0.39928699  0.77244697  0.03540403  1
  O  O15  1  0.22755300  0.60071298  0.46459603  1
