# generated using pymatgen
data_La2B2Ru9C
_symmetry_space_group_name_H-M   'P 1'
_cell_length_a   5.46584606
_cell_length_b   5.81284046
_cell_length_c   9.91990089
_cell_angle_alpha   82.55776215
_cell_angle_beta   74.00824738
_cell_angle_gamma   61.95578766
_symmetry_Int_Tables_number   1
_chemical_formula_structural   La2B2Ru9C
_chemical_formula_sum   'La2 B2 Ru9 C1'
_cell_volume   267.40483980
_cell_formula_units_Z   1
loop_
 _symmetry_equiv_pos_site_id
 _symmetry_equiv_pos_as_xyz
  1  'x, y, z'
loop_
 _atom_site_type_symbol
 _atom_site_label
 _atom_site_symmetry_multiplicity
 _atom_site_fract_x
 _atom_site_fract_y
 _atom_site_fract_z
 _atom_site_occupancy
  La  La0  1  0.49999999  0.00000000  0.00000001  1
  La  La1  1  0.25000001  0.49999998  0.50000000  1
  B  B2  1  0.87158099  0.49999998  0.25683802  1
  Ru  Ru3  1  0.87841898  0.00000000  0.24316202  1
  B  B4  1  0.62841900  0.49999998  0.74316201  1
  Ru  Ru5  1  0.12158100  0.00000000  0.75683799  1
  Ru  Ru6  1  0.93105899  0.38111399  0.89181901  1
  Ru  Ru7  1  0.17712301  0.61888498  0.89181900  1
  Ru  Ru8  1  0.54600701  0.88111497  0.39182002  1
  Ru  Ru9  1  0.20399301  0.61888498  0.10818001  1
  Ru  Ru10  1  0.06217200  0.11888600  0.39182000  1
  Ru  Ru11  1  0.57287701  0.88111497  0.60818101  1
  C  C12  1  0.68782799  0.38111399  0.10818002  1
  Ru  Ru13  1  0.81894098  0.11888600  0.60818101  1
