# generated using pymatgen
data_K2Na2H13F3
_symmetry_space_group_name_H-M   'P 1'
_cell_length_a   5.37268019
_cell_length_b   5.78657103
_cell_length_c   10.91278362
_cell_angle_alpha   90.00000000
_cell_angle_beta   90.00000000
_cell_angle_gamma   90.00000000
_symmetry_Int_Tables_number   1
_chemical_formula_structural   K2Na2H13F3
_chemical_formula_sum   'K2 Na2 H13 F3'
_cell_volume   339.27184608
_cell_formula_units_Z   1
loop_
 _symmetry_equiv_pos_site_id
 _symmetry_equiv_pos_as_xyz
  1  'x, y, z'
loop_
 _atom_site_type_symbol
 _atom_site_label
 _atom_site_symmetry_multiplicity
 _atom_site_fract_x
 _atom_site_fract_y
 _atom_site_fract_z
 _atom_site_occupancy
  K  K0  1  0.05769200  0.75000000  0.89478003  1
  K  K1  1  0.05769200  0.25000000  0.60522002  1
  Na  Na2  1  0.94230797  0.25000000  0.10522000  1
  Na  Na3  1  0.94230797  0.75000000  0.39478001  1
  H  H4  1  0.48232598  0.75000000  0.16120301  1
  H  H5  1  0.48232598  0.25000000  0.33879701  1
  H  H6  1  0.51767398  0.25000000  0.83879703  1
  H  H7  1  0.51767398  0.75000000  0.66120302  1
  H  H8  1  0.38194399  0.75000000  0.52373802  1
  H  H9  1  0.38194399  0.25000000  0.97626203  1
  H  H10  1  0.61805598  0.25000000  0.47626202  1
  H  H11  1  0.61805598  0.75000000  0.02373800  1
  H  H12  1  0.82971697  0.75000000  0.64726602  1
  H  H13  1  0.82971697  0.25000000  0.85273403  1
  F  F14  1  0.17028299  0.25000000  0.35273401  1
  H  H15  1  0.17028299  0.75000000  0.14726601  1
  F  F16  1  0.59029998  0.00000000  0.25000001  1
  H  H17  1  0.40969999  0.50000000  0.75000003  1
  H  H18  1  0.40969999  0.00000000  0.75000003  1
  F  F19  1  0.59029998  0.50000000  0.25000001  1
