# generated using pymatgen
data_VP3
_symmetry_space_group_name_H-M   'P 1'
_cell_length_a   6.52704477
_cell_length_b   6.52704477
_cell_length_c   6.80649805
_cell_angle_alpha   90.00000000
_cell_angle_beta   90.00000000
_cell_angle_gamma   90.00000000
_symmetry_Int_Tables_number   1
_chemical_formula_structural   VP3
_chemical_formula_sum   'V4 P12'
_cell_volume   289.97256359
_cell_formula_units_Z   4
loop_
 _symmetry_equiv_pos_site_id
 _symmetry_equiv_pos_as_xyz
  1  'x, y, z'
loop_
 _atom_site_type_symbol
 _atom_site_label
 _atom_site_symmetry_multiplicity
 _atom_site_fract_x
 _atom_site_fract_y
 _atom_site_fract_z
 _atom_site_occupancy
  V  V0  1  0.00000000  0.50000002  0.50000000  1
  V  V1  1  0.50000002  0.00000000  0.00000000  1
  V  V2  1  0.50000002  0.00000000  0.50000000  1
  V  V3  1  0.00000000  0.50000002  0.00000000  1
  P  P4  1  0.34502801  0.65497202  0.23536400  1
  P  P5  1  0.65497202  0.34502801  0.23536400  1
  P  P6  1  0.15497201  0.15497201  0.73536399  1
  P  P7  1  0.84502803  0.84502803  0.73536399  1
  P  P8  1  0.65497202  0.34502801  0.76463599  1
  P  P9  1  0.34502801  0.65497202  0.76463599  1
  P  P10  1  0.84502803  0.84502803  0.26463600  1
  P  P11  1  0.15497201  0.15497201  0.26463600  1
  P  P12  1  0.15936101  0.84063903  0.50000000  1
  P  P13  1  0.84063903  0.15936101  0.50000000  1
  P  P14  1  0.34063901  0.34063901  0.00000000  1
  P  P15  1  0.65936102  0.65936102  0.00000000  1
