# generated using pymatgen
data_BeN
_symmetry_space_group_name_H-M   'P 1'
_cell_length_a   3.09567404
_cell_length_b   3.09567451
_cell_length_c   20.24825096
_cell_angle_alpha   90.00000000
_cell_angle_beta   90.00000000
_cell_angle_gamma   119.99999237
_symmetry_Int_Tables_number   1
_chemical_formula_structural   BeN
_chemical_formula_sum   'Be8 N8'
_cell_volume   168.04620020
_cell_formula_units_Z   8
loop_
 _symmetry_equiv_pos_site_id
 _symmetry_equiv_pos_as_xyz
  1  'x, y, z'
loop_
 _atom_site_type_symbol
 _atom_site_label
 _atom_site_symmetry_multiplicity
 _atom_site_fract_x
 _atom_site_fract_y
 _atom_site_fract_z
 _atom_site_occupancy
  Be  Be0  1  0.66666665  0.33333334  0.12487200  1
  Be  Be1  1  0.66666665  0.33333334  0.37495000  1
  Be  Be2  1  0.00000000  0.00000000  0.99990300  1
  Be  Be3  1  0.33333331  0.66666667  0.24989600  1
  Be  Be4  1  0.33333331  0.66666667  0.62487200  1
  Be  Be5  1  0.66666665  0.33333334  0.74989600  1
  Be  Be6  1  0.00000000  0.00000000  0.49990300  1
  Be  Be7  1  0.33333331  0.66666667  0.87495000  1
  N  N8  1  0.66666665  0.33333334  0.65591900  1
  N  N9  1  0.33333331  0.66666667  0.78126600  1
  N  N10  1  0.33333331  0.66666667  0.15591900  1
  N  N11  1  0.00000000  0.00000000  0.40608000  1
  N  N12  1  0.66666665  0.33333334  0.03111200  1
  N  N13  1  0.00000000  0.00000000  0.90608000  1
  N  N14  1  0.66666665  0.33333334  0.28126600  1
  N  N15  1  0.33333331  0.66666667  0.53111200  1
