# generated using pymatgen
data_Sr2YTi5O12
_symmetry_space_group_name_H-M   'P 1'
_cell_length_a   6.07244921
_cell_length_b   6.08252764
_cell_length_c   8.59388447
_cell_angle_alpha   89.88395691
_cell_angle_beta   90.00000000
_cell_angle_gamma   90.00000000
_symmetry_Int_Tables_number   1
_chemical_formula_structural   Sr2YTi5O12
_chemical_formula_sum   'Sr2 Y1 Ti5 O12'
_cell_volume   317.42169178
_cell_formula_units_Z   1
loop_
 _symmetry_equiv_pos_site_id
 _symmetry_equiv_pos_as_xyz
  1  'x, y, z'
loop_
 _atom_site_type_symbol
 _atom_site_label
 _atom_site_symmetry_multiplicity
 _atom_site_fract_x
 _atom_site_fract_y
 _atom_site_fract_z
 _atom_site_occupancy
  Sr  Sr0  1  0.51610498  0.99668096  0.74965004  1
  Sr  Sr1  1  0.48389498  0.00331900  0.25035001  1
  Y  Y2  1  0.01610500  0.50331898  0.75035004  1
  Ti  Ti3  1  0.98389497  0.49668098  0.24965001  1
  Ti  Ti4  1  0.00000000  0.00000000  0.00000000  1
  Ti  Ti5  1  0.49999998  0.49999998  0.50000003  1
  Ti  Ti6  1  0.00000000  0.00000000  0.50000003  1
  Ti  Ti7  1  0.49999998  0.49999998  0.00000000  1
  O  O8  1  0.99280397  0.04571200  0.72830304  1
  O  O9  1  0.00719600  0.95428797  0.27169702  1
  O  O10  1  0.49280398  0.45428798  0.77169704  1
  O  O11  1  0.50719598  0.54571198  0.22830301  1
  O  O12  1  0.29308799  0.75105797  0.97605505  1
  O  O13  1  0.70691198  0.24894199  0.02394500  1
  O  O14  1  0.79308797  0.74894197  0.52394503  1
  O  O15  1  0.20691199  0.25105799  0.47605503  1
  O  O16  1  0.75104197  0.70662697  0.97513605  1
  O  O17  1  0.24895799  0.29337299  0.02486400  1
  O  O18  1  0.25104199  0.79337297  0.52486403  1
  O  O19  1  0.74895797  0.20662699  0.47513603  1
