# generated using pymatgen
data_LaSn3F6
_symmetry_space_group_name_H-M   'P 1'
_cell_length_a   6.49312973
_cell_length_b   6.49312925
_cell_length_c   6.49312925
_cell_angle_alpha   60.00000000
_cell_angle_beta   59.99999619
_cell_angle_gamma   60.00000000
_symmetry_Int_Tables_number   1
_chemical_formula_structural   LaSn3F6
_chemical_formula_sum   'La1 Sn3 F6'
_cell_volume   193.57406305
_cell_formula_units_Z   1
loop_
 _symmetry_equiv_pos_site_id
 _symmetry_equiv_pos_as_xyz
  1  'x, y, z'
loop_
 _atom_site_type_symbol
 _atom_site_label
 _atom_site_symmetry_multiplicity
 _atom_site_fract_x
 _atom_site_fract_y
 _atom_site_fract_z
 _atom_site_occupancy
  La  La0  1  0.74999996  0.75000002  0.74999999  1
  Sn  Sn1  1  0.24999999  0.25000001  0.25000000  1
  Sn  Sn2  1  0.49999998  0.50000001  0.50000000  1
  Sn  Sn3  1  0.00000000  0.00000000  0.00000000  1
  F  F4  1  0.20608897  0.79391102  0.79391100  1
  F  F5  1  0.79391096  0.79391102  0.20608901  1
  F  F6  1  0.79391098  0.20608900  0.20608899  1
  F  F7  1  0.20608897  0.79391102  0.20608902  1
  F  F8  1  0.79391098  0.20608900  0.79391097  1
  F  F9  1  0.20608899  0.20608900  0.79391098  1
