# generated using pymatgen
data_Mn4Si3Tc
_symmetry_space_group_name_H-M   'P 1'
_cell_length_a   5.81346178
_cell_length_b   5.81346178
_cell_length_c   5.81346178
_cell_angle_alpha   90.00000000
_cell_angle_beta   90.00000000
_cell_angle_gamma   90.00000000
_symmetry_Int_Tables_number   1
_chemical_formula_structural   Mn4Si3Tc
_chemical_formula_sum   'Mn4 Si3 Tc1'
_cell_volume   196.47371855
_cell_formula_units_Z   1
loop_
 _symmetry_equiv_pos_site_id
 _symmetry_equiv_pos_as_xyz
  1  'x, y, z'
loop_
 _atom_site_type_symbol
 _atom_site_label
 _atom_site_symmetry_multiplicity
 _atom_site_fract_x
 _atom_site_fract_y
 _atom_site_fract_z
 _atom_site_occupancy
  Mn  Mn0  1  0.00000000  0.00000000  0.00000000  1
  Mn  Mn1  1  0.00000000  0.50000002  0.50000002  1
  Mn  Mn2  1  0.50000002  0.50000002  0.00000000  1
  Mn  Mn3  1  0.50000002  0.00000000  0.50000002  1
  Si  Si4  1  0.76336003  0.76336003  0.23664001  1
  Tc  Tc5  1  0.76336003  0.23664001  0.76336003  1
  Si  Si6  1  0.23664001  0.76336003  0.76336003  1
  Si  Si7  1  0.23664001  0.23664001  0.23664001  1
