# generated using pymatgen
data_Ca2SnO5
_symmetry_space_group_name_H-M   'P 1'
_cell_length_a   6.11381817
_cell_length_b   6.11381817
_cell_length_c   7.22446108
_cell_angle_alpha   64.96743774
_cell_angle_beta   64.96743774
_cell_angle_gamma   60.00000000
_symmetry_Int_Tables_number   1
_chemical_formula_structural   Ca2SnO5
_chemical_formula_sum   'Ca2 Sn1 O5'
_cell_volume   204.04815142
_cell_formula_units_Z   1
loop_
 _symmetry_equiv_pos_site_id
 _symmetry_equiv_pos_as_xyz
  1  'x, y, z'
loop_
 _atom_site_type_symbol
 _atom_site_label
 _atom_site_symmetry_multiplicity
 _atom_site_fract_x
 _atom_site_fract_y
 _atom_site_fract_z
 _atom_site_occupancy
  Ca  Ca0  1  0.66657205  0.66657199  0.00028395  1
  Ca  Ca1  1  0.33342802  0.33342800  0.99971598  1
  Sn  Sn2  1  0.57265206  0.92581399  0.22311394  1
  O  O3  1  0.92581403  0.27842000  0.22311396  1
  O  O4  1  0.72158003  0.42734800  0.77688596  1
  O  O5  1  0.07418604  0.72157999  0.77688597  1
  O  O6  1  0.42734801  0.07418600  0.77688599  1
  O  O7  1  0.27842004  0.57265199  0.22311397  1
