# generated using pymatgen
data_CoNiO4
_symmetry_space_group_name_H-M   'P 1'
_cell_length_a   3.09488392
_cell_length_b   3.09488392
_cell_length_c   15.18453121
_cell_angle_alpha   90.00000000
_cell_angle_beta   90.00000000
_cell_angle_gamma   120.00000000
_symmetry_Int_Tables_number   1
_chemical_formula_structural   CoNiO4
_chemical_formula_sum   'Co2 Ni2 O8'
_cell_volume   125.95654780
_cell_formula_units_Z   2
loop_
 _symmetry_equiv_pos_site_id
 _symmetry_equiv_pos_as_xyz
  1  'x, y, z'
loop_
 _atom_site_type_symbol
 _atom_site_label
 _atom_site_symmetry_multiplicity
 _atom_site_fract_x
 _atom_site_fract_y
 _atom_site_fract_z
 _atom_site_occupancy
  Co  Co0  1  0.66666667  0.33333332  0.16701400  1
  Co  Co1  1  0.33333332  0.66666664  0.66701399  1
  Ni  Ni2  1  0.33333332  0.66666664  0.33349100  1
  Ni  Ni3  1  0.66666667  0.33333332  0.83349099  1
  O  O4  1  0.00000000  0.00000000  0.50027699  1
  O  O5  1  0.00000000  0.00000000  0.00027700  1
  O  O6  1  0.00000000  0.00000000  0.12564800  1
  O  O7  1  0.00000000  0.00000000  0.62564799  1
  O  O8  1  0.66666667  0.33333332  0.29199600  1
  O  O9  1  0.33333332  0.66666664  0.79199599  1
  O  O10  1  0.33333332  0.66666664  0.45847399  1
  O  O11  1  0.66666667  0.33333332  0.95847399  1
