# generated using pymatgen
data_Mg5SiSnGe
_symmetry_space_group_name_H-M   'P 1'
_cell_length_a   4.41488934
_cell_length_b   4.41488934
_cell_length_c   14.65176201
_cell_angle_alpha   81.33478546
_cell_angle_beta   81.33478546
_cell_angle_gamma   60.00001144
_symmetry_Int_Tables_number   1
_chemical_formula_structural   Mg5SiSnGe
_chemical_formula_sum   'Mg5 Si1 Sn1 Ge1'
_cell_volume   243.54922429
_cell_formula_units_Z   1
loop_
 _symmetry_equiv_pos_site_id
 _symmetry_equiv_pos_as_xyz
  1  'x, y, z'
loop_
 _atom_site_type_symbol
 _atom_site_label
 _atom_site_symmetry_multiplicity
 _atom_site_fract_x
 _atom_site_fract_y
 _atom_site_fract_z
 _atom_site_occupancy
  Mg  Mg0  1  0.87568998  0.87568998  0.37293003  1
  Mg  Mg1  1  0.12431000  0.12431000  0.62707001  1
  Sn  Sn2  1  0.37287199  0.37287199  0.88138402  1
  Mg  Mg3  1  0.62712799  0.62712799  0.11861602  1
  Mg  Mg4  1  0.25145199  0.25145199  0.24564401  1
  Mg  Mg5  1  0.49999999  0.49999999  0.50000002  1
  Si  Si6  1  0.74854798  0.74854798  0.75435603  1
  Ge  Ge7  1  0.00000000  0.00000000  0.00000000  1
