# generated using pymatgen
data_Zr2SiRu5C
_symmetry_space_group_name_H-M   'P 1'
_cell_length_a   3.92012596
_cell_length_b   6.60217190
_cell_length_c   6.60217237
_cell_angle_alpha   120.00000000
_cell_angle_beta   90.00000000
_cell_angle_gamma   90.00000000
_symmetry_Int_Tables_number   1
_chemical_formula_structural   Zr2SiRu5C
_chemical_formula_sum   'Zr2 Si1 Ru5 C1'
_cell_volume   147.98044889
_cell_formula_units_Z   1
loop_
 _symmetry_equiv_pos_site_id
 _symmetry_equiv_pos_as_xyz
  1  'x, y, z'
loop_
 _atom_site_type_symbol
 _atom_site_label
 _atom_site_symmetry_multiplicity
 _atom_site_fract_x
 _atom_site_fract_y
 _atom_site_fract_z
 _atom_site_occupancy
  Zr  Zr0  1  0.50000000  0.58229102  0.00000002  1
  Zr  Zr1  1  0.50000000  0.41770901  0.41770901  1
  Si  Si2  1  0.50000000  1.00000003  0.58229102  1
  Ru  Ru3  1  -0.00000000  0.33333334  0.66666667  1
  Ru  Ru4  1  -0.00000000  0.66666669  0.33333335  1
  Ru  Ru5  1  0.50000000  0.00000000  -0.00000000  1
  Ru  Ru6  1  -0.00000000  0.24603001  0.00000001  1
  Ru  Ru7  1  -0.00000000  0.75397002  0.75397001  1
  C  C8  1  0.00000000  0.00000000  0.24603000  1
