# generated using pymatgen
data_La2SnPt
_symmetry_space_group_name_H-M   'P 1'
_cell_length_a   3.70312691
_cell_length_b   5.86856794
_cell_length_c   6.17518282
_cell_angle_alpha   90.00000000
_cell_angle_beta   90.00000000
_cell_angle_gamma   90.00000000
_symmetry_Int_Tables_number   1
_chemical_formula_structural   La2SnPt
_chemical_formula_sum   'La2 Sn1 Pt1'
_cell_volume   134.19939327
_cell_formula_units_Z   1
loop_
 _symmetry_equiv_pos_site_id
 _symmetry_equiv_pos_as_xyz
  1  'x, y, z'
loop_
 _atom_site_type_symbol
 _atom_site_label
 _atom_site_symmetry_multiplicity
 _atom_site_fract_x
 _atom_site_fract_y
 _atom_site_fract_z
 _atom_site_occupancy
  La  La0  1  0.00000000  0.00000000  0.00411700  1
  La  La1  1  0.50000001  0.00000000  0.46889301  1
  Sn  Sn2  1  0.50000001  0.50000000  0.85636503  1
  Pt  Pt3  1  0.00000000  0.50000000  0.33729101  1
