# generated using pymatgen
data_MgZn
_symmetry_space_group_name_H-M   'P 1'
_cell_length_a   5.26429987
_cell_length_b   6.34608603
_cell_length_c   6.34608650
_cell_angle_alpha   60.00000000
_cell_angle_beta   90.00000000
_cell_angle_gamma   90.00000000
_symmetry_Int_Tables_number   1
_chemical_formula_structural   MgZn
_chemical_formula_sum   'Mg4 Zn4'
_cell_volume   183.60444630
_cell_formula_units_Z   4
loop_
 _symmetry_equiv_pos_site_id
 _symmetry_equiv_pos_as_xyz
  1  'x, y, z'
loop_
 _atom_site_type_symbol
 _atom_site_label
 _atom_site_symmetry_multiplicity
 _atom_site_fract_x
 _atom_site_fract_y
 _atom_site_fract_z
 _atom_site_occupancy
  Mg  Mg0  1  0.75000002  0.83380201  0.33239596  1
  Mg  Mg1  1  0.75000002  0.33239600  0.83380196  1
  Mg  Mg2  1  0.75000002  0.83380201  0.83380195  1
  Mg  Mg3  1  0.25000001  0.16619800  0.66760397  1
  Zn  Zn4  1  0.25000001  0.66760401  0.16619798  1
  Zn  Zn5  1  0.25000001  0.16619800  0.16619799  1
  Zn  Zn6  1  0.75000002  0.33333334  0.33333331  1
  Zn  Zn7  1  0.25000001  0.66666667  0.66666662  1
