# generated using pymatgen
data_La2In3Co5
_symmetry_space_group_name_H-M   'P 1'
_cell_length_a   3.83330011
_cell_length_b   7.82922792
_cell_length_c   7.82922792
_cell_angle_alpha   90.00000000
_cell_angle_beta   90.00000000
_cell_angle_gamma   90.00000000
_symmetry_Int_Tables_number   1
_chemical_formula_structural   La2In3Co5
_chemical_formula_sum   'La2 In3 Co5'
_cell_volume   234.96906832
_cell_formula_units_Z   1
loop_
 _symmetry_equiv_pos_site_id
 _symmetry_equiv_pos_as_xyz
  1  'x, y, z'
loop_
 _atom_site_type_symbol
 _atom_site_label
 _atom_site_symmetry_multiplicity
 _atom_site_fract_x
 _atom_site_fract_y
 _atom_site_fract_z
 _atom_site_occupancy
  La  La0  1  0.49999999  0.32762100  0.82762101  1
  La  La1  1  0.49999999  0.82762101  0.67237901  1
  In  In2  1  0.49999999  0.17237900  0.32762100  1
  In  In3  1  0.49999999  0.67237901  0.17237900  1
  In  In4  1  0.00000000  0.00000000  0.00000000  1
  Co  Co5  1  0.00000000  0.50000000  0.50000000  1
  Co  Co6  1  0.99999997  0.36968800  0.13031200  1
  Co  Co7  1  0.99999997  0.86968801  0.36968800  1
  Co  Co8  1  0.99999997  0.13031200  0.63031201  1
  Co  Co9  1  0.00000000  0.63031201  0.86968801  1
