# generated using pymatgen
data_CsBr5
_symmetry_space_group_name_H-M   'P 1'
_cell_length_a   8.30618000
_cell_length_b   8.30618000
_cell_length_c   10.16775322
_cell_angle_alpha   114.10794067
_cell_angle_beta   114.10794067
_cell_angle_gamma   90.00000000
_symmetry_Int_Tables_number   1
_chemical_formula_structural   CsBr5
_chemical_formula_sum   'Cs2 Br10'
_cell_volume   572.62590649
_cell_formula_units_Z   2
loop_
 _symmetry_equiv_pos_site_id
 _symmetry_equiv_pos_as_xyz
  1  'x, y, z'
loop_
 _atom_site_type_symbol
 _atom_site_label
 _atom_site_symmetry_multiplicity
 _atom_site_fract_x
 _atom_site_fract_y
 _atom_site_fract_z
 _atom_site_occupancy
  Cs  Cs0  1  0.24999997  0.74999998  0.49999997  1
  Cs  Cs1  1  0.49999998  0.49999999  -0.00000004  1
  Br  Br2  1  0.74999998  0.24999999  0.49999998  1
  Br  Br3  1  0.00000000  0.00000000  0.00000000  1
  Br  Br4  1  0.87746796  0.87746798  0.24549094  1
  Br  Br5  1  0.36802296  0.87746798  0.24549096  1
  Br  Br6  1  0.63197697  0.63197699  0.75450897  1
  Br  Br7  1  0.12253198  0.63197699  0.75450898  1
  Br  Br8  1  0.87746798  0.36802299  0.24549096  1
  Br  Br9  1  0.36802298  0.36802299  0.24549098  1
  Br  Br10  1  0.12253199  0.12253200  0.75450900  1
  Br  Br11  1  0.63197699  0.12253200  0.75450899  1
