# generated using pymatgen
data_Mg2ZnNi5B
_symmetry_space_group_name_H-M   'P 1'
_cell_length_a   4.75529099
_cell_length_b   5.83003378
_cell_length_c   5.83003426
_cell_angle_alpha   60.00000381
_cell_angle_beta   90.00000000
_cell_angle_gamma   90.00000000
_symmetry_Int_Tables_number   1
_chemical_formula_structural   Mg2ZnNi5B
_chemical_formula_sum   'Mg2 Zn1 Ni5 B1'
_cell_volume   139.97482184
_cell_formula_units_Z   1
loop_
 _symmetry_equiv_pos_site_id
 _symmetry_equiv_pos_as_xyz
  1  'x, y, z'
loop_
 _atom_site_type_symbol
 _atom_site_label
 _atom_site_symmetry_multiplicity
 _atom_site_fract_x
 _atom_site_fract_y
 _atom_site_fract_z
 _atom_site_occupancy
  Mg  Mg0  1  0.30547000  0.33333334  0.33333335  1
  Mg  Mg1  1  0.69453000  0.66666668  0.66666670  1
  Zn  Zn2  1  0.00000000  0.00000000  0.00000000  1
  Ni  Ni3  1  0.22273900  0.84429202  0.84429105  1
  Ni  Ni4  1  0.22273900  0.84429202  0.31141603  1
  Ni  Ni5  1  0.22273900  0.31141701  0.84429103  1
  Ni  Ni6  1  0.77726100  0.68858301  0.15570903  1
  Ni  Ni7  1  0.77726100  0.15570800  0.15570901  1
  B  B8  1  0.77726100  0.15570800  0.68858402  1
