# generated using pymatgen
data_MnAgF10
_symmetry_space_group_name_H-M   'P 1'
_cell_length_a   5.69683313
_cell_length_b   5.69683313
_cell_length_c   5.69683361
_cell_angle_alpha   89.50378418
_cell_angle_beta   89.50378418
_cell_angle_gamma   89.50378418
_symmetry_Int_Tables_number   1
_chemical_formula_structural   MnAgF10
_chemical_formula_sum   'Mn1 Ag1 F10'
_cell_volume   184.86383077
_cell_formula_units_Z   1
loop_
 _symmetry_equiv_pos_site_id
 _symmetry_equiv_pos_as_xyz
  1  'x, y, z'
loop_
 _atom_site_type_symbol
 _atom_site_label
 _atom_site_symmetry_multiplicity
 _atom_site_fract_x
 _atom_site_fract_y
 _atom_site_fract_z
 _atom_site_occupancy
  Mn  Mn0  1  0.00000000  0.00000000  0.00000000  1
  Ag  Ag1  1  0.49999998  0.49999999  -0.00000005  1
  F  F2  1  -0.00000001  0.49999999  0.49999998  1
  F  F3  1  0.49999999  0.00000000  0.49999998  1
  F  F4  1  0.90241398  0.09801700  0.37876195  1
  F  F5  1  0.37876197  0.90241398  0.09801694  1
  F  F6  1  0.09801699  0.37876199  0.90241398  1
  F  F7  1  0.60167397  0.60167399  0.60167394  1
  F  F8  1  0.09758597  0.90198298  0.62123795  1
  F  F9  1  0.62123799  0.09758600  0.90198297  1
  F  F10  1  0.90198297  0.62123799  0.09758592  1
  F  F11  1  0.39832598  0.39832599  0.39832596  1
