# generated using pymatgen
data_Fe2NiB3RuN7
_symmetry_space_group_name_H-M   'P 1'
_cell_length_a   2.94757009
_cell_length_b   2.95455694
_cell_length_c   12.93342590
_cell_angle_alpha   90.00000000
_cell_angle_beta   90.00000000
_cell_angle_gamma   90.00000000
_symmetry_Int_Tables_number   1
_chemical_formula_structural   Fe2NiB3RuN7
_chemical_formula_sum   'Fe2 Ni1 B3 Ru1 N7'
_cell_volume   112.63414948
_cell_formula_units_Z   1
loop_
 _symmetry_equiv_pos_site_id
 _symmetry_equiv_pos_as_xyz
  1  'x, y, z'
loop_
 _atom_site_type_symbol
 _atom_site_label
 _atom_site_symmetry_multiplicity
 _atom_site_fract_x
 _atom_site_fract_y
 _atom_site_fract_z
 _atom_site_occupancy
  Fe  Fe0  1  0.00000000  0.00000000  0.18602300  1
  B  B1  1  0.00000000  0.50000001  0.99898301  1
  Fe  Fe2  1  0.49999999  0.00000000  0.49947900  1
  B  B3  1  0.00000000  0.00000000  0.81417901  1
  B  B4  1  0.49999999  0.50000001  0.31406800  1
  Ni  Ni5  1  0.49999999  0.50000001  0.68615001  1
  Ru  Ru6  1  0.00000000  0.50000001  0.56585100  1
  N  N7  1  0.49999999  0.00000000  0.06725700  1
  N  N8  1  0.49999999  0.00000000  0.93444201  1
  N  N9  1  0.00000000  0.50000001  0.43317800  1
  N  N10  1  0.00000000  0.00000000  0.64001000  1
  N  N11  1  0.49999999  0.50000001  0.14183900  1
  N  N12  1  0.49999999  0.50000001  0.86015501  1
  N  N13  1  0.00000000  0.00000000  0.35838600  1
