# generated using pymatgen
data_Ti5Ni3Sb5
_symmetry_space_group_name_H-M   'P 1'
_cell_length_a   3.51492000
_cell_length_b   6.07007504
_cell_length_c   14.46273994
_cell_angle_alpha   102.08433533
_cell_angle_beta   96.97962952
_cell_angle_gamma   90.00000000
_symmetry_Int_Tables_number   1
_chemical_formula_structural   Ti5Ni3Sb5
_chemical_formula_sum   'Ti5 Ni3 Sb5'
_cell_volume   299.39774112
_cell_formula_units_Z   1
loop_
 _symmetry_equiv_pos_site_id
 _symmetry_equiv_pos_as_xyz
  1  'x, y, z'
loop_
 _atom_site_type_symbol
 _atom_site_label
 _atom_site_symmetry_multiplicity
 _atom_site_fract_x
 _atom_site_fract_y
 _atom_site_fract_z
 _atom_site_occupancy
  Ti  Ti0  1  0.87193403  0.86179099  0.74386804  1
  Ti  Ti1  1  0.37136101  0.38034099  0.74272202  1
  Ti  Ti2  1  0.12806601  0.13820900  0.25613201  1
  Ti  Ti3  1  0.62863902  0.61965899  0.25727802  1
  Ti  Ti4  1  0.50000002  0.49999999  0.00000001  1
  Ni  Ni5  1  0.43276803  0.76878299  0.86553603  1
  Ni  Ni6  1  0.93099702  0.26127000  0.86199403  1
  Sb  Sb7  1  0.06900302  0.73872999  0.13800601  1
  Sb  Sb8  1  0.56723201  0.23121700  0.13446401  1
  Sb  Sb9  1  0.18626903  0.85470199  0.37253802  1
  Sb  Sb10  1  0.68839202  0.35479299  0.37678402  1
  Ni  Ni11  1  0.31160802  0.64520699  0.62321602  1
  Sb  Sb12  1  0.81373101  0.14529800  0.62746203  1
