# generated using pymatgen
data_NbPdF7
_symmetry_space_group_name_H-M   'P 1'
_cell_length_a   5.82896709
_cell_length_b   6.17323017
_cell_length_c   8.37915993
_cell_angle_alpha   102.66590118
_cell_angle_beta   90.00000000
_cell_angle_gamma   90.00000000
_symmetry_Int_Tables_number   1
_chemical_formula_structural   NbPdF7
_chemical_formula_sum   'Nb2 Pd2 F14'
_cell_volume   294.17473610
_cell_formula_units_Z   2
loop_
 _symmetry_equiv_pos_site_id
 _symmetry_equiv_pos_as_xyz
  1  'x, y, z'
loop_
 _atom_site_type_symbol
 _atom_site_label
 _atom_site_symmetry_multiplicity
 _atom_site_fract_x
 _atom_site_fract_y
 _atom_site_fract_z
 _atom_site_occupancy
  Nb  Nb0  1  0.25054800  0.84236997  0.81350899  1
  Nb  Nb1  1  0.75054799  0.15762999  0.18649100  1
  Pd  Pd2  1  0.73806599  0.31317499  0.72473301  1
  Pd  Pd3  1  0.23806600  0.68682497  0.27526698  1
  F  F4  1  0.49878799  0.54726398  0.72797800  1
  F  F5  1  0.06616900  0.05594400  0.02530500  1
  F  F6  1  0.97256098  0.55614598  0.74343200  1
  F  F7  1  0.56616899  0.94405596  0.97469499  1
  F  F8  1  0.24714200  0.73728797  0.51758498  1
  F  F9  1  0.46803199  0.93001896  0.28684597  1
  F  F10  1  0.47304699  0.10095800  0.71003702  1
  F  F11  1  0.99878798  0.45273598  0.27202199  1
  F  F12  1  0.97304698  0.89904196  0.28996297  1
  F  F13  1  0.73144799  0.36476598  0.96872402  1
  F  F14  1  0.74714199  0.26271199  0.48241500  1
  F  F15  1  0.96803198  0.06998100  0.71315402  1
  F  F16  1  0.47256099  0.44385398  0.25656799  1
  F  F17  1  0.23144800  0.63523397  0.03127597  1
