# generated using pymatgen
data_TmNi2Mo3
_symmetry_space_group_name_H-M   'P 1'
_cell_length_a   5.06400013
_cell_length_b   5.06400013
_cell_length_c   8.24055290
_cell_angle_alpha   90.00000000
_cell_angle_beta   90.00000000
_cell_angle_gamma   119.98829651
_symmetry_Int_Tables_number   1
_chemical_formula_structural   TmNi2Mo3
_chemical_formula_sum   'Tm2 Ni4 Mo6'
_cell_volume   183.03140140
_cell_formula_units_Z   2
loop_
 _symmetry_equiv_pos_site_id
 _symmetry_equiv_pos_as_xyz
  1  'x, y, z'
loop_
 _atom_site_type_symbol
 _atom_site_label
 _atom_site_symmetry_multiplicity
 _atom_site_fract_x
 _atom_site_fract_y
 _atom_site_fract_z
 _atom_site_occupancy
  Tm  Tm0  1  0.33333336  0.66666667  0.43771501  1
  Tm  Tm1  1  0.66666667  0.33333333  0.56228501  1
  Ni  Ni2  1  0.66666667  0.33333333  0.93771501  1
  Ni  Ni3  1  0.33333336  0.66666667  0.06228500  1
  Mo  Mo4  1  0.00000000  0.00000000  0.50000001  1
  Mo  Mo5  1  0.00000000  0.00000000  0.00000000  1
  Mo  Mo6  1  0.33380100  0.16691400  0.25000000  1
  Mo  Mo7  1  0.83310699  0.16689300  0.25000000  1
  Mo  Mo8  1  0.83308602  0.66619900  0.25000000  1
  Ni  Ni9  1  0.66619903  0.83308600  0.75000001  1
  Ni  Ni10  1  0.16689304  0.83310700  0.75000001  1
  Mo  Mo11  1  0.16691401  0.33380100  0.75000001  1
