# generated using pymatgen
data_LaTi2AgO6
_symmetry_space_group_name_H-M   'P 1'
_cell_length_a   5.68553019
_cell_length_b   5.69036865
_cell_length_c   5.70395422
_cell_angle_alpha   60.52347946
_cell_angle_beta   60.10679245
_cell_angle_gamma   60.02812576
_symmetry_Int_Tables_number   1
_chemical_formula_structural   LaTi2AgO6
_chemical_formula_sum   'La1 Ti2 Ag1 O6'
_cell_volume   131.13129615
_cell_formula_units_Z   1
loop_
 _symmetry_equiv_pos_site_id
 _symmetry_equiv_pos_as_xyz
  1  'x, y, z'
loop_
 _atom_site_type_symbol
 _atom_site_label
 _atom_site_symmetry_multiplicity
 _atom_site_fract_x
 _atom_site_fract_y
 _atom_site_fract_z
 _atom_site_occupancy
  La  La0  1  0.74914699  0.24671701  0.25498898  1
  Ag  Ag1  1  0.25085301  0.75328302  0.74501099  1
  Ti  Ti2  1  0.49999999  0.00000000  1.00000001  1
  Ti  Ti3  1  0.00000001  0.50000001  0.50000000  1
  O  O4  1  0.75696900  0.68461102  0.80145098  1
  O  O5  1  0.24303100  0.31538901  0.19854899  1
  O  O6  1  0.27516400  0.22619201  0.71191200  1
  O  O7  1  0.21326801  0.77380802  0.28808798  1
  O  O8  1  0.72483600  0.77380802  0.28808797  1
  O  O9  1  0.78673199  0.22619201  0.71191199  1
