# generated using pymatgen
data_Li(CuAs)2
_symmetry_space_group_name_H-M   'P 1'
_cell_length_a   4.26592588
_cell_length_b   4.26592588
_cell_length_c   7.31926489
_cell_angle_alpha   90.00000000
_cell_angle_beta   90.00000000
_cell_angle_gamma   120.00000000
_symmetry_Int_Tables_number   1
_chemical_formula_structural   Li(CuAs)2
_chemical_formula_sum   'Li1 Cu2 As2'
_cell_volume   115.35188826
_cell_formula_units_Z   1
loop_
 _symmetry_equiv_pos_site_id
 _symmetry_equiv_pos_as_xyz
  1  'x, y, z'
loop_
 _atom_site_type_symbol
 _atom_site_label
 _atom_site_symmetry_multiplicity
 _atom_site_fract_x
 _atom_site_fract_y
 _atom_site_fract_z
 _atom_site_occupancy
  Li  Li0  1  0.00000000  0.00000000  0.00000000  1
  Cu  Cu1  1  0.33333332  0.66666663  0.62940601  1
  Cu  Cu2  1  0.66666667  0.33333332  0.37059401  1
  As  As3  1  0.33333332  0.66666663  0.27064500  1
  As  As4  1  0.66666667  0.33333332  0.72935501  1
