# generated using pymatgen
data_Li2NiPdF6
_symmetry_space_group_name_H-M   'P 1'
_cell_length_a   5.73815298
_cell_length_b   5.73815298
_cell_length_c   5.73815298
_cell_angle_alpha   60.00000000
_cell_angle_beta   60.00000000
_cell_angle_gamma   60.00000000
_symmetry_Int_Tables_number   1
_chemical_formula_structural   Li2NiPdF6
_chemical_formula_sum   'Li2 Ni1 Pd1 F6'
_cell_volume   133.59843465
_cell_formula_units_Z   1
loop_
 _symmetry_equiv_pos_site_id
 _symmetry_equiv_pos_as_xyz
  1  'x, y, z'
loop_
 _atom_site_type_symbol
 _atom_site_label
 _atom_site_symmetry_multiplicity
 _atom_site_fract_x
 _atom_site_fract_y
 _atom_site_fract_z
 _atom_site_occupancy
  Li  Li0  1  0.25000001  0.25000001  0.25000001  1
  Li  Li1  1  0.75000002  0.75000002  0.75000002  1
  Ni  Ni2  1  0.50000001  0.50000001  0.50000001  1
  Pd  Pd3  1  0.00000000  0.00000000  0.00000000  1
  F  F4  1  0.76214902  0.76214902  0.23785101  1
  F  F5  1  0.23785101  0.23785101  0.76214902  1
  F  F6  1  0.76214902  0.23785101  0.23785101  1
  F  F7  1  0.23785101  0.76214902  0.76214902  1
  F  F8  1  0.76214902  0.23785101  0.76214902  1
  F  F9  1  0.23785101  0.76214902  0.23785101  1
