# generated using pymatgen
data_CaEu2ZrAlH5
_symmetry_space_group_name_H-M   'P 1'
_cell_length_a   6.33027601
_cell_length_b   6.33027601
_cell_length_c   6.33027601
_cell_angle_alpha   60.00000000
_cell_angle_beta   60.00000000
_cell_angle_gamma   60.00000000
_symmetry_Int_Tables_number   1
_chemical_formula_structural   CaEu2ZrAlH5
_chemical_formula_sum   'Ca1 Eu2 Zr1 Al1 H5'
_cell_volume   179.37129422
_cell_formula_units_Z   1
loop_
 _symmetry_equiv_pos_site_id
 _symmetry_equiv_pos_as_xyz
  1  'x, y, z'
loop_
 _atom_site_type_symbol
 _atom_site_label
 _atom_site_symmetry_multiplicity
 _atom_site_fract_x
 _atom_site_fract_y
 _atom_site_fract_z
 _atom_site_occupancy
  Zr  Zr0  1  0.24999999  0.24999999  0.24999999  1
  Ca  Ca1  1  0.74999998  0.74999998  0.74999998  1
  Eu  Eu2  1  0.00000000  0.00000000  0.00000000  1
  Eu  Eu3  1  0.49999999  0.49999999  0.49999999  1
  Al  Al4  1  0.20515300  0.79484698  0.20515300  1
  H  H5  1  0.20515300  0.20515300  0.79484698  1
  H  H6  1  0.79484698  0.20515300  0.79484698  1
  H  H7  1  0.20515300  0.79484698  0.79484698  1
  H  H8  1  0.79484698  0.20515300  0.20515300  1
  H  H9  1  0.79484698  0.79484698  0.20515300  1
