# generated using pymatgen
data_Mg2Ni2Sn2Pt
_symmetry_space_group_name_H-M   'P 1'
_cell_length_a   4.49713898
_cell_length_b   4.53939390
_cell_length_c   9.40678310
_cell_angle_alpha   90.00000000
_cell_angle_beta   103.82971191
_cell_angle_gamma   90.00000000
_symmetry_Int_Tables_number   1
_chemical_formula_structural   Mg2Ni2Sn2Pt
_chemical_formula_sum   'Mg2 Ni2 Sn2 Pt1'
_cell_volume   186.46581099
_cell_formula_units_Z   1
loop_
 _symmetry_equiv_pos_site_id
 _symmetry_equiv_pos_as_xyz
  1  'x, y, z'
loop_
 _atom_site_type_symbol
 _atom_site_label
 _atom_site_symmetry_multiplicity
 _atom_site_fract_x
 _atom_site_fract_y
 _atom_site_fract_z
 _atom_site_occupancy
  Mg  Mg0  1  0.89521302  0.75000002  0.79042504  1
  Mg  Mg1  1  0.10373400  0.25000001  0.20746901  1
  Sn  Sn2  1  0.54023201  0.75000002  0.08046502  1
  Sn  Sn3  1  0.43900501  0.25000001  0.87801103  1
  Ni  Ni4  1  0.26296300  0.75000002  0.52592502  1
  Ni  Ni5  1  0.76123201  0.25000001  0.52246403  1
  Pt  Pt6  1  0.68262001  0.75000002  0.36524002  1
