# generated using pymatgen
data_SrPbAu4
_symmetry_space_group_name_H-M   'P 1'
_cell_length_a   6.07297421
_cell_length_b   6.07297421
_cell_length_c   9.80424786
_cell_angle_alpha   90.00000000
_cell_angle_beta   90.00000000
_cell_angle_gamma   120.00000000
_symmetry_Int_Tables_number   1
_chemical_formula_structural   SrPbAu4
_chemical_formula_sum   'Sr2 Pb2 Au8'
_cell_volume   313.14666187
_cell_formula_units_Z   2
loop_
 _symmetry_equiv_pos_site_id
 _symmetry_equiv_pos_as_xyz
  1  'x, y, z'
loop_
 _atom_site_type_symbol
 _atom_site_label
 _atom_site_symmetry_multiplicity
 _atom_site_fract_x
 _atom_site_fract_y
 _atom_site_fract_z
 _atom_site_occupancy
  Sr  Sr0  1  0.66666665  0.33333334  0.93545701  1
  Sr  Sr1  1  0.33333334  0.66666667  0.43545701  1
  Pb  Pb2  1  0.33333334  0.66666667  0.06454300  1
  Pb  Pb3  1  0.66666665  0.33333334  0.56454301  1
  Au  Au4  1  0.00000000  0.00000000  0.00000000  1
  Au  Au5  1  0.00000000  0.00000000  0.50000001  1
  Au  Au6  1  0.17103901  0.82896201  0.75000001  1
  Au  Au7  1  0.82896099  0.65792201  0.25000000  1
  Au  Au8  1  0.34207699  0.17103800  0.25000000  1
  Au  Au9  1  0.65792300  0.82896201  0.75000001  1
  Au  Au10  1  0.17103900  0.34207800  0.75000001  1
  Au  Au11  1  0.82896098  0.17103800  0.25000000  1
