# generated using pymatgen
data_Ce3In2Ni
_symmetry_space_group_name_H-M   'P 1'
_cell_length_a   5.47396612
_cell_length_b   5.47396612
_cell_length_c   6.82229519
_cell_angle_alpha   90.00000000
_cell_angle_beta   90.00000000
_cell_angle_gamma   120.00000000
_symmetry_Int_Tables_number   1
_chemical_formula_structural   Ce3In2Ni
_chemical_formula_sum   'Ce3 In2 Ni1'
_cell_volume   177.03753288
_cell_formula_units_Z   1
loop_
 _symmetry_equiv_pos_site_id
 _symmetry_equiv_pos_as_xyz
  1  'x, y, z'
loop_
 _atom_site_type_symbol
 _atom_site_label
 _atom_site_symmetry_multiplicity
 _atom_site_fract_x
 _atom_site_fract_y
 _atom_site_fract_z
 _atom_site_occupancy
  Ce  Ce0  1  0.66666666  0.33333335  0.24999999  1
  Ce  Ce1  1  0.00000000  0.00000000  0.00000000  1
  Ce  Ce2  1  0.00000000  0.00000000  0.49999999  1
  In  In3  1  0.33333335  0.66666671  0.74999998  1
  In  In4  1  0.33333335  0.66666671  0.24999999  1
  Ni  Ni5  1  0.66666666  0.33333335  0.74999998  1
