# generated using pymatgen
data_Ca4SnO3
_symmetry_space_group_name_H-M   'P 1'
_cell_length_a   5.87917185
_cell_length_b   5.94702578
_cell_length_c   8.92870712
_cell_angle_alpha   83.52458954
_cell_angle_beta   70.77803802
_cell_angle_gamma   69.96776581
_symmetry_Int_Tables_number   1
_chemical_formula_structural   Ca4SnO3
_chemical_formula_sum   'Ca8 Sn2 O6'
_cell_volume   276.94177289
_cell_formula_units_Z   2
loop_
 _symmetry_equiv_pos_site_id
 _symmetry_equiv_pos_as_xyz
  1  'x, y, z'
loop_
 _atom_site_type_symbol
 _atom_site_label
 _atom_site_symmetry_multiplicity
 _atom_site_fract_x
 _atom_site_fract_y
 _atom_site_fract_z
 _atom_site_occupancy
  Ca  Ca0  1  0.47583396  0.74997800  0.06739104  1
  Ca  Ca1  1  0.03730295  0.78139099  0.91392305  1
  Ca  Ca2  1  0.40099299  0.30641900  0.28271502  1
  Ca  Ca3  1  0.68370796  0.80641899  0.71728506  1
  Ca  Ca4  1  0.24425496  0.74829600  0.49253905  1
  Ca  Ca5  1  0.73679400  0.24829600  0.50746103  1
  Ca  Ca6  1  0.95122600  0.28139100  0.08607702  1
  Ca  Ca7  1  0.54322500  0.24997800  0.93260903  1
  Sn  Sn8  1  0.13206099  0.25057600  0.71278903  1
  Sn  Sn9  1  0.84484997  0.75057600  0.28721105  1
  O  O10  1  0.95267002  0.02779700  0.67566702  1
  O  O11  1  0.62833698  0.52779700  0.32433304  1
  O  O12  1  0.82251999  0.48760100  0.86687405  1
  O  O13  1  0.68939395  0.98760099  0.13312605  1
  O  O14  1  0.29778200  0.04044100  0.87326702  1
  O  O15  1  0.17104897  0.54044100  0.12673303  1
