# generated using pymatgen
data_FeCO3
_symmetry_space_group_name_H-M   'P 1'
_cell_length_a   5.02398968
_cell_length_b   6.43935013
_cell_length_c   7.83243322
_cell_angle_alpha   89.99295044
_cell_angle_beta   89.99364471
_cell_angle_gamma   68.98462677
_symmetry_Int_Tables_number   1
_chemical_formula_structural   FeCO3
_chemical_formula_sum   'Fe4 C4 O12'
_cell_volume   236.53448349
_cell_formula_units_Z   4
loop_
 _symmetry_equiv_pos_site_id
 _symmetry_equiv_pos_as_xyz
  1  'x, y, z'
loop_
 _atom_site_type_symbol
 _atom_site_label
 _atom_site_symmetry_multiplicity
 _atom_site_fract_x
 _atom_site_fract_y
 _atom_site_fract_z
 _atom_site_occupancy
  Fe  Fe0  1  0.64679296  0.61704903  0.94761699  1
  Fe  Fe1  1  0.35295993  0.88277705  0.44762102  1
  Fe  Fe2  1  0.00384196  0.49020103  0.49608301  1
  Fe  Fe3  1  0.99610102  0.00989600  0.99611895  1
  C  C4  1  0.12578399  0.13632001  0.73491698  1
  C  C5  1  0.87446198  0.36366902  0.23487499  1
  C  C6  1  0.13715895  0.64605603  0.75521101  1
  C  C7  1  0.86269794  0.85395804  0.25518601  1
  O  O8  1  0.28632700  0.10360101  0.86845597  1
  O  O9  1  0.71384498  0.39635702  0.36843499  1
  O  O10  1  0.20773599  0.18003301  0.58584999  1
  O  O11  1  0.79249499  0.31998302  0.08583799  1
  O  O12  1  0.11915897  0.38735202  0.25697301  1
  O  O13  1  0.88098500  0.11267201  0.75699296  1
  O  O14  1  0.27875795  0.62208303  0.61324801  1
  O  O15  1  0.72100594  0.87807705  0.11322902  1
  O  O16  1  0.22609394  0.70405904  0.89565701  1
  O  O17  1  0.77380195  0.79600704  0.39566101  1
  O  O18  1  0.09660293  0.89800405  0.24711504  1
  O  O19  1  0.90338896  0.60184703  0.74719798  1
