# generated using pymatgen
data_TcPd3S3N10O3
_symmetry_space_group_name_H-M   'P 1'
_cell_length_a   7.50101471
_cell_length_b   7.50101471
_cell_length_c   7.50101471
_cell_angle_alpha   86.04739380
_cell_angle_beta   62.25519180
_cell_angle_gamma   117.74481201
_symmetry_Int_Tables_number   1
_chemical_formula_structural   TcPd3S3N10O3
_chemical_formula_sum   'Tc1 Pd3 S3 N10 O3'
_cell_volume   307.81211547
_cell_formula_units_Z   1
loop_
 _symmetry_equiv_pos_site_id
 _symmetry_equiv_pos_as_xyz
  1  'x, y, z'
loop_
 _atom_site_type_symbol
 _atom_site_label
 _atom_site_symmetry_multiplicity
 _atom_site_fract_x
 _atom_site_fract_y
 _atom_site_fract_z
 _atom_site_occupancy
  Tc  Tc0  1  0.25000000  0.12500000  0.62499999  1
  Pd  Pd1  1  0.25000000  0.12500000  0.12500000  1
  Pd  Pd2  1  0.74999998  0.12500000  0.12500001  1
  Pd  Pd3  1  0.75000000  0.62500000  0.12500002  1
  S  S4  1  0.99999998  0.30112200  0.69887801  1
  S  S5  1  1.00000000  0.69887800  0.30112202  1
  S  S6  1  0.50000001  0.55112200  0.94887799  1
  N  N7  1  0.50000002  0.94887800  0.55112200  1
  N  N8  1  0.99999997  0.20606400  0.79393600  1
  N  N9  1  1.00000000  0.82474000  0.82474001  1
  N  N10  1  0.64948001  0.82474000  0.17526001  1
  O  O11  1  0.35052000  0.17526000  0.82473999  1
  N  N12  1  0.50000000  0.45606400  0.04393601  1
  N  N13  1  0.49999999  0.07474000  0.07474001  1
  N  N14  1  0.99999997  0.17526000  0.17526002  1
  N  N15  1  0.00000003  0.79393600  0.20606400  1
  O  O16  1  0.14948000  0.07474000  0.42525999  1
  N  N17  1  0.85051999  0.42526000  0.07474002  1
  O  O18  1  0.50000000  0.42526000  0.42526000  1
  N  N19  1  0.49999998  0.04393600  0.45606400  1
