# generated using pymatgen
data_DyEr4Cu2Se7
_symmetry_space_group_name_H-M   'P 1'
_cell_length_a   4.06253004
_cell_length_b   4.06253052
_cell_length_c   20.17518234
_cell_angle_alpha   90.00000000
_cell_angle_beta   90.00000000
_cell_angle_gamma   119.99999237
_symmetry_Int_Tables_number   1
_chemical_formula_structural   DyEr4Cu2Se7
_chemical_formula_sum   'Dy1 Er4 Cu2 Se7'
_cell_volume   288.36420870
_cell_formula_units_Z   1
loop_
 _symmetry_equiv_pos_site_id
 _symmetry_equiv_pos_as_xyz
  1  'x, y, z'
loop_
 _atom_site_type_symbol
 _atom_site_label
 _atom_site_symmetry_multiplicity
 _atom_site_fract_x
 _atom_site_fract_y
 _atom_site_fract_z
 _atom_site_occupancy
  Dy  Dy0  1  0.00000000  0.00000000  0.49999999  1
  Er  Er1  1  0.00000000  0.00000000  0.00000000  1
  Er  Er2  1  0.66666665  0.33333334  0.25000000  1
  Er  Er3  1  0.33333331  0.66666669  0.74999999  1
  Er  Er4  1  0.33333331  0.66666669  0.37013699  1
  Cu  Cu5  1  0.66666665  0.33333334  0.87013699  1
  Cu  Cu6  1  0.66666665  0.33333334  0.62986299  1
  Se  Se7  1  0.33333331  0.66666669  0.12986300  1
  Se  Se8  1  0.33333331  0.66666669  0.25000000  1
  Se  Se9  1  0.66666665  0.33333334  0.74999999  1
  Se  Se10  1  0.33333331  0.66666669  0.91168998  1
  Se  Se11  1  0.66666665  0.33333334  0.41168999  1
  Se  Se12  1  0.66666665  0.33333334  0.08831000  1
  Se  Se13  1  0.33333331  0.66666669  0.58830999  1
