# generated using pymatgen
data_TlInI3
_symmetry_space_group_name_H-M   'P 1'
_cell_length_a   4.41952085
_cell_length_b   9.84674835
_cell_length_c   16.38402557
_cell_angle_alpha   90.00000000
_cell_angle_beta   90.00000000
_cell_angle_gamma   90.00000000
_symmetry_Int_Tables_number   1
_chemical_formula_structural   TlInI3
_chemical_formula_sum   'Tl4 In4 I12'
_cell_volume   712.99854536
_cell_formula_units_Z   4
loop_
 _symmetry_equiv_pos_site_id
 _symmetry_equiv_pos_as_xyz
  1  'x, y, z'
loop_
 _atom_site_type_symbol
 _atom_site_label
 _atom_site_symmetry_multiplicity
 _atom_site_fract_x
 _atom_site_fract_y
 _atom_site_fract_z
 _atom_site_occupancy
  Tl  Tl0  1  0.25000001  0.56974898  0.67872298  1
  Tl  Tl1  1  0.75000002  0.43025098  0.32127699  1
  Tl  Tl2  1  0.25000001  0.06974900  0.82127697  1
  Tl  Tl3  1  0.75000002  0.93025097  0.17872299  1
  In  In4  1  0.75000002  0.66912398  0.94466897  1
  In  In5  1  0.25000001  0.33087599  0.05533100  1
  In  In6  1  0.75000002  0.16912399  0.55533098  1
  In  In7  1  0.25000001  0.83087597  0.44466898  1
  I  I8  1  0.25000001  0.83249897  0.00879200  1
  I  I9  1  0.75000002  0.16750099  0.99120797  1
  I  I10  1  0.25000001  0.33249899  0.49120798  1
  I  I11  1  0.75000002  0.66750098  0.50879198  1
  I  I12  1  0.75000002  0.51818098  0.10114300  1
  I  I13  1  0.25000001  0.48181898  0.89885697  1
  I  I14  1  0.75000002  0.01818100  0.39885699  1
  I  I15  1  0.25000001  0.98181896  0.60114298  1
  I  I16  1  0.75000002  0.79040697  0.78850097  1
  I  I17  1  0.25000001  0.20959299  0.21149899  1
  I  I18  1  0.75000002  0.29040699  0.71149898  1
  I  I19  1  0.25000001  0.70959297  0.28850099  1
