# generated using pymatgen
data_Ca2NbRhO6
_symmetry_space_group_name_H-M   'P 1'
_cell_length_a   5.47987080
_cell_length_b   5.79968977
_cell_length_c   7.86090708
_cell_angle_alpha   90.00000000
_cell_angle_beta   89.94909668
_cell_angle_gamma   90.00000000
_symmetry_Int_Tables_number   1
_chemical_formula_structural   Ca2NbRhO6
_chemical_formula_sum   'Ca4 Nb2 Rh2 O12'
_cell_volume   249.83171743
_cell_formula_units_Z   2
loop_
 _symmetry_equiv_pos_site_id
 _symmetry_equiv_pos_as_xyz
  1  'x, y, z'
loop_
 _atom_site_type_symbol
 _atom_site_label
 _atom_site_symmetry_multiplicity
 _atom_site_fract_x
 _atom_site_fract_y
 _atom_site_fract_z
 _atom_site_occupancy
  Ca  Ca0  1  0.98120004  0.43219602  0.25097301  1
  Ca  Ca1  1  0.01880000  0.56780402  0.74902700  1
  Ca  Ca2  1  0.51880002  0.93219604  0.24902701  1
  Ca  Ca3  1  0.48120002  0.06780400  0.75097301  1
  Nb  Nb4  1  1.00000004  1.00000004  0.50000001  1
  Nb  Nb5  1  0.50000002  0.50000002  1.00000001  1
  Rh  Rh6  1  0.00000000  0.00000000  0.00000000  1
  Rh  Rh7  1  0.50000002  0.50000002  0.50000001  1
  O  O8  1  0.10444700  0.03299900  0.24930900  1
  O  O9  1  0.89555303  0.96700104  0.75069101  1
  O  O10  1  0.39555301  0.53299902  0.25069101  1
  O  O11  1  0.60444702  0.46700102  0.74930901  1
  O  O12  1  0.80837303  0.70301403  0.05400001  1
  O  O13  1  0.19162701  0.29698601  0.94600001  1
  O  O14  1  0.69162703  0.20301401  0.44600001  1
  O  O15  1  0.30837301  0.79698603  0.55400001  1
  O  O16  1  0.69681803  0.19766701  0.05245101  1
  O  O17  1  0.30318201  0.80233303  0.94754901  1
  O  O18  1  0.80318203  0.69766703  0.44754901  1
  O  O19  1  0.19681801  0.30233301  0.55245100  1
