# generated using pymatgen
data_TeAs2
_symmetry_space_group_name_H-M   'P 1'
_cell_length_a   6.26144886
_cell_length_b   6.26144886
_cell_length_c   6.26144886
_cell_angle_alpha   90.00000000
_cell_angle_beta   90.00000000
_cell_angle_gamma   90.00000000
_symmetry_Int_Tables_number   1
_chemical_formula_structural   TeAs2
_chemical_formula_sum   'Te4 As8'
_cell_volume   245.48474748
_cell_formula_units_Z   4
loop_
 _symmetry_equiv_pos_site_id
 _symmetry_equiv_pos_as_xyz
  1  'x, y, z'
loop_
 _atom_site_type_symbol
 _atom_site_label
 _atom_site_symmetry_multiplicity
 _atom_site_fract_x
 _atom_site_fract_y
 _atom_site_fract_z
 _atom_site_occupancy
  As  As0  1  0.87724402  0.37724401  0.12275600  1
  Te  Te1  1  0.37724401  0.12275600  0.87724402  1
  Te  Te2  1  0.12275600  0.87724402  0.37724401  1
  Te  Te3  1  0.62275601  0.62275601  0.62275601  1
  As  As4  1  0.50505601  0.00505600  0.49494401  1
  As  As5  1  0.00505600  0.49494401  0.50505601  1
  As  As6  1  0.49494401  0.50505601  0.00505600  1
  As  As7  1  0.99494402  0.99494402  0.99494402  1
  Te  Te8  1  0.12192200  0.62192201  0.87807802  1
  As  As9  1  0.62192201  0.87807802  0.12192200  1
  As  As10  1  0.87807802  0.12192200  0.62192201  1
  As  As11  1  0.37807801  0.37807801  0.37807801  1
