# generated using pymatgen
data_NaUTa2F14
_symmetry_space_group_name_H-M   'P 1'
_cell_length_a   4.96983480
_cell_length_b   6.82811880
_cell_length_c   7.33268976
_cell_angle_alpha   90.00000000
_cell_angle_beta   90.00000000
_cell_angle_gamma   94.53239441
_symmetry_Int_Tables_number   1
_chemical_formula_structural   NaUTa2F14
_chemical_formula_sum   'Na1 U1 Ta2 F14'
_cell_volume   248.05391474
_cell_formula_units_Z   1
loop_
 _symmetry_equiv_pos_site_id
 _symmetry_equiv_pos_as_xyz
  1  'x, y, z'
loop_
 _atom_site_type_symbol
 _atom_site_label
 _atom_site_symmetry_multiplicity
 _atom_site_fract_x
 _atom_site_fract_y
 _atom_site_fract_z
 _atom_site_occupancy
  U  U0  1  0.97194598  0.68521600  0.75000002  1
  Na  Na1  1  0.02805397  0.31478400  0.25000001  1
  Ta  Ta2  1  0.53562100  0.22057900  0.75000002  1
  Ta  Ta3  1  0.46437895  0.77942100  0.25000001  1
  F  F4  1  0.34766493  0.95254500  0.75000002  1
  F  F5  1  0.67433396  0.78244900  0.47270002  1
  F  F6  1  0.65233502  0.04745500  0.25000001  1
  F  F7  1  0.32566599  0.21755100  0.97270003  1
  F  F8  1  0.82707003  0.04628300  0.75000002  1
  F  F9  1  0.80775200  0.35928400  0.92322103  1
  F  F10  1  0.80775200  0.35928400  0.57677902  1
  F  F11  1  0.19224795  0.64071600  0.42322101  1
  F  F12  1  0.67433396  0.78244900  0.02730000  1
  F  F13  1  0.17292993  0.95371700  0.25000001  1
  F  F14  1  0.32566599  0.21755100  0.52730002  1
  F  F15  1  0.58104598  0.50508500  0.25000001  1
  F  F16  1  0.19224795  0.64071600  0.07677900  1
  F  F17  1  0.41895398  0.49491500  0.75000002  1
