# generated using pymatgen
data_LiTiV2O8
_symmetry_space_group_name_H-M   'P 1'
_cell_length_a   3.50365996
_cell_length_b   6.48546934
_cell_length_c   7.20275116
_cell_angle_alpha   109.02900696
_cell_angle_beta   90.00000000
_cell_angle_gamma   105.67118073
_symmetry_Int_Tables_number   1
_chemical_formula_structural   LiTiV2O8
_chemical_formula_sum   'Li1 Ti1 V2 O8'
_cell_volume   148.27301546
_cell_formula_units_Z   1
loop_
 _symmetry_equiv_pos_site_id
 _symmetry_equiv_pos_as_xyz
  1  'x, y, z'
loop_
 _atom_site_type_symbol
 _atom_site_label
 _atom_site_symmetry_multiplicity
 _atom_site_fract_x
 _atom_site_fract_y
 _atom_site_fract_z
 _atom_site_occupancy
  Li  Li0  1  0.68551904  0.37103801  0.27825400  1
  Ti  Ti1  1  0.60322902  0.20645801  0.74871301  1
  V  V2  1  0.30349606  0.60699202  0.66957101  1
  V  V3  1  0.40293307  0.80586603  0.23505899  1
  O  O4  1  0.54430701  0.08861400  0.34197301  1
  O  O5  1  0.63822203  0.27644401  0.98708002  1
  O  O6  1  0.12638902  0.25277801  0.68690201  1
  O  O7  1  0.76662605  0.53325202  0.71447901  1
  O  O8  1  0.24479905  0.48959802  0.42297700  1
  O  O9  1  0.86162707  0.72325402  0.28368200  1
  O  O10  1  0.44866608  0.89733203  0.67409000  1
  O  O11  1  0.37121107  0.74242203  0.98754501  1
