# generated using pymatgen
data_LiSiF5
_symmetry_space_group_name_H-M   'P 1'
_cell_length_a   4.26715994
_cell_length_b   6.49165821
_cell_length_c   6.49165821
_cell_angle_alpha   90.00000000
_cell_angle_beta   90.00000000
_cell_angle_gamma   90.00000000
_symmetry_Int_Tables_number   1
_chemical_formula_structural   LiSiF5
_chemical_formula_sum   'Li2 Si2 F10'
_cell_volume   179.82505961
_cell_formula_units_Z   2
loop_
 _symmetry_equiv_pos_site_id
 _symmetry_equiv_pos_as_xyz
  1  'x, y, z'
loop_
 _atom_site_type_symbol
 _atom_site_label
 _atom_site_symmetry_multiplicity
 _atom_site_fract_x
 _atom_site_fract_y
 _atom_site_fract_z
 _atom_site_occupancy
  Li  Li0  1  0.22247900  0.49999998  0.00000000  1
  Li  Li1  1  0.77752101  0.99999997  0.49999998  1
  Si  Si2  1  0.50000001  0.49999998  0.49999998  1
  Si  Si3  1  0.50000001  0.00000000  0.00000000  1
  F  F4  1  0.80582701  0.49999998  0.00000000  1
  F  F5  1  0.19417300  0.99999997  0.49999998  1
  F  F6  1  0.70617201  0.02078100  0.80628597  1
  F  F7  1  0.70617201  0.97921897  0.19371399  1
  F  F8  1  0.70617201  0.69371398  0.52078098  1
  F  F9  1  0.70617201  0.30628599  0.47921898  1
  F  F10  1  0.29382800  0.47921898  0.69371398  1
  F  F11  1  0.29382800  0.52078098  0.30628599  1
  F  F12  1  0.29382800  0.80628597  0.97921897  1
  F  F13  1  0.29382800  0.19371399  0.02078100  1
