# generated using pymatgen
data_Ca2FeWO6
_symmetry_space_group_name_H-M   'P 1'
_cell_length_a   5.46875048
_cell_length_b   5.65691710
_cell_length_c   7.82982159
_cell_angle_alpha   89.99993134
_cell_angle_beta   90.33329010
_cell_angle_gamma   89.99703979
_symmetry_Int_Tables_number   1
_chemical_formula_structural   Ca2FeWO6
_chemical_formula_sum   'Ca4 Fe2 W2 O12'
_cell_volume   242.22136100
_cell_formula_units_Z   2
loop_
 _symmetry_equiv_pos_site_id
 _symmetry_equiv_pos_as_xyz
  1  'x, y, z'
loop_
 _atom_site_type_symbol
 _atom_site_label
 _atom_site_symmetry_multiplicity
 _atom_site_fract_x
 _atom_site_fract_y
 _atom_site_fract_z
 _atom_site_occupancy
  Ca  Ca0  1  0.98613303  0.05552500  0.25315699  1
  Ca  Ca1  1  0.51387900  0.55553099  0.24683398  1
  Ca  Ca2  1  0.01386797  0.94447398  0.74684398  1
  Ca  Ca3  1  0.48611900  0.44446699  0.75316699  1
  Fe  Fe4  1  0.49999902  0.00000000  -0.00000001  1
  Fe  Fe5  1  -0.00000002  0.49999899  0.49999999  1
  W  W6  1  0.49999702  0.00000200  0.49999700  1
  W  W7  1  0.00000798  0.50000099  -0.00000002  1
  O  O8  1  0.68762901  0.28406600  0.44536199  1
  O  O9  1  0.81235300  0.78406599  0.05463697  1
  O  O10  1  0.31237398  0.71593499  0.55464098  1
  O  O11  1  0.18764800  0.21593700  0.94535900  1
  O  O12  1  0.21064800  0.19315600  0.54579000  1
  O  O13  1  0.28932298  0.69316499  0.95420899  1
  O  O14  1  0.78935400  0.80684199  0.45421197  1
  O  O15  1  0.71067101  0.30683399  0.04578698  1
  O  O16  1  0.09649599  0.46657399  0.23962199  1
  O  O17  1  0.40351798  0.96657298  0.26037597  1
  O  O18  1  0.59648202  0.03342800  0.73962800  1
  O  O19  1  0.90350401  0.53342599  0.76037798  1
