# generated using pymatgen
data_Ca2CdInF6
_symmetry_space_group_name_H-M   'P 1'
_cell_length_a   6.02562666
_cell_length_b   6.02562666
_cell_length_c   6.34527683
_cell_angle_alpha   61.65288925
_cell_angle_beta   61.65288925
_cell_angle_gamma   59.99999619
_symmetry_Int_Tables_number   1
_chemical_formula_structural   Ca2CdInF6
_chemical_formula_sum   'Ca2 Cd1 In1 F6'
_cell_volume   166.85910818
_cell_formula_units_Z   1
loop_
 _symmetry_equiv_pos_site_id
 _symmetry_equiv_pos_as_xyz
  1  'x, y, z'
loop_
 _atom_site_type_symbol
 _atom_site_label
 _atom_site_symmetry_multiplicity
 _atom_site_fract_x
 _atom_site_fract_y
 _atom_site_fract_z
 _atom_site_occupancy
  Ca  Ca0  1  0.35032698  0.35032698  0.94901904  1
  Ca  Ca1  1  0.14967299  0.14967299  0.55098102  1
  Cd  Cd2  1  0.85032696  0.85032696  0.44901906  1
  In  In3  1  0.64967297  0.64967297  0.05098104  1
  F  F4  1  0.04948700  0.74999996  0.75000004  1
  F  F5  1  0.45051298  0.04948700  0.75000003  1
  F  F6  1  0.74999996  0.45051298  0.75000005  1
  F  F7  1  0.24999999  0.54948697  0.25000003  1
  F  F8  1  0.54948697  0.95051295  0.25000005  1
  F  F9  1  0.95051295  0.24999999  0.25000004  1
