# generated using pymatgen
data_KCdBr3
_symmetry_space_group_name_H-M   'P 1'
_cell_length_a   7.84970093
_cell_length_b   8.16408253
_cell_length_c   11.28376389
_cell_angle_alpha   90.00000000
_cell_angle_beta   90.00000000
_cell_angle_gamma   90.00000000
_symmetry_Int_Tables_number   1
_chemical_formula_structural   KCdBr3
_chemical_formula_sum   'K4 Cd4 Br12'
_cell_volume   723.12684868
_cell_formula_units_Z   4
loop_
 _symmetry_equiv_pos_site_id
 _symmetry_equiv_pos_as_xyz
  1  'x, y, z'
loop_
 _atom_site_type_symbol
 _atom_site_label
 _atom_site_symmetry_multiplicity
 _atom_site_fract_x
 _atom_site_fract_y
 _atom_site_fract_z
 _atom_site_occupancy
  K  K0  1  0.01996400  0.43515703  0.25000000  1
  K  K1  1  0.98003601  0.56484303  0.75000001  1
  K  K2  1  0.51996400  0.06484300  0.75000001  1
  K  K3  1  0.48003600  0.93515705  0.25000000  1
  Cd  Cd4  1  0.00000000  0.00000000  0.00000000  1
  Cd  Cd5  1  0.50000000  0.50000003  0.00000000  1
  Cd  Cd6  1  0.00000000  0.00000000  0.50000001  1
  Cd  Cd7  1  0.50000000  0.50000003  0.50000001  1
  Br  Br8  1  0.29900800  0.20449601  0.04493000  1
  Br  Br9  1  0.70099201  0.79550405  0.95507001  1
  Br  Br10  1  0.79900801  0.29550402  0.95507001  1
  Br  Br11  1  0.70099201  0.79550405  0.54493001  1
  Br  Br12  1  0.20099200  0.70449604  0.04493000  1
  Br  Br13  1  0.29900800  0.20449601  0.45507000  1
  Br  Br14  1  0.20099200  0.70449604  0.45507000  1
  Br  Br15  1  0.79900801  0.29550402  0.54493001  1
  Br  Br16  1  0.58896101  0.52306103  0.25000000  1
  Br  Br17  1  0.41103900  0.47693903  0.75000001  1
  Br  Br18  1  0.08896100  0.97693906  0.75000001  1
  Br  Br19  1  0.91103901  0.02306100  0.25000000  1
