# generated using pymatgen
data_Zr2CrCu3S8
_symmetry_space_group_name_H-M   'P 1'
_cell_length_a   7.16223145
_cell_length_b   7.16223145
_cell_length_c   7.16223145
_cell_angle_alpha   88.95208740
_cell_angle_beta   60.48142624
_cell_angle_gamma   119.27526093
_symmetry_Int_Tables_number   1
_chemical_formula_structural   Zr2CrCu3S8
_chemical_formula_sum   'Zr2 Cr1 Cu3 S8'
_cell_volume   262.11383585
_cell_formula_units_Z   1
loop_
 _symmetry_equiv_pos_site_id
 _symmetry_equiv_pos_as_xyz
  1  'x, y, z'
loop_
 _atom_site_type_symbol
 _atom_site_label
 _atom_site_symmetry_multiplicity
 _atom_site_fract_x
 _atom_site_fract_y
 _atom_site_fract_z
 _atom_site_occupancy
  Zr  Zr0  1  0.01322502  0.26322501  0.24999999  1
  Zr  Zr1  1  0.48677502  0.23677501  0.74999998  1
  Cr  Cr2  1  0.50228706  0.75000003  0.74771296  1
  Cu  Cu3  1  0.99771303  0.25000001  0.75228696  1
  Cu  Cu4  1  0.75000005  0.62299002  0.12700996  1
  Cu  Cu5  1  0.25000007  0.87701003  0.37298996  1
  S  S6  1  0.97906208  0.99929503  0.52439393  1
  S  S7  1  0.51289108  0.99792303  0.49915495  1
  S  S8  1  0.52093808  0.99654403  0.97976694  1
  S  S9  1  0.98710904  0.48795402  0.51496795  1
  S  S10  1  0.02368904  0.50345602  0.97560598  1
  S  S11  1  0.99707801  0.01204600  0.00084497  1
  S  S12  1  0.47631104  0.50070502  0.52023297  1
  S  S13  1  0.50292204  0.50207702  0.98503197  1
