# generated using pymatgen
data_Pr2CuSe4
_symmetry_space_group_name_H-M   'P 1'
_cell_length_a   6.49318409
_cell_length_b   6.66077995
_cell_length_c   7.67838812
_cell_angle_alpha   90.00000000
_cell_angle_beta   72.42121124
_cell_angle_gamma   90.00000000
_symmetry_Int_Tables_number   1
_chemical_formula_structural   Pr2CuSe4
_chemical_formula_sum   'Pr4 Cu2 Se8'
_cell_volume   316.58010132
_cell_formula_units_Z   2
loop_
 _symmetry_equiv_pos_site_id
 _symmetry_equiv_pos_as_xyz
  1  'x, y, z'
loop_
 _atom_site_type_symbol
 _atom_site_label
 _atom_site_symmetry_multiplicity
 _atom_site_fract_x
 _atom_site_fract_y
 _atom_site_fract_z
 _atom_site_occupancy
  Pr  Pr0  1  0.27991799  0.75000001  0.05303201  1
  Pr  Pr1  1  0.72008198  0.25000000  0.94696804  1
  Pr  Pr2  1  0.25760099  0.75000001  0.56221402  1
  Pr  Pr3  1  0.74239898  0.25000000  0.43778603  1
  Cu  Cu4  1  0.73983498  0.75000001  0.19455703  1
  Cu  Cu5  1  0.26016499  0.25000000  0.80544303  1
  Se  Se6  1  0.93022598  0.75000001  0.90319205  1
  Se  Se7  1  0.06977400  0.25000000  0.09680800  1
  Se  Se8  1  0.93695098  0.75000001  0.38299004  1
  Se  Se9  1  0.06304900  0.25000000  0.61701002  1
  Se  Se10  1  0.50206299  0.49782100  0.25604102  1
  Se  Se11  1  0.49793699  0.99782101  0.74395903  1
  Se  Se12  1  0.49793699  0.50217900  0.74395903  1
  Se  Se13  1  0.50206299  0.00217900  0.25604102  1
