# generated using pymatgen
data_LuMgMnCoO4
_symmetry_space_group_name_H-M   'P 1'
_cell_length_a   3.28198791
_cell_length_b   5.29642105
_cell_length_c   5.35000610
_cell_angle_alpha   90.00000000
_cell_angle_beta   107.86212158
_cell_angle_gamma   90.00000000
_symmetry_Int_Tables_number   1
_chemical_formula_structural   LuMgMnCoO4
_chemical_formula_sum   'Lu1 Mg1 Mn1 Co1 O4'
_cell_volume   88.51528387
_cell_formula_units_Z   1
loop_
 _symmetry_equiv_pos_site_id
 _symmetry_equiv_pos_as_xyz
  1  'x, y, z'
loop_
 _atom_site_type_symbol
 _atom_site_label
 _atom_site_symmetry_multiplicity
 _atom_site_fract_x
 _atom_site_fract_y
 _atom_site_fract_z
 _atom_site_occupancy
  Lu  Lu0  1  0.71762801  0.25000000  0.43525600  1
  Mg  Mg1  1  0.28237200  0.74999999  0.56474402  1
  Mn  Mn2  1  0.99596301  0.25000000  0.99192602  1
  Co  Co3  1  0.00403700  0.74999999  0.00807400  1
  O  O4  1  0.87440201  0.99184599  0.74880401  1
  O  O5  1  0.87440201  0.50815400  0.74880401  1
  O  O6  1  0.12559800  0.00815400  0.25119601  1
  O  O7  1  0.12559800  0.49184600  0.25119601  1
