# generated using pymatgen
data_NbBr2
_symmetry_space_group_name_H-M   'P 1'
_cell_length_a   6.22529125
_cell_length_b   7.39526129
_cell_length_c   7.39526129
_cell_angle_alpha   61.60283661
_cell_angle_beta   88.00692749
_cell_angle_gamma   88.00692749
_symmetry_Int_Tables_number   1
_chemical_formula_structural   NbBr2
_chemical_formula_sum   'Nb3 Br6'
_cell_volume   299.24800132
_cell_formula_units_Z   3
loop_
 _symmetry_equiv_pos_site_id
 _symmetry_equiv_pos_as_xyz
  1  'x, y, z'
loop_
 _atom_site_type_symbol
 _atom_site_label
 _atom_site_symmetry_multiplicity
 _atom_site_fract_x
 _atom_site_fract_y
 _atom_site_fract_z
 _atom_site_occupancy
  Nb  Nb0  1  0.72434297  0.34232300  0.34232297  1
  Nb  Nb1  1  0.27565698  0.65767699  0.65767697  1
  Nb  Nb2  1  0.00000000  0.00000000  0.00000000  1
  Br  Br3  1  0.21521899  0.14450300  0.64180698  1
  Br  Br4  1  0.21521898  0.64180699  0.14450298  1
  Br  Br5  1  0.78478096  0.85549699  0.35819296  1
  Br  Br6  1  0.78478097  0.35819300  0.85549696  1
  Br  Br7  1  0.19183499  0.09971000  0.09970999  1
  Br  Br8  1  0.80816496  0.90028999  0.90028995  1
