# generated using pymatgen
data_YFeO3
_symmetry_space_group_name_H-M   'P 1'
_cell_length_a   5.44007206
_cell_length_b   5.92127991
_cell_length_c   7.81221390
_cell_angle_alpha   90.00000000
_cell_angle_beta   90.00000000
_cell_angle_gamma   90.00000000
_symmetry_Int_Tables_number   1
_chemical_formula_structural   YFeO3
_chemical_formula_sum   'Y4 Fe4 O12'
_cell_volume   251.64851355
_cell_formula_units_Z   4
loop_
 _symmetry_equiv_pos_site_id
 _symmetry_equiv_pos_as_xyz
  1  'x, y, z'
loop_
 _atom_site_type_symbol
 _atom_site_label
 _atom_site_symmetry_multiplicity
 _atom_site_fract_x
 _atom_site_fract_y
 _atom_site_fract_z
 _atom_site_occupancy
  Y  Y0  1  0.01739000  0.93332301  0.75000001  1
  Y  Y1  1  0.48260999  0.43332301  0.75000001  1
  Y  Y2  1  0.98260999  0.06667700  0.25000000  1
  Y  Y3  1  0.51738999  0.56667701  0.25000000  1
  Fe  Fe4  1  -0.00000000  0.50000001  0.50000001  1
  Fe  Fe5  1  -0.00000000  0.50000001  0.00000000  1
  Fe  Fe6  1  0.49999999  0.00000000  0.50000001  1
  Fe  Fe7  1  0.49999999  0.00000000  0.00000000  1
  O  O8  1  0.67430999  0.31263000  0.04668700  1
  O  O9  1  0.67430999  0.31263000  0.45331301  1
  O  O10  1  0.32569000  0.68737001  0.95331301  1
  O  O11  1  0.87941399  0.54611201  0.75000001  1
  O  O12  1  0.82568999  0.81263001  0.04668700  1
  O  O13  1  0.82568999  0.81263001  0.45331301  1
  O  O14  1  0.37941400  0.95388801  0.25000000  1
  O  O15  1  0.62058599  0.04611200  0.75000001  1
  O  O16  1  0.32569000  0.68737001  0.54668701  1
  O  O17  1  0.17431000  0.18737000  0.95331301  1
  O  O18  1  0.17431000  0.18737000  0.54668701  1
  O  O19  1  0.12058600  0.45388801  0.25000000  1
