# generated using pymatgen
data_CaLu2O4
_symmetry_space_group_name_H-M   'P 1'
_cell_length_a   3.22245598
_cell_length_b   5.51427412
_cell_length_c   10.51628780
_cell_angle_alpha   90.00000000
_cell_angle_beta   90.00000000
_cell_angle_gamma   106.98925018
_symmetry_Int_Tables_number   1
_chemical_formula_structural   CaLu2O4
_chemical_formula_sum   'Ca2 Lu4 O8'
_cell_volume   178.71418576
_cell_formula_units_Z   2
loop_
 _symmetry_equiv_pos_site_id
 _symmetry_equiv_pos_as_xyz
  1  'x, y, z'
loop_
 _atom_site_type_symbol
 _atom_site_label
 _atom_site_symmetry_multiplicity
 _atom_site_fract_x
 _atom_site_fract_y
 _atom_site_fract_z
 _atom_site_occupancy
  Ca  Ca0  1  0.38501908  0.77003801  0.25000000  1
  Ca  Ca1  1  0.61498103  0.22996200  0.75000001  1
  Lu  Lu2  1  0.86731208  0.73462401  0.92843302  1
  Lu  Lu3  1  0.13268803  0.26537600  0.07156700  1
  Lu  Lu4  1  0.86731208  0.73462401  0.57156701  1
  Lu  Lu5  1  0.13268803  0.26537600  0.42843301  1
  O  O6  1  0.23524705  0.47049400  0.61076701  1
  O  O7  1  0.76475306  0.52950600  0.38923301  1
  O  O8  1  0.76475306  0.52950600  0.11076700  1
  O  O9  1  0.23524705  0.47049400  0.88923302  1
  O  O10  1  0.96202810  0.92405601  0.75000001  1
  O  O11  1  0.03797201  0.07594400  0.25000000  1
  O  O12  1  0.50000000  0.00000000  0.00000000  1
  O  O13  1  0.50000000  0.00000000  0.50000001  1
