# generated using pymatgen
data_LaCO3
_symmetry_space_group_name_H-M   'P 1'
_cell_length_a   4.13628292
_cell_length_b   5.11314583
_cell_length_c   6.34451628
_cell_angle_alpha   90.00000000
_cell_angle_beta   108.36619568
_cell_angle_gamma   90.00000000
_symmetry_Int_Tables_number   1
_chemical_formula_structural   LaCO3
_chemical_formula_sum   'La2 C2 O6'
_cell_volume   127.34783101
_cell_formula_units_Z   2
loop_
 _symmetry_equiv_pos_site_id
 _symmetry_equiv_pos_as_xyz
  1  'x, y, z'
loop_
 _atom_site_type_symbol
 _atom_site_label
 _atom_site_symmetry_multiplicity
 _atom_site_fract_x
 _atom_site_fract_y
 _atom_site_fract_z
 _atom_site_occupancy
  La  La0  1  0.38510501  0.75000003  0.22248202  1
  La  La1  1  0.61489502  0.25000001  0.77751803  1
  C  C2  1  0.99852303  0.75000003  0.74442804  1
  C  C3  1  0.00147700  0.25000001  0.25557200  1
  O  O4  1  0.33583701  0.25000001  0.39083602  1
  O  O5  1  0.66416302  0.75000003  0.60916403  1
  O  O6  1  0.84302103  0.01637700  0.17281403  1
  O  O7  1  0.15697901  0.51637702  0.82718602  1
  O  O8  1  0.15697901  0.98362303  0.82718602  1
  O  O9  1  0.84302103  0.48362302  0.17281403  1
