# generated using pymatgen
data_InCu6(SeS2)3
_symmetry_space_group_name_H-M   'P 1'
_cell_length_a   5.65562820
_cell_length_b   7.99832106
_cell_length_c   7.99832106
_cell_angle_alpha   90.00000000
_cell_angle_beta   90.00000000
_cell_angle_gamma   90.00000000
_symmetry_Int_Tables_number   1
_chemical_formula_structural   InCu6(SeS2)3
_chemical_formula_sum   'In1 Cu6 Se3 S6'
_cell_volume   361.80829332
_cell_formula_units_Z   1
loop_
 _symmetry_equiv_pos_site_id
 _symmetry_equiv_pos_as_xyz
  1  'x, y, z'
loop_
 _atom_site_type_symbol
 _atom_site_label
 _atom_site_symmetry_multiplicity
 _atom_site_fract_x
 _atom_site_fract_y
 _atom_site_fract_z
 _atom_site_occupancy
  In  In0  1  0.00000000  0.00000000  0.00000000  1
  Cu  Cu1  1  0.99999996  0.50000000  0.50000000  1
  Cu  Cu2  1  0.99999996  0.25206200  0.74793799  1
  Cu  Cu3  1  0.99999996  0.74793799  0.25206200  1
  Cu  Cu4  1  -0.00000000  0.25206200  0.25206200  1
  Cu  Cu5  1  0.99999996  0.74793799  0.74793799  1
  Se  Se6  1  0.49999998  0.00000000  0.00000000  1
  Cu  Cu7  1  0.49999998  0.50000000  0.50000000  1
  Se  Se8  1  0.75827197  0.50000000  0.25864800  1
  S  S9  1  0.74880697  0.00000000  0.74839399  1
  Se  Se10  1  0.75827197  0.50000000  0.74135199  1
  S  S11  1  0.74880697  0.00000000  0.25160600  1
  S  S12  1  0.25119299  0.74839399  0.00000000  1
  S  S13  1  0.24172799  0.25864800  0.50000000  1
  S  S14  1  0.25119299  0.25160600  0.00000000  1
  S  S15  1  0.24172799  0.74135199  0.50000000  1
