# generated using pymatgen
data_TlCdP2S7
_symmetry_space_group_name_H-M   'P 1'
_cell_length_a   6.52557182
_cell_length_b   6.75797033
_cell_length_c   6.75797033
_cell_angle_alpha   82.17742920
_cell_angle_beta   84.12245178
_cell_angle_gamma   95.87754822
_symmetry_Int_Tables_number   1
_chemical_formula_structural   TlCdP2S7
_chemical_formula_sum   'Tl1 Cd1 P2 S7'
_cell_volume   291.64470821
_cell_formula_units_Z   1
loop_
 _symmetry_equiv_pos_site_id
 _symmetry_equiv_pos_as_xyz
  1  'x, y, z'
loop_
 _atom_site_type_symbol
 _atom_site_label
 _atom_site_symmetry_multiplicity
 _atom_site_fract_x
 _atom_site_fract_y
 _atom_site_fract_z
 _atom_site_occupancy
  Tl  Tl0  1  0.50000000  0.08314800  0.08314801  1
  Cd  Cd1  1  -0.00000002  0.49892598  0.49892602  1
  P  P2  1  0.08667100  0.03830000  0.63831599  1
  P  P3  1  0.91332899  0.63831598  0.03830006  1
  S  S4  1  0.99999998  0.95943297  0.95943306  1
  S  S5  1  0.75275299  0.52750098  0.82626003  1
  S  S6  1  0.29188199  0.28865999  0.63074501  1
  S  S7  1  0.70811799  0.63074498  0.28866005  1
  S  S8  1  0.83095101  0.11337000  0.51384001  1
  S  S9  1  0.16904898  0.51383998  0.11337003  1
  S  S10  1  0.24724697  0.82625997  0.52750105  1
