# generated using pymatgen
data_YTlTe2
_symmetry_space_group_name_H-M   'P 1'
_cell_length_a   4.46759224
_cell_length_b   4.46759224
_cell_length_c   8.59671497
_cell_angle_alpha   74.93925476
_cell_angle_beta   74.93925476
_cell_angle_gamma   59.99999619
_symmetry_Int_Tables_number   1
_chemical_formula_structural   YTlTe2
_chemical_formula_sum   'Y1 Tl1 Te2'
_cell_volume   141.75064695
_cell_formula_units_Z   1
loop_
 _symmetry_equiv_pos_site_id
 _symmetry_equiv_pos_as_xyz
  1  'x, y, z'
loop_
 _atom_site_type_symbol
 _atom_site_label
 _atom_site_symmetry_multiplicity
 _atom_site_fract_x
 _atom_site_fract_y
 _atom_site_fract_z
 _atom_site_occupancy
  Y  Y0  1  0.49999997  0.50000000  0.49999999  1
  Tl  Tl1  1  0.00000000  0.00000000  0.00000000  1
  Te  Te2  1  0.76243096  0.76243100  0.71270698  1
  Te  Te3  1  0.23756899  0.23756900  0.28729299  1
