# generated using pymatgen
data_NaFeO2
_symmetry_space_group_name_H-M   'P 1'
_cell_length_a   3.21567369
_cell_length_b   5.21514988
_cell_length_c   11.30955887
_cell_angle_alpha   102.39979553
_cell_angle_beta   96.68650055
_cell_angle_gamma   96.29856110
_symmetry_Int_Tables_number   1
_chemical_formula_structural   NaFeO2
_chemical_formula_sum   'Na4 Fe4 O8'
_cell_volume   182.19678182
_cell_formula_units_Z   4
loop_
 _symmetry_equiv_pos_site_id
 _symmetry_equiv_pos_as_xyz
  1  'x, y, z'
loop_
 _atom_site_type_symbol
 _atom_site_label
 _atom_site_symmetry_multiplicity
 _atom_site_fract_x
 _atom_site_fract_y
 _atom_site_fract_z
 _atom_site_occupancy
  Na  Na0  1  0.17240694  0.77371199  0.25001999  1
  Na  Na1  1  0.67489999  0.27348400  0.25002099  1
  Na  Na2  1  0.82651199  0.22634900  0.75014498  1
  Na  Na3  1  0.32611895  0.72626399  0.74986898  1
  Fe  Fe4  1  0.74969495  0.74941799  0.50014498  1
  Fe  Fe5  1  0.50048197  0.50066199  0.99990197  1
  Fe  Fe6  1  0.24974898  0.24928400  0.50013799  1
  Fe  Fe7  1  0.00048000  0.00069300  0.99988398  1
  O  O8  1  0.76175701  0.01008300  0.39833699  1
  O  O9  1  0.26240796  0.50974899  0.39819399  1
  O  O10  1  0.23634792  0.98892499  0.60192498  1
  O  O11  1  0.73790597  0.48869599  0.60169898  1
  O  O12  1  0.38722299  0.13840000  0.89830198  1
  O  O13  1  0.88575396  0.63855099  0.89802998  1
  O  O14  1  0.61366594  0.86286799  0.10165599  1
  O  O15  1  0.11459197  0.36286199  0.10173400  1
