# generated using pymatgen
data_Cd5Bi3S8
_symmetry_space_group_name_H-M   'P 1'
_cell_length_a   6.80573797
_cell_length_b   7.15301704
_cell_length_c   8.35362053
_cell_angle_alpha   90.00000000
_cell_angle_beta   90.00000000
_cell_angle_gamma   90.00000000
_symmetry_Int_Tables_number   1
_chemical_formula_structural   Cd5Bi3S8
_chemical_formula_sum   'Cd5 Bi3 S8'
_cell_volume   406.66727661
_cell_formula_units_Z   1
loop_
 _symmetry_equiv_pos_site_id
 _symmetry_equiv_pos_as_xyz
  1  'x, y, z'
loop_
 _atom_site_type_symbol
 _atom_site_label
 _atom_site_symmetry_multiplicity
 _atom_site_fract_x
 _atom_site_fract_y
 _atom_site_fract_z
 _atom_site_occupancy
  Cd  Cd0  1  0.61292700  0.07285300  0.12897001  1
  Cd  Cd1  1  0.11292700  0.92714699  0.87103005  1
  Cd  Cd2  1  0.11292700  0.42714700  0.62897004  1
  Cd  Cd3  1  0.61292700  0.57285300  0.37103002  1
  Cd  Cd4  1  0.12063600  0.91214699  0.36927602  1
  Bi  Bi5  1  0.62063600  0.58785300  0.86927605  1
  Bi  Bi6  1  0.62063600  0.08785300  0.63072404  1
  Bi  Bi7  1  0.12063600  0.41214700  0.13072401  1
  S  S8  1  0.98263800  0.57626100  0.38008102  1
  S  S9  1  0.48263800  0.42373900  0.61991903  1
  S  S10  1  0.48263800  0.92373899  0.88008105  1
  S  S11  1  0.98263800  0.07626100  0.11991901  1
  S  S12  1  0.99879900  0.59291700  0.87594005  1
  S  S13  1  0.99879900  0.09291700  0.62406004  1
  S  S14  1  0.49879900  0.90708299  0.37594002  1
  S  S15  1  0.49879900  0.40708300  0.12406001  1
