# generated using pymatgen
data_NaZr(BiO2)2
_symmetry_space_group_name_H-M   'P 1'
_cell_length_a   5.68033552
_cell_length_b   5.68033552
_cell_length_c   5.97030830
_cell_angle_alpha   61.59405136
_cell_angle_beta   61.59405136
_cell_angle_gamma   60.00000381
_symmetry_Int_Tables_number   1
_chemical_formula_structural   NaZr(BiO2)2
_chemical_formula_sum   'Na1 Zr1 Bi2 O4'
_cell_volume   139.40676570
_cell_formula_units_Z   1
loop_
 _symmetry_equiv_pos_site_id
 _symmetry_equiv_pos_as_xyz
  1  'x, y, z'
loop_
 _atom_site_type_symbol
 _atom_site_label
 _atom_site_symmetry_multiplicity
 _atom_site_fract_x
 _atom_site_fract_y
 _atom_site_fract_z
 _atom_site_occupancy
  Na  Na0  1  0.50000001  0.50000001  0.50000002  1
  Zr  Zr1  1  0.00000000  0.00000000  0.00000000  1
  Bi  Bi2  1  0.86317002  0.64725802  0.24424702  1
  Bi  Bi3  1  0.64725801  0.24532501  0.24424701  1
  O  O4  1  0.24532500  0.86317002  0.24424701  1
  O  O5  1  0.35274200  0.75467502  0.75575303  1
  O  O6  1  0.75467502  0.13683000  0.75575302  1
  O  O7  1  0.13683000  0.35274201  0.75575302  1
