# generated using pymatgen
data_LiCa3Al4F12
_symmetry_space_group_name_H-M   'P 1'
_cell_length_a   5.18405390
_cell_length_b   5.18405342
_cell_length_c   10.82240963
_cell_angle_alpha   90.00000000
_cell_angle_beta   90.00000000
_cell_angle_gamma   120.00000000
_symmetry_Int_Tables_number   1
_chemical_formula_structural   LiCa3Al4F12
_chemical_formula_sum   'Li1 Ca3 Al4 F12'
_cell_volume   251.87993707
_cell_formula_units_Z   1
loop_
 _symmetry_equiv_pos_site_id
 _symmetry_equiv_pos_as_xyz
  1  'x, y, z'
loop_
 _atom_site_type_symbol
 _atom_site_label
 _atom_site_symmetry_multiplicity
 _atom_site_fract_x
 _atom_site_fract_y
 _atom_site_fract_z
 _atom_site_occupancy
  Ca  Ca0  1  0.33333331  0.66666667  0.04040000  1
  Ca  Ca1  1  0.33333331  0.66666667  0.45960002  1
  Ca  Ca2  1  0.66666666  0.33333334  0.54040002  1
  Li  Li3  1  0.66666666  0.33333334  0.95960003  1
  Al  Al4  1  0.66666666  0.33333334  0.25000001  1
  Al  Al5  1  0.33333331  0.66666667  0.75000003  1
  Al  Al6  1  0.00000000  0.00000000  0.75000003  1
  Al  Al7  1  0.00000000  0.00000000  0.25000001  1
  F  F8  1  0.05526396  0.71649101  0.85202403  1
  F  F9  1  0.66122696  0.94473701  0.85202403  1
  F  F10  1  0.28350999  0.33877400  0.85202403  1
  F  F11  1  0.66122698  0.71649101  0.64797602  1
  F  F12  1  0.28350996  0.94473701  0.64797602  1
  F  F13  1  0.05526398  0.33877400  0.64797602  1
  F  F14  1  0.94473600  0.28350900  0.14797601  1
  F  F15  1  0.33877300  0.05526300  0.14797601  1
  F  F16  1  0.94473598  0.66122601  0.35202401  1
  F  F17  1  0.71649001  0.05526300  0.35202401  1
  F  F18  1  0.33877299  0.28350900  0.35202401  1
  F  F19  1  0.71648998  0.66122601  0.14797601  1
