# generated using pymatgen
data_NaBrO4
_symmetry_space_group_name_H-M   'P 1'
_cell_length_a   6.48114109
_cell_length_b   7.11644220
_cell_length_c   7.11644220
_cell_angle_alpha   60.00000000
_cell_angle_beta   90.00000000
_cell_angle_gamma   90.00000000
_symmetry_Int_Tables_number   1
_chemical_formula_structural   NaBrO4
_chemical_formula_sum   'Na3 Br3 O12'
_cell_volume   284.25490058
_cell_formula_units_Z   3
loop_
 _symmetry_equiv_pos_site_id
 _symmetry_equiv_pos_as_xyz
  1  'x, y, z'
loop_
 _atom_site_type_symbol
 _atom_site_label
 _atom_site_symmetry_multiplicity
 _atom_site_fract_x
 _atom_site_fract_y
 _atom_site_fract_z
 _atom_site_occupancy
  Na  Na0  1  0.16666700  0.00000000  0.50987201  1
  Na  Na1  1  0.49999999  0.49012799  1.00000001  1
  Na  Na2  1  0.83333299  0.50987199  0.49012799  1
  Br  Br3  1  0.66666666  0.00000000  0.54025601  1
  Br  Br4  1  0.99999999  0.45974399  -0.00000002  1
  Br  Br5  1  0.33333333  0.54025599  0.45974399  1
  O  O6  1  0.80110699  0.15220700  0.58781501  1
  O  O7  1  0.13444100  0.25997800  0.15220699  1
  O  O8  1  0.46777399  0.58781499  0.25997799  1
  O  O9  1  0.86555899  0.41218500  0.84779301  1
  O  O10  1  0.19889300  0.74002199  0.41218498  1
  O  O11  1  0.53222599  0.84779299  0.74002199  1
  O  O12  1  0.50743599  0.12375900  0.35487300  1
  O  O13  1  0.84076899  0.52136799  0.12375898  1
  O  O14  1  0.17410200  0.35487300  0.52136800  1
  O  O15  1  0.15923100  0.64512699  0.87624100  1
  O  O16  1  0.49256399  0.47863199  0.64512700  1
  O  O17  1  0.82589799  0.87624099  0.47863198  1
