# generated using pymatgen
data_Hf2MgO6
_symmetry_space_group_name_H-M   'P 1'
_cell_length_a   5.89765120
_cell_length_b   5.89765120
_cell_length_c   7.35380983
_cell_angle_alpha   74.12782288
_cell_angle_beta   74.12782288
_cell_angle_gamma   73.15756989
_symmetry_Int_Tables_number   1
_chemical_formula_structural   Hf2MgO6
_chemical_formula_sum   'Hf4 Mg2 O12'
_cell_volume   230.17546638
_cell_formula_units_Z   2
loop_
 _symmetry_equiv_pos_site_id
 _symmetry_equiv_pos_as_xyz
  1  'x, y, z'
loop_
 _atom_site_type_symbol
 _atom_site_label
 _atom_site_symmetry_multiplicity
 _atom_site_fract_x
 _atom_site_fract_y
 _atom_site_fract_z
 _atom_site_occupancy
  Mg  Mg0  1  0.66295898  0.66295900  0.83320595  1
  Mg  Mg1  1  0.00000000  0.00000000  0.00000000  1
  Hf  Hf2  1  0.68787498  0.68787500  0.34722396  1
  Hf  Hf3  1  0.00000000  0.00000000  0.49999999  1
  Hf  Hf4  1  0.33704099  0.33704100  0.16679398  1
  Hf  Hf5  1  0.31212499  0.31212500  0.65277597  1
  O  O6  1  0.08162100  0.08162100  0.71403698  1
  O  O7  1  0.91837897  0.91837900  0.28596295  1
  O  O8  1  0.29754498  0.70245500  0.99999995  1
  O  O9  1  0.97891999  0.36229100  0.34775996  1
  O  O10  1  0.45383299  0.45383300  0.35842197  1
  O  O11  1  0.77175198  0.77175200  0.03642897  1
  O  O12  1  0.22824799  0.22824800  0.96357096  1
  O  O13  1  0.54616698  0.54616700  0.64157796  1
  O  O14  1  0.36229097  0.97892000  0.34775996  1
  O  O15  1  0.70245499  0.29754500  -0.00000002  1
  O  O16  1  0.02107998  0.63770900  0.65223997  1
  O  O17  1  0.63770900  0.02108000  0.65223997  1
