# generated using pymatgen
data_Ba2NbSbO6
_symmetry_space_group_name_H-M   'P 1'
_cell_length_a   6.10300207
_cell_length_b   6.10300207
_cell_length_c   6.10300255
_cell_angle_alpha   60.47829437
_cell_angle_beta   60.47829437
_cell_angle_gamma   60.47829819
_symmetry_Int_Tables_number   1
_chemical_formula_structural   Ba2NbSbO6
_chemical_formula_sum   'Ba2 Nb1 Sb1 O6'
_cell_volume   162.47462033
_cell_formula_units_Z   1
loop_
 _symmetry_equiv_pos_site_id
 _symmetry_equiv_pos_as_xyz
  1  'x, y, z'
loop_
 _atom_site_type_symbol
 _atom_site_label
 _atom_site_symmetry_multiplicity
 _atom_site_fract_x
 _atom_site_fract_y
 _atom_site_fract_z
 _atom_site_occupancy
  Ba  Ba0  1  0.74870402  0.74870398  0.74870400  1
  Ba  Ba1  1  0.25129601  0.25129599  0.25129600  1
  Nb  Nb2  1  0.00000000  0.00000000  0.00000000  1
  Sb  Sb3  1  0.50000002  0.49999999  0.50000000  1
  O  O4  1  0.77885200  0.27129599  0.68501701  1
  O  O5  1  0.68501703  0.77885198  0.27129598  1
  O  O6  1  0.27129603  0.68501698  0.77885200  1
  O  O7  1  0.22114803  0.72870398  0.31498299  1
  O  O8  1  0.72870400  0.31498299  0.22114799  1
  O  O9  1  0.31498301  0.22114799  0.72870401  1
