# generated using pymatgen
data_Li2CrF6
_symmetry_space_group_name_H-M   'P 1'
_cell_length_a   4.66108513
_cell_length_b   4.67371893
_cell_length_c   8.99565697
_cell_angle_alpha   90.00000000
_cell_angle_beta   90.38249207
_cell_angle_gamma   90.00000000
_symmetry_Int_Tables_number   1
_chemical_formula_structural   Li2CrF6
_chemical_formula_sum   'Li4 Cr2 F12'
_cell_volume   195.96243826
_cell_formula_units_Z   2
loop_
 _symmetry_equiv_pos_site_id
 _symmetry_equiv_pos_as_xyz
  1  'x, y, z'
loop_
 _atom_site_type_symbol
 _atom_site_label
 _atom_site_symmetry_multiplicity
 _atom_site_fract_x
 _atom_site_fract_y
 _atom_site_fract_z
 _atom_site_occupancy
  Li  Li0  1  0.49482300  0.51871701  0.83419600  1
  Li  Li1  1  0.00517700  0.01871700  0.66580401  1
  Li  Li2  1  0.50517700  0.48128301  0.16580399  1
  Li  Li3  1  0.99482299  0.98128301  0.33419598  1
  Cr  Cr4  1  0.00000000  0.00000000  0.00000000  1
  Cr  Cr5  1  0.50000000  0.50000001  0.50000000  1
  F  F6  1  0.22088200  0.21971800  0.49964700  1
  F  F7  1  0.72088199  0.28028200  0.99964700  1
  F  F8  1  0.27911800  0.71971801  0.00035299  1
  F  F9  1  0.30702700  0.69285801  0.65123101  1
  F  F10  1  0.19297300  0.19285800  0.84876901  1
  F  F11  1  0.80741799  0.81152701  0.84729600  1
  F  F12  1  0.30741800  0.68847301  0.34729600  1
  F  F13  1  0.69297299  0.30714200  0.34876899  1
  F  F14  1  0.19258200  0.18847300  0.15270400  1
  F  F15  1  0.77911799  0.78028201  0.50035299  1
  F  F16  1  0.80702699  0.80714201  0.15123098  1
  F  F17  1  0.69258199  0.31152700  0.65270399  1
