# generated using pymatgen
data_MnV(AsO4)2
_symmetry_space_group_name_H-M   'P 1'
_cell_length_a   4.99999905
_cell_length_b   4.99999905
_cell_length_c   6.67071295
_cell_angle_alpha   90.00000000
_cell_angle_beta   90.00000000
_cell_angle_gamma   113.21788025
_symmetry_Int_Tables_number   1
_chemical_formula_structural   MnV(AsO4)2
_chemical_formula_sum   'Mn1 V1 As2 O8'
_cell_volume   153.26163232
_cell_formula_units_Z   1
loop_
 _symmetry_equiv_pos_site_id
 _symmetry_equiv_pos_as_xyz
  1  'x, y, z'
loop_
 _atom_site_type_symbol
 _atom_site_label
 _atom_site_symmetry_multiplicity
 _atom_site_fract_x
 _atom_site_fract_y
 _atom_site_fract_z
 _atom_site_occupancy
  V  V0  1  0.00000000  0.00000000  0.00000000  1
  Mn  Mn1  1  0.00000000  0.00000000  0.50000000  1
  As  As2  1  0.65064404  0.34935602  0.25000000  1
  As  As3  1  0.34935604  0.65064403  0.75000001  1
  O  O4  1  0.28177102  0.22083601  0.25000000  1
  O  O5  1  0.71822906  0.77916404  0.75000001  1
  O  O6  1  0.22083602  0.28177101  0.75000001  1
  O  O7  1  0.77916406  0.71822904  0.25000000  1
  O  O8  1  0.75751904  0.24248101  0.04213400  1
  O  O9  1  0.24248105  0.75751904  0.54213400  1
  O  O10  1  0.24248105  0.75751904  0.95786601  1
  O  O11  1  0.75751904  0.24248101  0.45786600  1
