# generated using pymatgen
data_GeS3
_symmetry_space_group_name_H-M   'P 1'
_cell_length_a   5.49987078
_cell_length_b   7.76443815
_cell_length_c   7.76443815
_cell_angle_alpha   90.00000000
_cell_angle_beta   90.00000000
_cell_angle_gamma   90.00000000
_symmetry_Int_Tables_number   1
_chemical_formula_structural   GeS3
_chemical_formula_sum   'Ge4 S12'
_cell_volume   331.56795862
_cell_formula_units_Z   4
loop_
 _symmetry_equiv_pos_site_id
 _symmetry_equiv_pos_as_xyz
  1  'x, y, z'
loop_
 _atom_site_type_symbol
 _atom_site_label
 _atom_site_symmetry_multiplicity
 _atom_site_fract_x
 _atom_site_fract_y
 _atom_site_fract_z
 _atom_site_occupancy
  Ge  Ge0  1  0.00000000  0.00000000  0.00000000  1
  Ge  Ge1  1  -0.00000000  0.49999999  0.49999999  1
  Ge  Ge2  1  -0.00000000  0.25383200  0.74616799  1
  Ge  Ge3  1  -0.00000000  0.74616799  0.25383200  1
  S  S4  1  -0.00000000  0.25383200  0.25383200  1
  S  S5  1  -0.00000000  0.74616799  0.74616799  1
  S  S6  1  0.50000002  0.00000000  0.00000000  1
  S  S7  1  0.50000002  0.49999999  0.49999999  1
  S  S8  1  0.76585803  0.49999999  0.26722499  1
  S  S9  1  0.75665003  0.99999998  0.75573699  1
  S  S10  1  0.76585803  0.49999999  0.73277499  1
  S  S11  1  0.75665003  0.99999998  0.24426300  1
  S  S12  1  0.24335001  0.75573699  0.00000000  1
  S  S13  1  0.23414201  0.26722499  0.49999999  1
  S  S14  1  0.24335001  0.24426300  0.00000000  1
  S  S15  1  0.23414201  0.73277499  0.49999999  1
