# generated using pymatgen
data_Ag3Sb4
_symmetry_space_group_name_H-M   'P 1'
_cell_length_a   8.11759949
_cell_length_b   8.11759949
_cell_length_c   8.11759949
_cell_angle_alpha   109.47122192
_cell_angle_beta   109.47122192
_cell_angle_gamma   109.47122192
_symmetry_Int_Tables_number   1
_chemical_formula_structural   Ag3Sb4
_chemical_formula_sum   'Ag6 Sb8'
_cell_volume   411.77592204
_cell_formula_units_Z   2
loop_
 _symmetry_equiv_pos_site_id
 _symmetry_equiv_pos_as_xyz
  1  'x, y, z'
loop_
 _atom_site_type_symbol
 _atom_site_label
 _atom_site_symmetry_multiplicity
 _atom_site_fract_x
 _atom_site_fract_y
 _atom_site_fract_z
 _atom_site_occupancy
  Ag  Ag0  1  0.81005397  0.06005400  0.74999998  1
  Ag  Ag1  1  0.43994603  0.74999999  0.18994604  1
  Ag  Ag2  1  0.75000001  0.68994599  0.93994601  1
  Ag  Ag3  1  0.06005401  0.25000000  0.31005400  1
  Ag  Ag4  1  0.25000004  0.81005399  0.56005402  1
  Ag  Ag5  1  0.68994600  0.43994599  0.25000003  1
  Sb  Sb6  1  0.99999999  0.49999999  0.54057302  1
  Sb  Sb7  1  0.04057306  0.99999999  1.00000000  1
  Sb  Sb8  1  0.45942701  0.45942699  0.95942699  1
  Sb  Sb9  1  0.49999998  0.04057300  0.49999999  1
  Sb  Sb10  1  0.99999999  0.49999999  0.01402705  1
  Sb  Sb11  1  0.51402704  0.99999999  1.00000002  1
  Sb  Sb12  1  0.50000001  0.51402699  0.50000001  1
  Sb  Sb13  1  0.98597302  0.98597299  0.48597305  1
