# generated using pymatgen
data_Bi2SbRuS3
_symmetry_space_group_name_H-M   'P 1'
_cell_length_a   7.60327435
_cell_length_b   7.60327435
_cell_length_c   7.60327387
_cell_angle_alpha   106.89476013
_cell_angle_beta   106.89476013
_cell_angle_gamma   106.89476013
_symmetry_Int_Tables_number   1
_chemical_formula_structural   Bi2SbRuS3
_chemical_formula_sum   'Bi4 Sb2 Ru2 S6'
_cell_volume   367.10192650
_cell_formula_units_Z   2
loop_
 _symmetry_equiv_pos_site_id
 _symmetry_equiv_pos_as_xyz
  1  'x, y, z'
loop_
 _atom_site_type_symbol
 _atom_site_label
 _atom_site_symmetry_multiplicity
 _atom_site_fract_x
 _atom_site_fract_y
 _atom_site_fract_z
 _atom_site_occupancy
  Bi  Bi0  1  0.53991600  0.04679400  0.11947903  1
  Bi  Bi1  1  0.03991603  0.61947900  0.54679405  1
  Bi  Bi2  1  0.04679400  0.11947900  0.53991602  1
  Bi  Bi3  1  0.61947902  0.54679400  0.03991606  1
  Ru  Ru4  1  0.11947902  0.53991600  0.04679404  1
  Sb  Sb5  1  0.54679400  0.03991600  0.61947904  1
  Ru  Ru6  1  0.59830002  0.59830000  0.59830007  1
  Sb  Sb7  1  0.09830000  0.09830000  0.09830001  1
  S  S8  1  0.42549101  0.31745300  0.67726705  1
  S  S9  1  0.92549100  0.17726700  0.81745306  1
  S  S10  1  0.31745303  0.67726700  0.42549106  1
  S  S11  1  0.17726704  0.81745301  0.92549107  1
  S  S12  1  0.67726701  0.42549100  0.31745306  1
  S  S13  1  0.81745303  0.92549101  0.17726709  1
