# generated using pymatgen
data_Li5Co3O8
_symmetry_space_group_name_H-M   'P 1'
_cell_length_a   5.13479090
_cell_length_b   5.13512421
_cell_length_c   5.71408510
_cell_angle_alpha   89.99503326
_cell_angle_beta   89.99825287
_cell_angle_gamma   68.46059418
_symmetry_Int_Tables_number   1
_chemical_formula_structural   Li5Co3O8
_chemical_formula_sum   'Li5 Co3 O8'
_cell_volume   140.14594739
_cell_formula_units_Z   1
loop_
 _symmetry_equiv_pos_site_id
 _symmetry_equiv_pos_as_xyz
  1  'x, y, z'
loop_
 _atom_site_type_symbol
 _atom_site_label
 _atom_site_symmetry_multiplicity
 _atom_site_fract_x
 _atom_site_fract_y
 _atom_site_fract_z
 _atom_site_occupancy
  Li  Li0  1  0.50017504  0.50004897  0.00520200  1
  Li  Li1  1  0.00000003  0.49999997  0.24999998  1
  Li  Li2  1  0.49982504  0.49994997  0.49479699  1
  Li  Li3  1  0.00000003  0.49999997  0.74999897  1
  Li  Li4  1  0.50000007  0.99999894  0.25000098  1
  Co  Co5  1  0.00003607  0.99996094  0.00018796  1
  Co  Co6  1  0.99996401  0.00004100  0.49981103  1
  Co  Co7  1  0.50000007  0.99999994  0.74999997  1
  O  O8  1  0.24622302  0.21033399  0.98776799  1
  O  O9  1  0.78231602  0.23600299  0.24997702  1
  O  O10  1  0.24619302  0.21044599  0.51218699  1
  O  O11  1  0.77553102  0.23656199  0.75000801  1
  O  O12  1  0.75380606  0.78955295  0.98781298  1
  O  O13  1  0.21768405  0.76399695  0.25002498  1
  O  O14  1  0.75377806  0.78966695  0.51223099  1
  O  O15  1  0.22446905  0.76343795  0.74999097  1
