# generated using pymatgen
data_Tl2Se
_symmetry_space_group_name_H-M   'P 1'
_cell_length_a   4.78976202
_cell_length_b   8.18241596
_cell_length_c   8.68869972
_cell_angle_alpha   90.00000000
_cell_angle_beta   90.00000000
_cell_angle_gamma   90.00000000
_symmetry_Int_Tables_number   1
_chemical_formula_structural   Tl2Se
_chemical_formula_sum   'Tl8 Se4'
_cell_volume   340.52600081
_cell_formula_units_Z   4
loop_
 _symmetry_equiv_pos_site_id
 _symmetry_equiv_pos_as_xyz
  1  'x, y, z'
loop_
 _atom_site_type_symbol
 _atom_site_label
 _atom_site_symmetry_multiplicity
 _atom_site_fract_x
 _atom_site_fract_y
 _atom_site_fract_z
 _atom_site_occupancy
  Tl  Tl0  1  0.25000000  0.51462300  0.31854201  1
  Tl  Tl1  1  0.25000000  0.01462300  0.18145801  1
  Tl  Tl2  1  0.75000000  0.48537700  0.68145802  1
  Tl  Tl3  1  0.75000000  0.98537700  0.81854203  1
  Tl  Tl4  1  0.25000000  0.63947700  0.93680803  1
  Tl  Tl5  1  0.25000000  0.13947700  0.56319202  1
  Tl  Tl6  1  0.75000000  0.36052300  0.06319200  1
  Tl  Tl7  1  0.75000000  0.86052300  0.43680801  1
  Se  Se8  1  0.25000000  0.29571100  0.89292403  1
  Se  Se9  1  0.25000000  0.79571100  0.60707602  1
  Se  Se10  1  0.75000000  0.70428900  0.10707600  1
  Se  Se11  1  0.75000000  0.20428900  0.39292401  1
