# generated using pymatgen
data_LiSO5
_symmetry_space_group_name_H-M   'P 1'
_cell_length_a   4.08810520
_cell_length_b   6.49256802
_cell_length_c   6.49256802
_cell_angle_alpha   90.00000000
_cell_angle_beta   90.00000000
_cell_angle_gamma   90.00000000
_symmetry_Int_Tables_number   1
_chemical_formula_structural   LiSO5
_chemical_formula_sum   'Li2 S2 O10'
_cell_volume   172.32769506
_cell_formula_units_Z   2
loop_
 _symmetry_equiv_pos_site_id
 _symmetry_equiv_pos_as_xyz
  1  'x, y, z'
loop_
 _atom_site_type_symbol
 _atom_site_label
 _atom_site_symmetry_multiplicity
 _atom_site_fract_x
 _atom_site_fract_y
 _atom_site_fract_z
 _atom_site_occupancy
  Li  Li0  1  0.76464596  1.00000000  0.50000000  1
  Li  Li1  1  0.23535399  0.50000000  0.00000000  1
  S  S2  1  0.49999998  0.50000000  0.50000000  1
  S  S3  1  0.49999998  0.00000000  0.00000000  1
  O  O4  1  0.20777099  1.00000000  0.50000000  1
  O  O5  1  0.79222896  0.50000000  0.00000000  1
  O  O6  1  0.71229596  0.69457100  0.48103800  1
  O  O7  1  0.71229596  0.30542900  0.51896200  1
  O  O8  1  0.28770399  0.19457100  0.98103800  1
  O  O9  1  0.28770399  0.80542900  0.01896200  1
  O  O10  1  0.28770399  0.48103800  0.30542900  1
  O  O11  1  0.28770399  0.51896200  0.69457100  1
  O  O12  1  0.71229596  0.98103800  0.80542900  1
  O  O13  1  0.71229596  0.01896200  0.19457100  1
