# generated using pymatgen
data_Li7Mn2CoO10
_symmetry_space_group_name_H-M   'P 1'
_cell_length_a   4.98331213
_cell_length_b   5.78871775
_cell_length_c   6.56466389
_cell_angle_alpha   102.98214722
_cell_angle_beta   98.29176331
_cell_angle_gamma   106.48701477
_symmetry_Int_Tables_number   1
_chemical_formula_structural   Li7Mn2CoO10
_chemical_formula_sum   'Li7 Mn2 Co1 O10'
_cell_volume   172.50482030
_cell_formula_units_Z   1
loop_
 _symmetry_equiv_pos_site_id
 _symmetry_equiv_pos_as_xyz
  1  'x, y, z'
loop_
 _atom_site_type_symbol
 _atom_site_label
 _atom_site_symmetry_multiplicity
 _atom_site_fract_x
 _atom_site_fract_y
 _atom_site_fract_z
 _atom_site_occupancy
  Li  Li0  1  0.79454597  0.10130499  0.59827701  1
  Li  Li1  1  0.61678793  0.70240096  0.20488998  1
  Li  Li2  1  0.39818697  0.30221998  0.80081799  1
  Li  Li3  1  0.19532592  0.90238894  0.40300596  1
  Li  Li4  1  0.99369594  0.49046997  0.99863199  1
  Li  Li5  1  0.80224093  0.60228296  0.59937498  1
  Li  Li6  1  0.60607097  0.20860599  0.19951600  1
  Mn  Mn7  1  0.40197693  0.80272795  0.79215697  1
  Co  Co8  1  0.20361396  0.40136797  0.39634998  1
  Mn  Mn9  1  0.99045898  0.00249800  0.00053301  1
  O  O10  1  0.91135697  0.05709700  0.28272701  1
  O  O11  1  0.92437693  0.54305797  0.31222299  1
  O  O12  1  0.67240997  0.12850799  0.89626200  1
  O  O13  1  0.70099493  0.67762296  0.89784698  1
  O  O14  1  0.49276597  0.27211798  0.49172799  1
  O  O15  1  0.51798393  0.73439395  0.50292797  1
  O  O16  1  0.27602197  0.32109898  0.09848099  1
  O  O17  1  0.10182296  0.47767397  0.69176998  1
  O  O18  1  0.09947192  0.93688694  0.72440896  1
  O  O19  1  0.29988893  0.83527695  0.10807297  1
