# generated using pymatgen
data_Y4ScGaBi6
_symmetry_space_group_name_H-M   'P 1'
_cell_length_a   7.74010086
_cell_length_b   7.84037590
_cell_length_c   8.54299355
_cell_angle_alpha   117.23638916
_cell_angle_beta   90.00000000
_cell_angle_gamma   90.00000000
_symmetry_Int_Tables_number   1
_chemical_formula_structural   Y4ScGaBi6
_chemical_formula_sum   'Y4 Sc1 Ga1 Bi6'
_cell_volume   460.95320381
_cell_formula_units_Z   1
loop_
 _symmetry_equiv_pos_site_id
 _symmetry_equiv_pos_as_xyz
  1  'x, y, z'
loop_
 _atom_site_type_symbol
 _atom_site_label
 _atom_site_symmetry_multiplicity
 _atom_site_fract_x
 _atom_site_fract_y
 _atom_site_fract_z
 _atom_site_occupancy
  Y  Y0  1  0.69985801  0.85963300  0.88453402  1
  Y  Y1  1  0.19985800  0.64036700  0.61546602  1
  Y  Y2  1  0.30014201  0.14036700  0.11546600  1
  Y  Y3  1  0.80014201  0.35963300  0.38453401  1
  Ga  Ga4  1  0.86802402  0.76717600  0.56116401  1
  Sc  Sc5  1  0.36802401  0.73282400  0.93883603  1
  Bi  Bi6  1  0.13197600  0.23282400  0.43883602  1
  Bi  Bi7  1  0.63197601  0.26717600  0.06116400  1
  Bi  Bi8  1  0.89658802  0.77149500  0.07887098  1
  Bi  Bi9  1  0.39658801  0.72850500  0.42112900  1
  Bi  Bi10  1  0.10341200  0.22850500  0.92112904  1
  Bi  Bi11  1  0.60341201  0.27149500  0.57887102  1
