# generated using pymatgen
data_BaZnO3
_symmetry_space_group_name_H-M   'P 1'
_cell_length_a   5.75176382
_cell_length_b   5.75176430
_cell_length_c   7.05875015
_cell_angle_alpha   90.00000000
_cell_angle_beta   90.00000000
_cell_angle_gamma   120.00000000
_symmetry_Int_Tables_number   1
_chemical_formula_structural   BaZnO3
_chemical_formula_sum   'Ba3 Zn3 O9'
_cell_volume   202.23697809
_cell_formula_units_Z   3
loop_
 _symmetry_equiv_pos_site_id
 _symmetry_equiv_pos_as_xyz
  1  'x, y, z'
loop_
 _atom_site_type_symbol
 _atom_site_label
 _atom_site_symmetry_multiplicity
 _atom_site_fract_x
 _atom_site_fract_y
 _atom_site_fract_z
 _atom_site_occupancy
  Ba  Ba0  1  0.00000000  0.00000000  0.49999999  1
  Ba  Ba1  1  0.33333336  0.66666667  0.16482400  1
  Ba  Ba2  1  0.66666670  0.33333333  0.83517598  1
  Zn  Zn3  1  0.33333336  0.66666667  0.67957599  1
  Zn  Zn4  1  0.66666670  0.33333333  0.32042399  1
  Zn  Zn5  1  0.00000000  0.00000000  0.00000000  1
  O  O6  1  0.33944201  0.16972100  0.17144600  1
  O  O7  1  0.66055804  0.83027900  0.82855398  1
  O  O8  1  1.00000004  0.50000000  0.49999999  1
  O  O9  1  0.50000003  0.50000000  0.49999999  1
  O  O10  1  0.83027903  0.16972100  0.17144600  1
  O  O11  1  0.16972103  0.83027900  0.82855398  1
  O  O12  1  0.50000004  1.00000000  0.49999999  1
  O  O13  1  0.83027904  0.66055800  0.17144600  1
  O  O14  1  0.16972101  0.33944200  0.82855398  1
