# generated using pymatgen
data_AlCdInSe4
_symmetry_space_group_name_H-M   'P 1'
_cell_length_a   5.88059378
_cell_length_b   5.88059378
_cell_length_c   6.90379667
_cell_angle_alpha   115.20736694
_cell_angle_beta   115.20736694
_cell_angle_gamma   90.00000000
_symmetry_Int_Tables_number   1
_chemical_formula_structural   AlCdInSe4
_chemical_formula_sum   'Al1 Cd1 In1 Se4'
_cell_volume   190.57987475
_cell_formula_units_Z   1
loop_
 _symmetry_equiv_pos_site_id
 _symmetry_equiv_pos_as_xyz
  1  'x, y, z'
loop_
 _atom_site_type_symbol
 _atom_site_label
 _atom_site_symmetry_multiplicity
 _atom_site_fract_x
 _atom_site_fract_y
 _atom_site_fract_z
 _atom_site_occupancy
  Al  Al0  1  0.50000000  0.50000001  -0.00000003  1
  In  In1  1  0.24999998  0.75000001  0.49999997  1
  Cd  Cd2  1  0.00000000  0.00000000  0.00000000  1
  Se  Se3  1  0.86410000  0.87618002  0.27806095  1
  Se  Se4  1  0.41396000  0.40188001  0.27805898  1
  Se  Se5  1  0.12382099  0.58604001  0.72193998  1
  Se  Se6  1  0.59811901  0.13590000  0.72193999  1
