# generated using pymatgen
data_Na2ZrS3
_symmetry_space_group_name_H-M   'P 1'
_cell_length_a   6.70475006
_cell_length_b   6.70917082
_cell_length_c   6.98804235
_cell_angle_alpha   80.69781494
_cell_angle_beta   71.12551880
_cell_angle_gamma   60.02179337
_symmetry_Int_Tables_number   1
_chemical_formula_structural   Na2ZrS3
_chemical_formula_sum   'Na4 Zr2 S6'
_cell_volume   257.64957635
_cell_formula_units_Z   2
loop_
 _symmetry_equiv_pos_site_id
 _symmetry_equiv_pos_as_xyz
  1  'x, y, z'
loop_
 _atom_site_type_symbol
 _atom_site_label
 _atom_site_symmetry_multiplicity
 _atom_site_fract_x
 _atom_site_fract_y
 _atom_site_fract_z
 _atom_site_occupancy
  Na  Na0  1  0.65908297  0.68183401  0.50000001  1
  Na  Na1  1  0.34091699  0.31816600  0.50000000  1
  Na  Na2  1  0.49999999  0.00000000  0.00000001  1
  Na  Na3  1  0.00000000  0.00000000  0.50000000  1
  Zr  Zr4  1  0.83178698  0.33642600  0.00000002  1
  Zr  Zr5  1  0.16821298  0.66357401  -0.00000000  1
  S  S6  1  0.21380400  0.00000000  0.77847601  1
  S  S7  1  0.78619599  0.00000000  0.22152402  1
  S  S8  1  0.93559797  0.63886601  0.77816102  1
  S  S9  1  0.06440199  0.36113401  0.22183900  1
  S  S10  1  0.42553598  0.63886601  0.22183900  1
  S  S11  1  0.57446398  0.36113401  0.77816101  1
