# generated using pymatgen
data_Rb2Eu2ReGe2SbCl10
_symmetry_space_group_name_H-M   'P 1'
_cell_length_a   8.01760197
_cell_length_b   8.91471481
_cell_length_c   8.01760197
_cell_angle_alpha   63.27661514
_cell_angle_beta   90.00000000
_cell_angle_gamma   116.72338867
_symmetry_Int_Tables_number   1
_chemical_formula_structural   Rb2Eu2ReGe2SbCl10
_chemical_formula_sum   'Rb2 Eu2 Re1 Ge2 Sb1 Cl10'
_cell_volume   442.24465001
_cell_formula_units_Z   1
loop_
 _symmetry_equiv_pos_site_id
 _symmetry_equiv_pos_as_xyz
  1  'x, y, z'
loop_
 _atom_site_type_symbol
 _atom_site_label
 _atom_site_symmetry_multiplicity
 _atom_site_fract_x
 _atom_site_fract_y
 _atom_site_fract_z
 _atom_site_occupancy
  Rb  Rb0  1  0.25000003  0.50000000  0.75000001  1
  Rb  Rb1  1  0.75000003  0.50000000  0.25000001  1
  Eu  Eu2  1  0.33651806  1.00000000  0.16348201  1
  Ge  Ge3  1  0.16348206  1.00000000  0.66348201  1
  Eu  Eu4  1  0.83651800  0.00000000  0.33651800  1
  Re  Re5  1  0.66348200  0.00000000  0.83651800  1
  Sb  Sb6  1  0.75000003  0.50000000  0.75000001  1
  Ge  Ge7  1  0.25000003  0.50000000  0.25000001  1
  Cl  Cl8  1  0.48595702  0.27087200  0.71508501  1
  Cl  Cl9  1  0.21508504  0.72912800  0.98595701  1
  Cl  Cl10  1  0.51404304  0.72912800  0.28491501  1
  Cl  Cl11  1  0.01404304  0.72912800  0.48595701  1
  Cl  Cl12  1  0.71508504  0.72912800  0.78491501  1
  Cl  Cl13  1  0.98595702  0.27087200  0.51404300  1
  Cl  Cl14  1  0.28491502  0.27087200  0.21508500  1
  Cl  Cl15  1  0.78491502  0.27087200  0.01404300  1
  Cl  Cl16  1  0.50000000  0.00000000  0.50000000  1
  Cl  Cl17  1  0.00000000  0.00000000  0.00000000  1
