# generated using pymatgen
data_Ca2FeWO6
_symmetry_space_group_name_H-M   'P 1'
_cell_length_a   5.47486877
_cell_length_b   5.63732386
_cell_length_c   7.81867886
_cell_angle_alpha   90.00000000
_cell_angle_beta   89.82160187
_cell_angle_gamma   90.00000000
_symmetry_Int_Tables_number   1
_chemical_formula_structural   Ca2FeWO6
_chemical_formula_sum   'Ca4 Fe2 W2 O12'
_cell_volume   241.31147231
_cell_formula_units_Z   2
loop_
 _symmetry_equiv_pos_site_id
 _symmetry_equiv_pos_as_xyz
  1  'x, y, z'
loop_
 _atom_site_type_symbol
 _atom_site_label
 _atom_site_symmetry_multiplicity
 _atom_site_fract_x
 _atom_site_fract_y
 _atom_site_fract_z
 _atom_site_occupancy
  Ca  Ca0  1  0.01202400  0.94917502  0.75248800  1
  Ca  Ca1  1  0.48797602  0.44917501  0.74751198  1
  Ca  Ca2  1  0.51202402  0.55082501  0.25248798  1
  Ca  Ca3  1  0.98797604  0.05082500  0.24751196  1
  Fe  Fe4  1  -0.00000000  0.50000001  1.00000001  1
  Fe  Fe5  1  0.50000002  0.00000000  0.49999998  1
  W  W6  1  0.50000002  0.00000000  -0.00000002  1
  W  W7  1  -0.00000000  0.50000001  0.50000000  1
  O  O8  1  0.28769101  0.69530502  0.54499999  1
  O  O9  1  0.21230901  0.19530500  0.95500000  1
  O  O10  1  0.71230903  0.30469501  0.45499997  1
  O  O11  1  0.78769103  0.80469502  0.04499997  1
  O  O12  1  0.80825103  0.78465302  0.44846997  1
  O  O13  1  0.69174903  0.28465301  0.05152997  1
  O  O14  1  0.19174901  0.21534701  0.55152999  1
  O  O15  1  0.30825101  0.71534702  0.94846999  1
  O  O16  1  0.90782304  0.53058301  0.74071897  1
  O  O17  1  0.59217702  0.03058300  0.75928098  1
  O  O18  1  0.09217700  0.46941701  0.25928100  1
  O  O19  1  0.40782302  0.96941702  0.24071898  1
