# generated using pymatgen
data_Ca2(YbCd)3
_symmetry_space_group_name_H-M   'P 1'
_cell_length_a   4.69110680
_cell_length_b   7.09451818
_cell_length_c   8.43870831
_cell_angle_alpha   90.00000000
_cell_angle_beta   90.00000000
_cell_angle_gamma   90.00000000
_symmetry_Int_Tables_number   1
_chemical_formula_structural   Ca2(YbCd)3
_chemical_formula_sum   'Ca2 Yb3 Cd3'
_cell_volume   280.84985339
_cell_formula_units_Z   1
loop_
 _symmetry_equiv_pos_site_id
 _symmetry_equiv_pos_as_xyz
  1  'x, y, z'
loop_
 _atom_site_type_symbol
 _atom_site_label
 _atom_site_symmetry_multiplicity
 _atom_site_fract_x
 _atom_site_fract_y
 _atom_site_fract_z
 _atom_site_occupancy
  Yb  Yb0  1  0.75000003  0.11956700  0.19309799  1
  Yb  Yb1  1  0.75000003  0.38043299  0.69309797  1
  Ca  Ca2  1  0.25000001  0.61956698  0.30690199  1
  Ca  Ca3  1  0.25000001  0.88043298  0.80690197  1
  Cd  Cd4  1  0.75000003  0.72485498  0.04238900  1
  Yb  Yb5  1  0.75000003  0.77514498  0.54238898  1
  Cd  Cd6  1  0.25000001  0.22485499  0.45761098  1
  Cd  Cd7  1  0.25000001  0.27514499  0.95761097  1
