# generated using pymatgen
data_HoVO3
_symmetry_space_group_name_H-M   'P 1'
_cell_length_a   5.33552599
_cell_length_b   5.77352524
_cell_length_c   7.69524431
_cell_angle_alpha   90.00000000
_cell_angle_beta   89.78453064
_cell_angle_gamma   90.00000000
_symmetry_Int_Tables_number   1
_chemical_formula_structural   HoVO3
_chemical_formula_sum   'Ho4 V4 O12'
_cell_volume   237.04873926
_cell_formula_units_Z   4
loop_
 _symmetry_equiv_pos_site_id
 _symmetry_equiv_pos_as_xyz
  1  'x, y, z'
loop_
 _atom_site_type_symbol
 _atom_site_label
 _atom_site_symmetry_multiplicity
 _atom_site_fract_x
 _atom_site_fract_y
 _atom_site_fract_z
 _atom_site_occupancy
  Ho  Ho0  1  0.47451600  0.07567500  0.24832900  1
  Ho  Ho1  1  0.52548400  0.92432496  0.75167101  1
  Ho  Ho2  1  0.02548400  0.57567498  0.25167100  1
  Ho  Ho3  1  0.97451600  0.42432498  0.74832901  1
  V  V4  1  0.50000000  0.49999998  1.00000001  1
  V  V5  1  -0.00000000  0.00000000  0.50000001  1
  V  V6  1  0.50000000  0.49999998  0.50000000  1
  V  V7  1  0.00000000  0.00000000  0.00000000  1
  O  O8  1  0.62717600  0.44932598  0.25056500  1
  O  O9  1  0.37282400  0.55067398  0.74943501  1
  O  O10  1  0.87282400  0.94932596  0.24943500  1
  O  O11  1  0.12717600  0.05067400  0.75056501  1
  O  O12  1  0.31678400  0.80231897  0.43374300  1
  O  O13  1  0.68321600  0.19768099  0.56625700  1
  O  O14  1  0.18321600  0.30231899  0.06625700  1
  O  O15  1  0.81678400  0.69768097  0.93374301  1
  O  O16  1  0.18474200  0.31056699  0.44160401  1
  O  O17  1  0.81525800  0.68943297  0.55839600  1
  O  O18  1  0.31525800  0.81056697  0.05839600  1
  O  O19  1  0.68474200  0.18943299  0.94160401  1
