# generated using pymatgen
data_Rb2CdF4
_symmetry_space_group_name_H-M   'P 1'
_cell_length_a   4.56250000
_cell_length_b   4.56250000
_cell_length_c   8.19643402
_cell_angle_alpha   106.16009521
_cell_angle_beta   106.16009521
_cell_angle_gamma   90.00000000
_symmetry_Int_Tables_number   1
_chemical_formula_structural   Rb2CdF4
_chemical_formula_sum   'Rb2 Cd1 F4'
_cell_volume   156.84762207
_cell_formula_units_Z   1
loop_
 _symmetry_equiv_pos_site_id
 _symmetry_equiv_pos_as_xyz
  1  'x, y, z'
loop_
 _atom_site_type_symbol
 _atom_site_label
 _atom_site_symmetry_multiplicity
 _atom_site_fract_x
 _atom_site_fract_y
 _atom_site_fract_z
 _atom_site_occupancy
  Rb  Rb0  1  0.64927199  0.64927199  0.29854399  1
  Rb  Rb1  1  0.35072799  0.35072800  0.70145601  1
  Cd  Cd2  1  0.00000000  0.00000000  0.00000000  1
  F  F3  1  0.99999999  0.50000000  1.00000001  1
  F  F4  1  0.49999998  0.99999999  1.00000001  1
  F  F5  1  0.84845498  0.84845499  0.69690999  1
  F  F6  1  0.15154500  0.15154500  0.30309000  1
