# generated using pymatgen
data_Sr2YNb(NO2)2
_symmetry_space_group_name_H-M   'P 1'
_cell_length_a   5.97906399
_cell_length_b   5.99689054
_cell_length_c   5.97906399
_cell_angle_alpha   119.90171051
_cell_angle_beta   90.00000000
_cell_angle_gamma   119.90171051
_symmetry_Int_Tables_number   1
_chemical_formula_structural   Sr2YNb(NO2)2
_chemical_formula_sum   'Sr2 Y1 Nb1 N2 O4'
_cell_volume   152.04174650
_cell_formula_units_Z   1
loop_
 _symmetry_equiv_pos_site_id
 _symmetry_equiv_pos_as_xyz
  1  'x, y, z'
loop_
 _atom_site_type_symbol
 _atom_site_label
 _atom_site_symmetry_multiplicity
 _atom_site_fract_x
 _atom_site_fract_y
 _atom_site_fract_z
 _atom_site_occupancy
  Sr  Sr0  1  0.24726294  0.49452595  0.74726295  1
  Sr  Sr1  1  0.74726294  0.49452595  0.24726294  1
  Y  Y2  1  0.50001000  0.00002000  0.50001000  1
  Nb  Nb3  1  0.97980289  0.95960590  0.97980289  1
  N  N4  1  0.77810894  0.55621794  0.77810894  1
  N  N5  1  0.77424500  0.00847700  0.23423200  1
  O  O6  1  0.23423200  0.00847700  0.23423200  1
  O  O7  1  0.77424500  0.00847700  0.77424500  1
  O  O8  1  0.23423200  0.00847700  0.77424500  1
  O  O9  1  0.23059795  0.46119595  0.23059795  1
