# generated using pymatgen
data_NdPaO4
_symmetry_space_group_name_H-M   'P 1'
_cell_length_a   5.46806192
_cell_length_b   5.46806192
_cell_length_c   6.66240978
_cell_angle_alpha   114.22787476
_cell_angle_beta   114.22787476
_cell_angle_gamma   90.00000000
_symmetry_Int_Tables_number   1
_chemical_formula_structural   NdPaO4
_chemical_formula_sum   'Nd2 Pa2 O8'
_cell_volume   162.22578547
_cell_formula_units_Z   2
loop_
 _symmetry_equiv_pos_site_id
 _symmetry_equiv_pos_as_xyz
  1  'x, y, z'
loop_
 _atom_site_type_symbol
 _atom_site_label
 _atom_site_symmetry_multiplicity
 _atom_site_fract_x
 _atom_site_fract_y
 _atom_site_fract_z
 _atom_site_occupancy
  Nd  Nd0  1  0.00000000  0.00000000  0.00000000  1
  Nd  Nd1  1  0.75000004  0.25000001  0.50000004  1
  Pa  Pa2  1  0.50000005  0.50000003  0.00000006  1
  Pa  Pa3  1  0.25000005  0.75000004  0.50000006  1
  O  O4  1  0.60879206  0.62500003  0.75000006  1
  O  O5  1  0.87500008  0.85879204  0.25000010  1
  O  O6  1  0.37500006  0.85879204  0.25000007  1
  O  O7  1  0.14120801  0.12500001  0.75000000  1
  O  O8  1  0.37500004  0.39120802  0.25000004  1
  O  O9  1  0.87500006  0.39120802  0.25000006  1
  O  O10  1  0.14120804  0.62500003  0.75000004  1
  O  O11  1  0.60879203  0.12500001  0.75000003  1
