# generated using pymatgen
data_LiZn2O3
_symmetry_space_group_name_H-M   'P 1'
_cell_length_a   5.42062807
_cell_length_b   5.95472813
_cell_length_c   5.96996355
_cell_angle_alpha   60.08438492
_cell_angle_beta   90.00000000
_cell_angle_gamma   90.00000000
_symmetry_Int_Tables_number   1
_chemical_formula_structural   LiZn2O3
_chemical_formula_sum   'Li2 Zn4 O6'
_cell_volume   167.02539971
_cell_formula_units_Z   2
loop_
 _symmetry_equiv_pos_site_id
 _symmetry_equiv_pos_as_xyz
  1  'x, y, z'
loop_
 _atom_site_type_symbol
 _atom_site_label
 _atom_site_symmetry_multiplicity
 _atom_site_fract_x
 _atom_site_fract_y
 _atom_site_fract_z
 _atom_site_occupancy
  Li  Li0  1  0.01202400  0.66776999  0.34046800  1
  Li  Li1  1  0.01202400  0.00823800  0.65953202  1
  Zn  Zn2  1  0.51202399  0.33223000  0.65953202  1
  Zn  Zn3  1  0.51202399  0.99176199  0.34046799  1
  Zn  Zn4  1  0.01897400  0.32440600  -0.00000001  1
  Zn  Zn5  1  0.51897399  0.67559399  -0.00000001  1
  O  O6  1  0.62403099  0.66477099  0.32228600  1
  O  O7  1  0.62403099  0.98705699  0.67771400  1
  O  O8  1  0.12403100  0.33522900  0.67771402  1
  O  O9  1  0.12403100  0.01294300  0.32228601  1
  O  O10  1  0.63691599  0.34536300  1.00000003  1
  O  O11  1  0.13691600  0.65463699  1.00000002  1
