# generated using pymatgen
data_K2Fe3Se4
_symmetry_space_group_name_H-M   'P 1'
_cell_length_a   6.11080790
_cell_length_b   6.15445709
_cell_length_c   14.40108490
_cell_angle_alpha   83.95381927
_cell_angle_beta   77.75075531
_cell_angle_gamma   60.23433304
_symmetry_Int_Tables_number   1
_chemical_formula_structural   K2Fe3Se4
_chemical_formula_sum   'K4 Fe6 Se8'
_cell_volume   459.44487286
_cell_formula_units_Z   2
loop_
 _symmetry_equiv_pos_site_id
 _symmetry_equiv_pos_as_xyz
  1  'x, y, z'
loop_
 _atom_site_type_symbol
 _atom_site_label
 _atom_site_symmetry_multiplicity
 _atom_site_fract_x
 _atom_site_fract_y
 _atom_site_fract_z
 _atom_site_occupancy
  K  K0  1  0.57585600  0.00000000  0.84828800  1
  K  K1  1  0.42414400  0.00000000  0.15171201  1
  K  K2  1  0.17414399  0.49999999  0.65171201  1
  K  K3  1  0.32585599  0.49999999  0.34828801  1
  Fe  Fe4  1  0.24950900  0.00000000  0.50098200  1
  Fe  Fe5  1  0.75049100  0.00000000  0.49901801  1
  Fe  Fe6  1  0.50049099  0.49999999  0.99901801  1
  Fe  Fe7  1  0.00000000  0.00000000  0.00000000  1
  Fe  Fe8  1  0.74999999  0.49999999  0.50000002  1
  Fe  Fe9  1  0.99950899  0.49999999  0.00098204  1
  Se  Se10  1  0.89110599  0.33251199  0.89113902  1
  Se  Se11  1  0.11475798  0.66748699  0.10886002  1
  Se  Se12  1  0.77638299  0.33251199  0.10886003  1
  Se  Se13  1  0.21775598  0.66748699  0.89113901  1
  Se  Se14  1  0.85889400  0.16748800  0.60886102  1
  Se  Se15  1  0.63524198  0.83251299  0.39114003  1
  Se  Se16  1  0.97361700  0.16748800  0.39114002  1
  Se  Se17  1  0.53224398  0.83251299  0.60886102  1
