# generated using pymatgen
data_SbI2F7
_symmetry_space_group_name_H-M   'P 1'
_cell_length_a   6.07160616
_cell_length_b   8.28711033
_cell_length_c   10.61324501
_cell_angle_alpha   90.43256378
_cell_angle_beta   101.66374207
_cell_angle_gamma   97.79991150
_symmetry_Int_Tables_number   1
_chemical_formula_structural   SbI2F7
_chemical_formula_sum   'Sb2 I4 F14'
_cell_volume   517.81420966
_cell_formula_units_Z   2
loop_
 _symmetry_equiv_pos_site_id
 _symmetry_equiv_pos_as_xyz
  1  'x, y, z'
loop_
 _atom_site_type_symbol
 _atom_site_label
 _atom_site_symmetry_multiplicity
 _atom_site_fract_x
 _atom_site_fract_y
 _atom_site_fract_z
 _atom_site_occupancy
  Sb  Sb0  1  0.55317602  0.77589596  0.80589901  1
  Sb  Sb1  1  0.44682400  0.22410399  0.19410100  1
  I  I2  1  0.77681002  0.76876796  0.46364402  1
  I  I3  1  0.22319000  0.23123199  0.53635599  1
  I  I4  1  0.09913303  0.61900797  0.17293602  1
  I  I5  1  0.90086699  0.38099198  0.82706399  1
  F  F6  1  0.81420502  0.82508696  0.21747403  1
  F  F7  1  0.18579500  0.17491299  0.78252599  1
  F  F8  1  0.33663102  0.67974197  0.68203801  1
  F  F9  1  0.66336900  0.32025799  0.31796201  1
  F  F10  1  0.52750003  0.96823195  0.73441702  1
  F  F11  1  0.47249999  0.03176800  0.26558299  1
  F  F12  1  0.35644803  0.80824296  0.90127701  1
  F  F13  1  0.64355199  0.19175699  0.09872301  1
  F  F14  1  0.59015301  0.58268297  0.87600600  1
  F  F15  1  0.40984701  0.41731698  0.12399401  1
  F  F16  1  0.23946001  0.25595299  0.28865000  1
  F  F17  1  0.76054001  0.74404697  0.71135001  1
  F  F18  1  0.22027700  0.12940599  0.07193400  1
  F  F19  1  0.77972302  0.87059396  0.92806601  1
