# generated using pymatgen
data_MnAgOF2
_symmetry_space_group_name_H-M   'P 1'
_cell_length_a   5.19457579
_cell_length_b   5.49398088
_cell_length_c   10.11700344
_cell_angle_alpha   90.00000000
_cell_angle_beta   90.00000000
_cell_angle_gamma   90.00000000
_symmetry_Int_Tables_number   1
_chemical_formula_structural   MnAgOF2
_chemical_formula_sum   'Mn4 Ag4 O4 F8'
_cell_volume   288.72815026
_cell_formula_units_Z   4
loop_
 _symmetry_equiv_pos_site_id
 _symmetry_equiv_pos_as_xyz
  1  'x, y, z'
loop_
 _atom_site_type_symbol
 _atom_site_label
 _atom_site_symmetry_multiplicity
 _atom_site_fract_x
 _atom_site_fract_y
 _atom_site_fract_z
 _atom_site_occupancy
  Mn  Mn0  1  0.50000002  0.75000002  0.35649998  1
  Mn  Mn1  1  0.50000002  0.75000002  0.85649996  1
  Mn  Mn2  1  0.50000002  0.25000001  0.14349999  1
  Mn  Mn3  1  0.50000002  0.25000001  0.64349997  1
  Ag  Ag4  1  -0.00000000  0.25000001  0.89025096  1
  Ag  Ag5  1  -0.00000000  0.75000002  0.10974900  1
  Ag  Ag6  1  -0.00000000  0.25000001  0.39025098  1
  Ag  Ag7  1  -0.00000000  0.75000002  0.60974897  1
  F  F8  1  0.76755703  0.09549400  0.05378100  1
  F  F9  1  0.23244301  0.90450602  0.94621896  1
  O  O10  1  0.23244301  0.59549401  0.44621898  1
  O  O11  1  0.76755703  0.40450601  0.55378098  1
  O  O12  1  0.76755703  0.90450602  0.44621898  1
  O  O13  1  0.35433901  0.00000000  0.24999999  1
  F  F14  1  0.35433901  0.50000001  0.74999997  1
  F  F15  1  0.76755703  0.59549401  0.94621896  1
  F  F16  1  0.23244301  0.40450601  0.05378100  1
  F  F17  1  0.64566103  0.50000001  0.24999999  1
  F  F18  1  0.23244301  0.09549400  0.55378098  1
  F  F19  1  0.64566103  0.00000000  0.74999997  1
