# generated using pymatgen
data_Cs2Li5AlF8
_symmetry_space_group_name_H-M   'P 1'
_cell_length_a   6.13145590
_cell_length_b   6.71355677
_cell_length_c   8.24499226
_cell_angle_alpha   88.29416656
_cell_angle_beta   86.26235199
_cell_angle_gamma   62.82902145
_symmetry_Int_Tables_number   1
_chemical_formula_structural   Cs2Li5AlF8
_chemical_formula_sum   'Cs2 Li5 Al1 F8'
_cell_volume   301.30053417
_cell_formula_units_Z   1
loop_
 _symmetry_equiv_pos_site_id
 _symmetry_equiv_pos_as_xyz
  1  'x, y, z'
loop_
 _atom_site_type_symbol
 _atom_site_label
 _atom_site_symmetry_multiplicity
 _atom_site_fract_x
 _atom_site_fract_y
 _atom_site_fract_z
 _atom_site_occupancy
  Cs  Cs0  1  0.14813800  0.18324900  0.56736599  1
  Cs  Cs1  1  0.66861301  0.18324900  0.93263400  1
  Al  Al2  1  0.85186201  0.81675101  0.43263399  1
  Li  Li3  1  0.33138701  0.81675101  0.06736597  1
  Li  Li4  1  0.04564300  0.40097600  0.13878998  1
  Li  Li5  1  0.95435701  0.59902401  0.86120999  1
  Li  Li6  1  0.44661901  0.59902401  0.63878998  1
  Li  Li7  1  0.55338101  0.40097600  0.36121000  1
  F  F8  1  0.86567901  0.26864200  0.25000001  1
  F  F9  1  0.67912701  0.64174601  0.74999998  1
  F  F10  1  0.13432100  0.73135801  0.74999996  1
  F  F11  1  0.32087300  0.35825400  0.24999999  1
  F  F12  1  0.41980401  0.71298201  0.42149197  1
  F  F13  1  0.86721401  0.71298201  0.07850800  1
  F  F14  1  0.58019601  0.28701800  0.57850800  1
  F  F15  1  0.13278600  0.28701800  0.92149198  1
