# generated using pymatgen
data_Tb4AsSe3
_symmetry_space_group_name_H-M   'P 1'
_cell_length_a   5.75283194
_cell_length_b   5.75283194
_cell_length_c   7.28293943
_cell_angle_alpha   113.26301575
_cell_angle_beta   113.26301575
_cell_angle_gamma   90.00000000
_symmetry_Int_Tables_number   1
_chemical_formula_structural   Tb4AsSe3
_chemical_formula_sum   'Tb4 As1 Se3'
_cell_volume   199.92732843
_cell_formula_units_Z   1
loop_
 _symmetry_equiv_pos_site_id
 _symmetry_equiv_pos_as_xyz
  1  'x, y, z'
loop_
 _atom_site_type_symbol
 _atom_site_label
 _atom_site_symmetry_multiplicity
 _atom_site_fract_x
 _atom_site_fract_y
 _atom_site_fract_z
 _atom_site_occupancy
  Tb  Tb0  1  0.24999995  0.74999998  0.49999993  1
  Tb  Tb1  1  0.49999996  0.49999999  0.99999994  1
  Tb  Tb2  1  0.00000000  0.00000000  0.00000000  1
  Tb  Tb3  1  0.74999997  0.24999999  0.49999995  1
  As  As4  1  0.76324594  0.76324598  0.52649191  1
  Se  Se5  1  0.51324599  0.01324600  0.02649197  1
  Se  Se6  1  0.23675398  0.23675399  0.47350797  1
  Se  Se7  1  0.98675396  0.48675399  0.97350792  1
