# generated using pymatgen
data_Li2O2
_symmetry_space_group_name_H-M   'P 1'
_cell_length_a   5.75288153
_cell_length_b   5.75288153
_cell_length_c   7.04066420
_cell_angle_alpha   65.88642120
_cell_angle_beta   65.88642120
_cell_angle_gamma   60.00000763
_symmetry_Int_Tables_number   1
_chemical_formula_structural   Li2O2
_chemical_formula_sum   'Li8 O8'
_cell_volume   177.93121318
_cell_formula_units_Z   4
loop_
 _symmetry_equiv_pos_site_id
 _symmetry_equiv_pos_as_xyz
  1  'x, y, z'
loop_
 _atom_site_type_symbol
 _atom_site_label
 _atom_site_symmetry_multiplicity
 _atom_site_fract_x
 _atom_site_fract_y
 _atom_site_fract_z
 _atom_site_occupancy
  Li  Li0  1  0.89467398  0.47871998  0.38663403  1
  Li  Li1  1  0.23997200  0.89467397  0.38663402  1
  Li  Li2  1  0.52127999  0.76002798  0.61336602  1
  Li  Li3  1  0.10532600  0.52127998  0.61336601  1
  Li  Li4  1  0.76002798  0.10532600  0.61336601  1
  Li  Li5  1  0.47871999  0.23997199  0.38663401  1
  Li  Li6  1  0.33740199  0.33740199  0.98779400  1
  Li  Li7  1  0.66259799  0.66259798  0.01220604  1
  O  O8  1  0.93496498  0.93496497  0.19510505  1
  O  O9  1  0.06503500  0.06503500  0.80489499  1
  O  O10  1  0.90824798  0.21597799  0.25895403  1
  O  O11  1  0.21597800  0.61681998  0.25895402  1
  O  O12  1  0.09175200  0.78402198  0.74104601  1
  O  O13  1  0.38317999  0.09175200  0.74104600  1
  O  O14  1  0.78402198  0.38317999  0.74104602  1
  O  O15  1  0.61681999  0.90824797  0.25895404  1
