# generated using pymatgen
data_Li2NbO4
_symmetry_space_group_name_H-M   'P 1'
_cell_length_a   5.13667393
_cell_length_b   5.99592400
_cell_length_c   6.39876366
_cell_angle_alpha   62.06159592
_cell_angle_beta   75.52986145
_cell_angle_gamma   90.00000000
_symmetry_Int_Tables_number   1
_chemical_formula_structural   Li2NbO4
_chemical_formula_sum   'Li4 Nb2 O8'
_cell_volume   166.99802455
_cell_formula_units_Z   2
loop_
 _symmetry_equiv_pos_site_id
 _symmetry_equiv_pos_as_xyz
  1  'x, y, z'
loop_
 _atom_site_type_symbol
 _atom_site_label
 _atom_site_symmetry_multiplicity
 _atom_site_fract_x
 _atom_site_fract_y
 _atom_site_fract_z
 _atom_site_occupancy
  Li  Li0  1  0.25000003  0.87263200  -0.00000001  1
  Li  Li1  1  0.25000001  0.38231800  -0.00000001  1
  Nb  Nb2  1  0.75000003  0.61768200  0.99999995  1
  Li  Li3  1  0.75000002  0.12736800  -0.00000002  1
  Nb  Nb4  1  0.50000002  0.50000000  0.49999997  1
  Li  Li5  1  0.00000000  0.00000000  0.49999998  1
  O  O6  1  0.33159101  0.01732800  0.21496898  1
  O  O7  1  0.36054702  0.52540500  0.20489598  1
  O  O8  1  0.63945303  0.47459500  0.79510396  1
  O  O9  1  0.83159104  0.76770300  0.21496897  1
  O  O10  1  0.66840904  0.98267200  0.78503096  1
  O  O11  1  0.86054703  0.26969900  0.20489597  1
  O  O12  1  0.13945302  0.73030100  0.79510397  1
  O  O13  1  0.16840901  0.23229700  0.78503097  1
