# generated using pymatgen
data_NaMnO4
_symmetry_space_group_name_H-M   'P 1'
_cell_length_a   5.16372299
_cell_length_b   6.11930656
_cell_length_c   6.25666475
_cell_angle_alpha   108.68585205
_cell_angle_beta   91.77829742
_cell_angle_gamma   113.44018555
_symmetry_Int_Tables_number   1
_chemical_formula_structural   NaMnO4
_chemical_formula_sum   'Na2 Mn2 O8'
_cell_volume   168.94399552
_cell_formula_units_Z   2
loop_
 _symmetry_equiv_pos_site_id
 _symmetry_equiv_pos_as_xyz
  1  'x, y, z'
loop_
 _atom_site_type_symbol
 _atom_site_label
 _atom_site_symmetry_multiplicity
 _atom_site_fract_x
 _atom_site_fract_y
 _atom_site_fract_z
 _atom_site_occupancy
  Na  Na0  1  0.49999999  0.49999999  0.49999997  1
  Na  Na1  1  -0.00000001  0.49999999  -0.00000001  1
  Mn  Mn2  1  0.75629900  0.01876500  0.34154597  1
  Mn  Mn3  1  0.24370099  0.98123499  0.65845396  1
  O  O4  1  0.97569499  0.81382499  0.34068096  1
  O  O5  1  0.46991899  0.80039299  0.52613896  1
  O  O6  1  0.99563000  0.25148300  0.23143897  1
  O  O7  1  0.50907100  0.23282400  0.92484996  1
  O  O8  1  0.49092899  0.76717599  0.07514998  1
  O  O9  1  0.02430500  0.18617500  0.65931898  1
  O  O10  1  0.53008100  0.19960700  0.47386097  1
  O  O11  1  0.00436999  0.74851699  0.76856097  1
