# generated using pymatgen
data_BaNiF4
_symmetry_space_group_name_H-M   'P 1'
_cell_length_a   4.16516590
_cell_length_b   5.93465519
_cell_length_c   7.71941853
_cell_angle_alpha   90.00000000
_cell_angle_beta   105.65147400
_cell_angle_gamma   90.00000000
_symmetry_Int_Tables_number   1
_chemical_formula_structural   BaNiF4
_chemical_formula_sum   'Ba2 Ni2 F8'
_cell_volume   183.73963667
_cell_formula_units_Z   2
loop_
 _symmetry_equiv_pos_site_id
 _symmetry_equiv_pos_as_xyz
  1  'x, y, z'
loop_
 _atom_site_type_symbol
 _atom_site_label
 _atom_site_symmetry_multiplicity
 _atom_site_fract_x
 _atom_site_fract_y
 _atom_site_fract_z
 _atom_site_occupancy
  Ba  Ba0  1  0.65035502  0.14777100  0.30071001  1
  Ba  Ba1  1  0.34964501  0.64777098  0.69929000  1
  Ni  Ni2  1  0.91615403  0.18994899  0.83230801  1
  Ni  Ni3  1  0.08384600  0.68994898  0.16769200  1
  F  F4  1  0.42163002  0.20387799  0.84326000  1
  F  F5  1  0.57837002  0.70387798  0.15674001  1
  F  F6  1  0.80425703  0.37947699  0.60851401  1
  F  F7  1  0.19574301  0.87947697  0.39148600  1
  F  F8  1  0.02726800  0.00620300  0.05453600  1
  F  F9  1  0.97273204  0.50620298  0.94546402  1
  F  F10  1  0.16225301  0.42220199  0.32450600  1
  F  F11  1  0.83774703  0.92220197  0.67549401  1
