# generated using pymatgen
data_AgF4
_symmetry_space_group_name_H-M   'P 1'
_cell_length_a   3.43458509
_cell_length_b   6.14931774
_cell_length_c   6.14931774
_cell_angle_alpha   104.72359467
_cell_angle_beta   90.00000000
_cell_angle_gamma   90.00000000
_symmetry_Int_Tables_number   1
_chemical_formula_structural   AgF4
_chemical_formula_sum   'Ag1 F4'
_cell_volume   125.61106560
_cell_formula_units_Z   1
loop_
 _symmetry_equiv_pos_site_id
 _symmetry_equiv_pos_as_xyz
  1  'x, y, z'
loop_
 _atom_site_type_symbol
 _atom_site_label
 _atom_site_symmetry_multiplicity
 _atom_site_fract_x
 _atom_site_fract_y
 _atom_site_fract_z
 _atom_site_occupancy
  Ag  Ag0  1  0.49999999  0.00000000  0.00000000  1
  F  F1  1  0.49999999  0.22286199  0.77713798  1
  F  F2  1  0.99999997  0.79397798  0.79397796  1
  F  F3  1  0.99999997  0.20602200  0.20602199  1
  F  F4  1  0.49999999  0.77713798  0.22286197  1
