# generated using pymatgen
data_KMnAgPtS2
_symmetry_space_group_name_H-M   'P 1'
_cell_length_a   4.55818176
_cell_length_b   5.30551577
_cell_length_c   7.19337511
_cell_angle_alpha   111.64026642
_cell_angle_beta   108.47144318
_cell_angle_gamma   90.00000000
_symmetry_Int_Tables_number   1
_chemical_formula_structural   KMnAgPtS2
_chemical_formula_sum   'K1 Mn1 Ag1 Pt1 S2'
_cell_volume   152.01649336
_cell_formula_units_Z   1
loop_
 _symmetry_equiv_pos_site_id
 _symmetry_equiv_pos_as_xyz
  1  'x, y, z'
loop_
 _atom_site_type_symbol
 _atom_site_label
 _atom_site_symmetry_multiplicity
 _atom_site_fract_x
 _atom_site_fract_y
 _atom_site_fract_z
 _atom_site_occupancy
  K  K0  1  0.50000003  0.50000002  -0.00000000  1
  Mn  Mn1  1  0.19103801  0.19103801  0.38207601  1
  Ag  Ag2  1  0.80896205  0.80896203  0.61792402  1
  Pt  Pt3  1  0.23154902  0.73154902  0.46309800  1
  S  S4  1  0.76845105  0.26845101  0.53690203  1
  S  S5  1  0.00000000  0.00000000  0.00000000  1
