# generated using pymatgen
data_Hf4TiAl2Zn3SiPN4
_symmetry_space_group_name_H-M   'P 1'
_cell_length_a   3.04374790
_cell_length_b   3.04374886
_cell_length_c   24.94070625
_cell_angle_alpha   90.00000000
_cell_angle_beta   90.00000000
_cell_angle_gamma   119.99999237
_symmetry_Int_Tables_number   1
_chemical_formula_structural   Hf4TiAl2Zn3SiPN4
_chemical_formula_sum   'Hf4 Ti1 Al2 Zn3 Si1 P1 N4'
_cell_volume   200.10452379
_cell_formula_units_Z   1
loop_
 _symmetry_equiv_pos_site_id
 _symmetry_equiv_pos_as_xyz
  1  'x, y, z'
loop_
 _atom_site_type_symbol
 _atom_site_label
 _atom_site_symmetry_multiplicity
 _atom_site_fract_x
 _atom_site_fract_y
 _atom_site_fract_z
 _atom_site_occupancy
  Hf  Hf0  1  0.33333336  0.66666666  0.12499900  1
  Hf  Hf1  1  0.66666669  0.33333333  0.87500099  1
  Hf  Hf2  1  0.66666669  0.33333333  0.62499899  1
  Hf  Hf3  1  0.33333336  0.66666666  0.37500100  1
  Al  Al4  1  0.00000000  0.00000000  0.00000000  1
  Zn  Zn5  1  0.00000000  0.00000000  0.49999999  1
  Al  Al6  1  0.66666669  0.33333333  0.25000000  1
  Zn  Zn7  1  0.33333336  0.66666666  0.74999999  1
  P  P8  1  0.00000000  0.00000000  0.08437700  1
  Zn  Zn9  1  0.00000000  0.00000000  0.91562299  1
  N  N10  1  0.00000000  0.00000000  0.58437699  1
  Si  Si11  1  0.00000000  0.00000000  0.41562300  1
  N  N12  1  0.66666669  0.33333333  0.16561400  1
  N  N13  1  0.33333336  0.66666666  0.83438599  1
  N  N14  1  0.33333336  0.66666666  0.66561399  1
  Ti  Ti15  1  0.66666669  0.33333333  0.33438600  1
