# generated using pymatgen
data_K7Na(SiO4)2
_symmetry_space_group_name_H-M   'P 1'
_cell_length_a   6.83044004
_cell_length_b   6.91789198
_cell_length_c   9.46113682
_cell_angle_alpha   81.89135742
_cell_angle_beta   73.47456360
_cell_angle_gamma   62.45078278
_symmetry_Int_Tables_number   1
_chemical_formula_structural   K7Na(SiO4)2
_chemical_formula_sum   'K7 Na1 Si2 O8'
_cell_volume   379.97324346
_cell_formula_units_Z   1
loop_
 _symmetry_equiv_pos_site_id
 _symmetry_equiv_pos_as_xyz
  1  'x, y, z'
loop_
 _atom_site_type_symbol
 _atom_site_label
 _atom_site_symmetry_multiplicity
 _atom_site_fract_x
 _atom_site_fract_y
 _atom_site_fract_z
 _atom_site_occupancy
  K  K0  1  0.24440802  0.72479901  0.96309595  1
  K  K1  1  0.49771602  0.73157301  0.55890595  1
  K  K2  1  0.63478202  0.78803001  0.13660096  1
  K  K3  1  0.06391802  0.76165001  0.36808896  1
  K  K4  1  0.93608200  0.23835000  0.63191098  1
  K  K5  1  0.36521800  0.21197000  0.86339898  1
  K  K6  1  0.50228401  0.26842700  0.44109398  1
  Na  Na7  1  0.75559200  0.27520100  0.03690398  1
  Si  Si8  1  0.85940302  0.76427001  0.74811495  1
  Si  Si9  1  0.14059701  0.23573000  0.25188498  1
  O  O10  1  0.85163202  0.92201801  0.87105694  1
  O  O11  1  0.72953802  0.93435501  0.62243094  1
  O  O12  1  0.71007001  0.62577701  0.83181996  1
  O  O13  1  0.87087201  0.40734401  0.33159697  1
  O  O14  1  0.12912802  0.59265601  0.66840296  1
  O  O15  1  0.28993001  0.37422300  0.16817998  1
  O  O16  1  0.27046200  0.06564500  0.37756899  1
  O  O17  1  0.14836800  0.07798200  0.12894299  1
