# generated using pymatgen
data_NaLiCaC4
_symmetry_space_group_name_H-M   'P 1'
_cell_length_a   4.76639223
_cell_length_b   5.31426382
_cell_length_c   5.31426334
_cell_angle_alpha   120.00000000
_cell_angle_beta   90.00000000
_cell_angle_gamma   90.00000000
_symmetry_Int_Tables_number   1
_chemical_formula_structural   NaLiCaC4
_chemical_formula_sum   'Na1 Li1 Ca1 C4'
_cell_volume   116.57531350
_cell_formula_units_Z   1
loop_
 _symmetry_equiv_pos_site_id
 _symmetry_equiv_pos_as_xyz
  1  'x, y, z'
loop_
 _atom_site_type_symbol
 _atom_site_label
 _atom_site_symmetry_multiplicity
 _atom_site_fract_x
 _atom_site_fract_y
 _atom_site_fract_z
 _atom_site_occupancy
  Ca  Ca0  1  0.99999995  0.33333333  0.66666666  1
  Na  Na1  1  0.49999998  0.66666667  0.33333330  1
  Li  Li2  1  0.49999998  0.00000000  0.00000000  1
  C  C3  1  0.49999998  0.14161000  0.85839101  1
  C  C4  1  0.49999998  0.14161000  0.28322000  1
  C  C5  1  0.49999998  0.71678100  0.85839097  1
  C  C6  1  0.99999995  0.66666667  0.33333330  1
