# generated using pymatgen
data_Rb3LiBe2F8
_symmetry_space_group_name_H-M   'P 1'
_cell_length_a   5.55838394
_cell_length_b   5.55838442
_cell_length_c   8.03265762
_cell_angle_alpha   90.00000000
_cell_angle_beta   90.00000000
_cell_angle_gamma   120.00000000
_symmetry_Int_Tables_number   1
_chemical_formula_structural   Rb3LiBe2F8
_chemical_formula_sum   'Rb3 Li1 Be2 F8'
_cell_volume   214.92503666
_cell_formula_units_Z   1
loop_
 _symmetry_equiv_pos_site_id
 _symmetry_equiv_pos_as_xyz
  1  'x, y, z'
loop_
 _atom_site_type_symbol
 _atom_site_label
 _atom_site_symmetry_multiplicity
 _atom_site_fract_x
 _atom_site_fract_y
 _atom_site_fract_z
 _atom_site_occupancy
  Rb  Rb0  1  0.00000000  0.00000000  0.50000002  1
  Rb  Rb1  1  0.66666668  0.33333333  0.75150204  1
  Rb  Rb2  1  0.33333335  0.66666665  0.24849801  1
  Li  Li3  1  0.00000000  0.00000000  0.00000000  1
  Be  Be4  1  0.66666668  0.33333333  0.21737801  1
  Be  Be5  1  0.33333335  0.66666665  0.78262204  1
  F  F6  1  0.63891503  0.81945698  0.84918804  1
  F  F7  1  0.18054202  0.81945698  0.84918804  1
  F  F8  1  0.18054201  0.36108399  0.84918804  1
  F  F9  1  0.36108501  0.18054300  0.15081201  1
  F  F10  1  0.81945801  0.18054300  0.15081201  1
  F  F11  1  0.81945803  0.63891599  0.15081201  1
  F  F12  1  0.33333335  0.66666665  0.59239003  1
  F  F13  1  0.66666668  0.33333333  0.40761002  1
