# generated using pymatgen
data_Sr3Nb2O6
_symmetry_space_group_name_H-M   'P 1'
_cell_length_a   4.15868616
_cell_length_b   4.15868616
_cell_length_c   10.82990456
_cell_angle_alpha   101.06953430
_cell_angle_beta   101.06953430
_cell_angle_gamma   90.00000000
_symmetry_Int_Tables_number   1
_chemical_formula_structural   Sr3Nb2O6
_chemical_formula_sum   'Sr3 Nb2 O6'
_cell_volume   180.26282085
_cell_formula_units_Z   1
loop_
 _symmetry_equiv_pos_site_id
 _symmetry_equiv_pos_as_xyz
  1  'x, y, z'
loop_
 _atom_site_type_symbol
 _atom_site_label
 _atom_site_symmetry_multiplicity
 _atom_site_fract_x
 _atom_site_fract_y
 _atom_site_fract_z
 _atom_site_occupancy
  Sr  Sr0  1  0.31887699  0.31887699  0.63775399  1
  Sr  Sr1  1  0.49862899  0.49862898  0.99725799  1
  Sr  Sr2  1  0.68229999  0.68229998  0.36460001  1
  Nb  Nb3  1  0.90043298  0.90043297  0.80086600  1
  Nb  Nb4  1  0.09808600  0.09808600  0.19617200  1
  O  O5  1  0.91993198  0.41993199  0.83986400  1
  O  O6  1  0.41993200  0.91993197  0.83986400  1
  O  O7  1  0.07964601  0.57964598  0.15929200  1
  O  O8  1  0.57964598  0.07964600  0.15929200  1
  O  O9  1  0.80445498  0.80445497  0.60891001  1
  O  O10  1  0.19806200  0.19806199  0.39612399  1
