# generated using pymatgen
data_MoW3(Se3S)2
_symmetry_space_group_name_H-M   'P 1'
_cell_length_a   3.28650594
_cell_length_b   3.28650546
_cell_length_c   37.40032196
_cell_angle_alpha   90.00000000
_cell_angle_beta   90.00000000
_cell_angle_gamma   120.00000763
_symmetry_Int_Tables_number   1
_chemical_formula_structural   MoW3(Se3S)2
_chemical_formula_sum   'Mo1 W3 Se6 S2'
_cell_volume   349.84423253
_cell_formula_units_Z   1
loop_
 _symmetry_equiv_pos_site_id
 _symmetry_equiv_pos_as_xyz
  1  'x, y, z'
loop_
 _atom_site_type_symbol
 _atom_site_label
 _atom_site_symmetry_multiplicity
 _atom_site_fract_x
 _atom_site_fract_y
 _atom_site_fract_z
 _atom_site_occupancy
  Mo  Mo0  1  0.00000000  0.00000000  0.53034301  1
  W  W1  1  0.00000000  0.00000000  0.90608203  1
  W  W2  1  0.66666669  0.33333333  0.71820802  1
  W  W3  1  0.66666669  0.33333333  0.34245501  1
  Se  Se4  1  0.00000000  0.00000000  0.67285102  1
  Se  Se5  1  0.00000000  0.00000000  0.29709301  1
  Se  Se6  1  0.66666669  0.33333333  0.57541202  1
  Se  Se7  1  0.66666669  0.33333333  0.48525501  1
  Se  Se8  1  0.00000000  0.00000000  0.76356102  1
  Se  Se9  1  0.00000000  0.00000000  0.38783501  1
  S  S10  1  0.66666669  0.33333333  0.94726303  1
  S  S11  1  0.66666669  0.33333333  0.86489502  1
