# generated using pymatgen
data_KTlBr2
_symmetry_space_group_name_H-M   'P 1'
_cell_length_a   4.47130203
_cell_length_b   7.78032923
_cell_length_c   10.10694790
_cell_angle_alpha   90.00000000
_cell_angle_beta   90.00000000
_cell_angle_gamma   106.69916534
_symmetry_Int_Tables_number   1
_chemical_formula_structural   KTlBr2
_chemical_formula_sum   'K2 Tl2 Br4'
_cell_volume   336.77429768
_cell_formula_units_Z   2
loop_
 _symmetry_equiv_pos_site_id
 _symmetry_equiv_pos_as_xyz
  1  'x, y, z'
loop_
 _atom_site_type_symbol
 _atom_site_label
 _atom_site_symmetry_multiplicity
 _atom_site_fract_x
 _atom_site_fract_y
 _atom_site_fract_z
 _atom_site_occupancy
  K  K0  1  0.76192499  0.52385001  0.50000001  1
  K  K1  1  0.23586899  0.47173801  1.00000001  1
  Tl  Tl2  1  0.84924198  0.69848401  0.20465500  1
  Tl  Tl3  1  0.15332399  0.30664800  0.32564700  1
  Br  Br4  1  0.84924198  0.69848401  0.79534501  1
  Br  Br5  1  0.15332399  0.30664800  0.67435301  1
  Br  Br6  1  0.58638299  0.17276600  1.00000001  1
  Br  Br7  1  0.41279198  0.82558401  0.50000001  1
