# generated using pymatgen
data_Na3CaTi4O12
_symmetry_space_group_name_H-M   'P 1'
_cell_length_a   5.45427084
_cell_length_b   5.52702808
_cell_length_c   7.69558477
_cell_angle_alpha   90.00000000
_cell_angle_beta   90.00000000
_cell_angle_gamma   90.00000000
_symmetry_Int_Tables_number   1
_chemical_formula_structural   Na3CaTi4O12
_chemical_formula_sum   'Na3 Ca1 Ti4 O12'
_cell_volume   231.99039143
_cell_formula_units_Z   1
loop_
 _symmetry_equiv_pos_site_id
 _symmetry_equiv_pos_as_xyz
  1  'x, y, z'
loop_
 _atom_site_type_symbol
 _atom_site_label
 _atom_site_symmetry_multiplicity
 _atom_site_fract_x
 _atom_site_fract_y
 _atom_site_fract_z
 _atom_site_occupancy
  Na  Na0  1  0.50659601  0.29255100  0.50000001  1
  Na  Na1  1  0.00659600  0.70744899  0.00000000  1
  Na  Na2  1  0.98981303  0.79430699  0.50000001  1
  Ca  Ca3  1  0.48981301  0.20569300  0.00000000  1
  Ti  Ti4  1  0.99967403  0.25207500  0.74982502  1
  Ti  Ti5  1  0.49967401  0.74792499  0.24982501  1
  Ti  Ti6  1  0.99967403  0.25207500  0.25017501  1
  Ti  Ti7  1  0.49967401  0.74792499  0.75017502  1
  O  O8  1  0.42316601  0.73128799  0.50000001  1
  O  O9  1  0.07713000  0.23065100  0.50000001  1
  O  O10  1  0.57713002  0.76934899  0.00000000  1
  O  O11  1  0.92316603  0.26871200  0.00000000  1
  O  O12  1  0.79104402  0.54135299  0.71130902  1
  O  O13  1  0.71093002  0.03911800  0.29181901  1
  O  O14  1  0.21093001  0.96088199  0.20818101  1
  O  O15  1  0.29104401  0.45864699  0.78869102  1
  O  O16  1  0.21093001  0.96088199  0.79181902  1
  O  O17  1  0.29104401  0.45864699  0.21130901  1
  O  O18  1  0.79104402  0.54135299  0.28869101  1
  O  O19  1  0.71093002  0.03911800  0.70818102  1
