# generated using pymatgen
data_KTlTe
_symmetry_space_group_name_H-M   'P 1'
_cell_length_a   4.83163214
_cell_length_b   4.83163214
_cell_length_c   12.00515079
_cell_angle_alpha   78.39101410
_cell_angle_beta   78.39101410
_cell_angle_gamma   60.00000000
_symmetry_Int_Tables_number   1
_chemical_formula_structural   KTlTe
_chemical_formula_sum   'K1 Tl1 Te1'
_cell_volume   236.06594315
_cell_formula_units_Z   1
loop_
 _symmetry_equiv_pos_site_id
 _symmetry_equiv_pos_as_xyz
  1  'x, y, z'
loop_
 _atom_site_type_symbol
 _atom_site_label
 _atom_site_symmetry_multiplicity
 _atom_site_fract_x
 _atom_site_fract_y
 _atom_site_fract_z
 _atom_site_occupancy
  Tl  Tl0  1  0.00000000  0.00000000  0.00000000  1
  K  K1  1  0.22229500  0.22229499  0.33311502  1
  Te  Te2  1  0.77770499  0.77770498  0.66688505  1
