# generated using pymatgen
data_Cs2O2
_symmetry_space_group_name_H-M   'P 1'
_cell_length_a   7.87690401
_cell_length_b   7.87690496
_cell_length_c   10.34961700
_cell_angle_alpha   90.00000000
_cell_angle_beta   90.00000000
_cell_angle_gamma   120.00000000
_symmetry_Int_Tables_number   1
_chemical_formula_structural   Cs2O2
_chemical_formula_sum   'Cs9 O9'
_cell_volume   556.11686929
_cell_formula_units_Z   4
loop_
 _symmetry_equiv_pos_site_id
 _symmetry_equiv_pos_as_xyz
  1  'x, y, z'
loop_
 _atom_site_type_symbol
 _atom_site_label
 _atom_site_symmetry_multiplicity
 _atom_site_fract_x
 _atom_site_fract_y
 _atom_site_fract_z
 _atom_site_occupancy
  Cs  Cs0  1  0.50032100  0.00064200  0.76151800  1
  Cs  Cs1  1  0.49967904  0.50032001  0.26151800  1
  Cs  Cs2  1  0.49967907  0.99935803  0.26151800  1
  Cs  Cs3  1  0.99935904  0.49968001  0.76151800  1
  Cs  Cs4  1  0.50032104  0.49968001  0.76151800  1
  Cs  Cs5  1  0.00064104  0.50032001  0.26151800  1
  Cs  Cs6  1  0.00000000  0.00000000  0.76668100  1
  Cs  Cs7  1  0.00000000  0.00000000  0.26668100  1
  Cs  Cs8  1  0.15100706  0.84899302  0.63954000  1
  O  O9  1  0.66666669  0.33333334  0.88885400  1
  O  O10  1  0.84899305  0.69798602  0.13954000  1
  O  O11  1  0.84899301  0.15100700  0.13954000  1
  O  O12  1  0.30201401  0.15100700  0.13954000  1
  O  O13  1  0.15100702  0.30201401  0.63954000  1
  O  O14  1  0.33333338  0.66666669  0.38885400  1
  O  O15  1  0.69798606  0.84899302  0.63954000  1
  O  O16  1  0.66666669  0.33333334  0.45719100  1
  O  O17  1  0.33333338  0.66666669  0.95719100  1
