# generated using pymatgen
data_Mg2BO5
_symmetry_space_group_name_H-M   'P 1'
_cell_length_a   5.25405598
_cell_length_b   5.25405598
_cell_length_c   7.10237455
_cell_angle_alpha   111.70822906
_cell_angle_beta   111.70822906
_cell_angle_gamma   90.00000000
_symmetry_Int_Tables_number   1
_chemical_formula_structural   Mg2BO5
_chemical_formula_sum   'Mg4 B2 O10'
_cell_volume   167.09909096
_cell_formula_units_Z   2
loop_
 _symmetry_equiv_pos_site_id
 _symmetry_equiv_pos_as_xyz
  1  'x, y, z'
loop_
 _atom_site_type_symbol
 _atom_site_label
 _atom_site_symmetry_multiplicity
 _atom_site_fract_x
 _atom_site_fract_y
 _atom_site_fract_z
 _atom_site_occupancy
  Mg  Mg0  1  0.37499996  0.62499999  0.74999993  1
  Mg  Mg1  1  0.87499996  0.62499999  0.24999992  1
  Mg  Mg2  1  0.37499996  0.62499999  0.24999994  1
  Mg  Mg3  1  0.37499999  0.12500000  0.74999996  1
  B  B4  1  0.00000000  0.00000000  0.00000000  1
  B  B5  1  0.74999998  0.24999999  0.49999994  1
  O  O6  1  0.24999996  0.74999998  0.49999994  1
  O  O7  1  0.49999997  0.49999999  0.99999993  1
  O  O8  1  0.06661898  0.28831199  0.13323698  1
  O  O9  1  0.59492497  0.31661799  0.63323694  1
  O  O10  1  0.03831198  0.31661899  0.63323797  1
  O  O11  1  0.06661896  0.84492598  0.13323795  1
  O  O12  1  0.68338094  0.96168798  0.36676291  1
  O  O13  1  0.15507495  0.93338198  0.86676292  1
  O  O14  1  0.71168794  0.93338098  0.86676190  1
  O  O15  1  0.68338097  0.40507399  0.36676194  1
