# generated using pymatgen
data_Rb3YO3
_symmetry_space_group_name_H-M   'P 1'
_cell_length_a   7.23968554
_cell_length_b   7.30107498
_cell_length_c   7.30107498
_cell_angle_alpha   63.89458847
_cell_angle_beta   85.14542389
_cell_angle_gamma   94.85457611
_symmetry_Int_Tables_number   1
_chemical_formula_structural   Rb3YO3
_chemical_formula_sum   'Rb6 Y2 O6'
_cell_volume   342.08677131
_cell_formula_units_Z   2
loop_
 _symmetry_equiv_pos_site_id
 _symmetry_equiv_pos_as_xyz
  1  'x, y, z'
loop_
 _atom_site_type_symbol
 _atom_site_label
 _atom_site_symmetry_multiplicity
 _atom_site_fract_x
 _atom_site_fract_y
 _atom_site_fract_z
 _atom_site_occupancy
  Rb  Rb0  1  0.50000006  0.79577300  0.79577294  1
  Rb  Rb1  1  1.00000006  0.73911300  0.73911292  1
  Rb  Rb2  1  0.64353503  0.36397800  0.63602195  1
  Rb  Rb3  1  0.35646505  0.63602200  0.36397796  1
  Rb  Rb4  1  1.00000002  0.26088700  0.26088694  1
  Rb  Rb5  1  0.50000002  0.20422700  0.20422697  1
  Y  Y6  1  0.14882001  0.17628300  0.82371697  1
  Y  Y7  1  0.85118006  0.82371700  0.17628293  1
  O  O8  1  0.26744203  0.44267800  0.83399996  1
  O  O9  1  0.84442201  0.10169800  0.89830194  1
  O  O10  1  0.73255806  0.83400000  0.44267793  1
  O  O11  1  0.26744201  0.16600000  0.55732197  1
  O  O12  1  0.15557807  0.89830200  0.10169796  1
  O  O13  1  0.73255804  0.55732200  0.16599994  1
