# generated using pymatgen
data_Cs2Si(HO2)2
_symmetry_space_group_name_H-M   'P 1'
_cell_length_a   6.01749992
_cell_length_b   6.26392126
_cell_length_c   8.84639072
_cell_angle_alpha   76.53016663
_cell_angle_beta   71.13569641
_cell_angle_gamma   86.39315796
_symmetry_Int_Tables_number   1
_chemical_formula_structural   Cs2Si(HO2)2
_chemical_formula_sum   'Cs4 Si2 H4 O8'
_cell_volume   306.83030994
_cell_formula_units_Z   2
loop_
 _symmetry_equiv_pos_site_id
 _symmetry_equiv_pos_as_xyz
  1  'x, y, z'
loop_
 _atom_site_type_symbol
 _atom_site_label
 _atom_site_symmetry_multiplicity
 _atom_site_fract_x
 _atom_site_fract_y
 _atom_site_fract_z
 _atom_site_occupancy
  Cs  Cs0  1  0.58775200  0.15130700  0.29254100  1
  Cs  Cs1  1  0.41224794  0.84869301  0.70745903  1
  Cs  Cs2  1  0.76099396  0.73708101  0.02724802  1
  Cs  Cs3  1  0.23900598  0.26291900  0.97275202  1
  Si  Si4  1  0.12600695  0.65517401  0.28437703  1
  Si  Si5  1  0.87399299  0.34482600  0.71562301  1
  H  H6  1  0.29975897  0.50469201  0.46828502  1
  H  H7  1  0.70024097  0.49530801  0.53171501  1
  H  H8  1  0.94881796  0.69718201  0.58961602  1
  H  H9  1  0.05118198  0.30281800  0.41038402  1
  O  O10  1  0.35225396  0.62167901  0.36659902  1
  O  O11  1  0.64774598  0.37832101  0.63340101  1
  O  O12  1  0.05905597  0.38775501  0.29616702  1
  O  O13  1  0.94094397  0.61224501  0.70383302  1
  O  O14  1  0.90201396  0.76233701  0.40038802  1
  O  O15  1  0.09798598  0.23766300  0.59961201  1
  O  O16  1  0.23151194  0.77383701  0.09243603  1
  O  O17  1  0.76848800  0.22616300  0.90756401  1
