# generated using pymatgen
data_Be2H7C(O4F)2
_symmetry_space_group_name_H-M   'P 1'
_cell_length_a   4.04955101
_cell_length_b   6.94446230
_cell_length_c   6.94446230
_cell_angle_alpha   113.35006714
_cell_angle_beta   90.00000000
_cell_angle_gamma   90.00000000
_symmetry_Int_Tables_number   1
_chemical_formula_structural   Be2H7C(O4F)2
_chemical_formula_sum   'Be2 H7 C1 O8 F2'
_cell_volume   179.29752481
_cell_formula_units_Z   1
loop_
 _symmetry_equiv_pos_site_id
 _symmetry_equiv_pos_as_xyz
  1  'x, y, z'
loop_
 _atom_site_type_symbol
 _atom_site_label
 _atom_site_symmetry_multiplicity
 _atom_site_fract_x
 _atom_site_fract_y
 _atom_site_fract_z
 _atom_site_occupancy
  Be  Be0  1  0.96250200  0.25000000  0.75000000  1
  Be  Be1  1  0.03749800  0.75000000  0.24999996  1
  H  H2  1  0.64713800  0.11759600  0.22193500  1
  H  H3  1  0.35286200  0.22193500  0.11759599  1
  H  H4  1  0.64713800  0.38240400  0.27806498  1
  H  H5  1  0.35286200  0.27806500  0.38240399  1
  H  H6  1  0.74214200  0.10509000  0.60509000  1
  C  C7  1  0.25785800  0.60509000  0.10508997  1
  H  H8  1  0.74214200  0.39491000  0.89490999  1
  O  O9  1  0.25785800  0.89491000  0.39490996  1
  O  O10  1  0.64713800  0.72193500  0.61759597  1
  H  H11  1  0.35286200  0.61759600  0.72193498  1
  O  O12  1  0.35286200  0.88240400  0.77806497  1
  O  O13  1  0.64713800  0.77806500  0.88240397  1
  O  O14  1  0.50000000  0.25000000  0.24999999  1
  O  O15  1  0.50000000  0.75000000  0.74999997  1
  O  O16  1  0.15248900  0.13644100  0.86355901  1
  F  F17  1  0.84751100  0.86355900  0.13644096  1
  O  O18  1  0.15248900  0.36355900  0.63644099  1
  F  F19  1  0.84751100  0.63644100  0.36355897  1
