# generated using pymatgen
data_Ba3NbTeO9
_symmetry_space_group_name_H-M   'P 1'
_cell_length_a   6.00334358
_cell_length_b   6.00334358
_cell_length_c   7.96196461
_cell_angle_alpha   67.85193634
_cell_angle_beta   67.85193634
_cell_angle_gamma   60.00000381
_symmetry_Int_Tables_number   1
_chemical_formula_structural   Ba3NbTeO9
_chemical_formula_sum   'Ba3 Nb1 Te1 O9'
_cell_volume   223.72370387
_cell_formula_units_Z   1
loop_
 _symmetry_equiv_pos_site_id
 _symmetry_equiv_pos_as_xyz
  1  'x, y, z'
loop_
 _atom_site_type_symbol
 _atom_site_label
 _atom_site_symmetry_multiplicity
 _atom_site_fract_x
 _atom_site_fract_y
 _atom_site_fract_z
 _atom_site_occupancy
  Ba  Ba0  1  0.21464701  0.21464700  0.35605900  1
  Ba  Ba1  1  0.99926203  0.99926202  0.00221396  1
  Ba  Ba2  1  0.79235103  0.79235101  0.62294697  1
  Nb  Nb3  1  0.39070301  0.39070301  0.82789099  1
  Te  Te4  1  0.60423202  0.60423201  0.18730398  1
  O  O5  1  0.77230702  0.26534000  0.69701299  1
  O  O6  1  0.26534001  0.77230701  0.69701299  1
  O  O7  1  0.26534001  0.26534000  0.69701300  1
  O  O8  1  0.21802101  0.73455201  0.31287498  1
  O  O9  1  0.73455202  0.21802100  0.31287498  1
  O  O10  1  0.73455202  0.73455201  0.31287497  1
  O  O11  1  0.51021402  0.98826302  0.99130898  1
  O  O12  1  0.51021402  0.51021401  0.99130899  1
  O  O13  1  0.98826303  0.51021401  0.99130898  1
