# generated using pymatgen
data_K2PN5
_symmetry_space_group_name_H-M   'P 1'
_cell_length_a   5.88167620
_cell_length_b   6.46819830
_cell_length_c   7.82344294
_cell_angle_alpha   90.00000000
_cell_angle_beta   90.00000000
_cell_angle_gamma   117.04312897
_symmetry_Int_Tables_number   1
_chemical_formula_structural   K2PN5
_chemical_formula_sum   'K4 P2 N10'
_cell_volume   265.09193538
_cell_formula_units_Z   2
loop_
 _symmetry_equiv_pos_site_id
 _symmetry_equiv_pos_as_xyz
  1  'x, y, z'
loop_
 _atom_site_type_symbol
 _atom_site_label
 _atom_site_symmetry_multiplicity
 _atom_site_fract_x
 _atom_site_fract_y
 _atom_site_fract_z
 _atom_site_occupancy
  K  K0  1  0.15883100  0.31766201  0.44025900  1
  K  K1  1  0.84116898  0.68233802  0.55974100  1
  K  K2  1  0.34116899  0.68233802  0.94025901  1
  K  K3  1  0.65883098  0.31766201  0.05974100  1
  P  P4  1  0.44905499  0.89811003  0.36449900  1
  P  P5  1  0.55094498  0.10189000  0.63550101  1
  N  N6  1  0.05094500  0.10189000  0.86449901  1
  N  N7  1  0.94905498  0.89811003  0.13550100  1
  N  N8  1  0.10648200  0.21296401  0.08921300  1
  N  N9  1  0.89351798  0.78703602  0.91078701  1
  N  N10  1  0.39351799  0.78703602  0.58921300  1
  N  N11  1  0.60648198  0.21296401  0.41078700  1
  N  N12  1  0.65734898  0.81469803  0.25000000  1
  N  N13  1  0.84265097  0.18530201  0.75000001  1
  N  N14  1  0.34265099  0.18530201  0.75000001  1
  N  N15  1  0.15734900  0.81469803  0.25000000  1
