# generated using pymatgen
data_Al2CrP
_symmetry_space_group_name_H-M   'P 1'
_cell_length_a   3.99663806
_cell_length_b   3.99663711
_cell_length_c   6.58677101
_cell_angle_alpha   90.00000000
_cell_angle_beta   90.00000000
_cell_angle_gamma   120.00000763
_symmetry_Int_Tables_number   1
_chemical_formula_structural   Al2CrP
_chemical_formula_sum   'Al2 Cr1 P1'
_cell_volume   91.11559169
_cell_formula_units_Z   1
loop_
 _symmetry_equiv_pos_site_id
 _symmetry_equiv_pos_as_xyz
  1  'x, y, z'
loop_
 _atom_site_type_symbol
 _atom_site_label
 _atom_site_symmetry_multiplicity
 _atom_site_fract_x
 _atom_site_fract_y
 _atom_site_fract_z
 _atom_site_occupancy
  Al  Al0  1  0.00000000  0.00000000  0.99956700  1
  Al  Al1  1  0.66666666  0.33333333  0.49956900  1
  P  P2  1  0.00000000  0.00000000  0.62543200  1
  Cr  Cr3  1  0.66666666  0.33333333  0.12543100  1
