# generated using pymatgen
data_LiCoPO4F
_symmetry_space_group_name_H-M   'P 1'
_cell_length_a   5.23121262
_cell_length_b   5.58728790
_cell_length_c   7.38361835
_cell_angle_alpha   107.13854218
_cell_angle_beta   107.01805115
_cell_angle_gamma   96.90002441
_symmetry_Int_Tables_number   1
_chemical_formula_structural   LiCoPO4F
_chemical_formula_sum   'Li2 Co2 P2 O8 F2'
_cell_volume   192.10153643
_cell_formula_units_Z   2
loop_
 _symmetry_equiv_pos_site_id
 _symmetry_equiv_pos_as_xyz
  1  'x, y, z'
loop_
 _atom_site_type_symbol
 _atom_site_label
 _atom_site_symmetry_multiplicity
 _atom_site_fract_x
 _atom_site_fract_y
 _atom_site_fract_z
 _atom_site_occupancy
  Li  Li0  1  0.73167100  0.37422699  0.20852600  1
  Li  Li1  1  0.24903097  0.60276398  0.71168298  1
  Co  Co2  1  0.00339993  0.99779397  0.99786396  1
  Co  Co3  1  0.99576696  0.99825997  0.49632698  1
  P  P4  1  0.67343999  0.37220099  0.75271199  1
  P  P5  1  0.32721497  0.63044398  0.24994299  1
  O  O6  1  0.88692600  0.34843299  0.65457500  1
  O  O7  1  0.11523496  0.64302598  0.35196098  1
  O  O8  1  0.72846400  0.24742399  0.90835699  1
  O  O9  1  0.26970495  0.76488098  0.10265998  1
  O  O10  1  0.67512897  0.64909898  0.84729598  1
  O  O11  1  0.32220898  0.35458499  0.14601699  1
  O  O12  1  0.39433099  0.25625899  0.59897699  1
  O  O13  1  0.60591297  0.74191698  0.40351098  1
  F  F14  1  0.87949602  0.08815600  0.24173301  1
  F  F15  1  0.12006494  0.90953297  0.75185796  1
