# generated using pymatgen
data_K3Na3Re2F12
_symmetry_space_group_name_H-M   'P 1'
_cell_length_a   5.98407936
_cell_length_b   5.98407936
_cell_length_c   8.68068790
_cell_angle_alpha   90.00000000
_cell_angle_beta   90.00000000
_cell_angle_gamma   90.00000000
_symmetry_Int_Tables_number   1
_chemical_formula_structural   K3Na3Re2F12
_chemical_formula_sum   'K3 Na3 Re2 F12'
_cell_volume   310.84853964
_cell_formula_units_Z   1
loop_
 _symmetry_equiv_pos_site_id
 _symmetry_equiv_pos_as_xyz
  1  'x, y, z'
loop_
 _atom_site_type_symbol
 _atom_site_label
 _atom_site_symmetry_multiplicity
 _atom_site_fract_x
 _atom_site_fract_y
 _atom_site_fract_z
 _atom_site_occupancy
  K  K0  1  0.49999999  0.00000000  0.25000001  1
  K  K1  1  -0.00000000  0.49999999  0.75000002  1
  K  K2  1  0.00000000  0.00000000  0.00000000  1
  Na  Na3  1  0.49999999  0.49999999  0.50000001  1
  Na  Na4  1  -0.00000000  0.49999999  0.25000001  1
  Na  Na5  1  0.49999999  0.00000000  0.75000002  1
  Re  Re6  1  0.00000000  0.00000000  0.50000001  1
  Re  Re7  1  0.49999999  0.49999999  0.00000000  1
  F  F8  1  0.00000000  0.00000000  0.26829685  1
  F  F9  1  0.49999999  0.49999999  0.23170317  1
  F  F10  1  0.00000000  0.00000000  0.73170318  1
  F  F11  1  0.49999999  0.49999999  0.76829686  1
  F  F12  1  0.34371441  0.20158483  0.99825964  1
  F  F13  1  0.65628557  0.79841515  0.99825964  1
  F  F14  1  0.79841515  0.34371441  0.00174038  1
  F  F15  1  0.20158483  0.65628557  0.00174038  1
  F  F16  1  0.84371440  0.29841516  0.49825963  1
  F  F17  1  0.15628558  0.70158481  0.49825963  1
  F  F18  1  0.29841516  0.15628558  0.50174039  1
  F  F19  1  0.70158481  0.84371440  0.50174039  1
