# generated using pymatgen
data_SrLaMgBiO6
_symmetry_space_group_name_H-M   'P 1'
_cell_length_a   5.74771023
_cell_length_b   5.80273724
_cell_length_c   8.14365387
_cell_angle_alpha   90.00000000
_cell_angle_beta   90.00000000
_cell_angle_gamma   89.95083618
_symmetry_Int_Tables_number   1
_chemical_formula_structural   SrLaMgBiO6
_chemical_formula_sum   'Sr2 La2 Mg2 Bi2 O12'
_cell_volume   271.61072612
_cell_formula_units_Z   2
loop_
 _symmetry_equiv_pos_site_id
 _symmetry_equiv_pos_as_xyz
  1  'x, y, z'
loop_
 _atom_site_type_symbol
 _atom_site_label
 _atom_site_symmetry_multiplicity
 _atom_site_fract_x
 _atom_site_fract_y
 _atom_site_fract_z
 _atom_site_occupancy
  Sr  Sr0  1  0.00546597  0.96730698  1.00000002  1
  Sr  Sr1  1  0.50785097  0.53061999  0.50000001  1
  La  La2  1  0.99076696  0.03700600  0.50000001  1
  La  La3  1  0.48944997  0.45333399  0.00000000  1
  Mg  Mg4  1  0.50036295  0.99851998  0.24770000  1
  Mg  Mg5  1  0.99907495  0.50035699  0.75274501  1
  Bi  Bi6  1  0.50036295  0.99851998  0.75230001  1
  Bi  Bi7  1  0.99907495  0.50035699  0.24725500  1
  O  O8  1  0.21525799  0.21623700  0.20627500  1
  O  O9  1  0.29521597  0.70555199  0.80017101  1
  O  O10  1  0.79209795  0.79025299  0.71040601  1
  O  O11  1  0.71290896  0.28553000  0.29111800  1
  O  O12  1  0.79209795  0.79025299  0.28959400  1
  O  O13  1  0.71290896  0.28553000  0.70888201  1
  O  O14  1  0.21525799  0.21623700  0.79372501  1
  O  O15  1  0.29521597  0.70555199  0.19982900  1
  O  O16  1  0.57661998  0.03766100  1.00000002  1
  O  O17  1  0.90171595  0.51865399  0.00000000  1
  O  O18  1  0.42226996  0.97811498  0.50000001  1
  O  O19  1  0.07602098  0.48440599  0.50000001  1
