# generated using pymatgen
data_CaAl(GaS2)4
_symmetry_space_group_name_H-M   'P 1'
_cell_length_a   5.96482992
_cell_length_b   6.08931017
_cell_length_c   10.68144989
_cell_angle_alpha   90.00000000
_cell_angle_beta   90.00000000
_cell_angle_gamma   119.32604218
_symmetry_Int_Tables_number   1
_chemical_formula_structural   CaAl(GaS2)4
_chemical_formula_sum   'Ca1 Al1 Ga4 S8'
_cell_volume   338.24899909
_cell_formula_units_Z   1
loop_
 _symmetry_equiv_pos_site_id
 _symmetry_equiv_pos_as_xyz
  1  'x, y, z'
loop_
 _atom_site_type_symbol
 _atom_site_label
 _atom_site_symmetry_multiplicity
 _atom_site_fract_x
 _atom_site_fract_y
 _atom_site_fract_z
 _atom_site_occupancy
  Ca  Ca0  1  0.49999996  0.99999995  0.25000000  1
  Al  Al1  1  0.49999996  0.99999995  0.75000001  1
  Ga  Ga2  1  0.23812198  0.47855198  0.50000001  1
  Ga  Ga3  1  0.76187799  0.52144797  0.50000001  1
  Ga  Ga4  1  0.24042998  0.47855198  0.00000000  1
  Ga  Ga5  1  0.75956999  0.52144797  0.00000000  1
  S  S6  1  0.64470197  0.82298396  0.50000001  1
  S  S7  1  0.35529800  0.17701599  0.50000001  1
  S  S8  1  0.17828197  0.82298396  1.00000001  1
  S  S9  1  0.82171800  0.17701599  1.00000001  1
  S  S10  1  0.49999998  0.49999998  0.16104300  1
  S  S11  1  -0.00000002  0.49999998  0.33895700  1
  S  S12  1  0.49999998  0.49999998  0.83895701  1
  S  S13  1  -0.00000002  0.49999998  0.66104301  1
