# generated using pymatgen
data_TaCu(HgSe2)2
_symmetry_space_group_name_H-M   'P 1'
_cell_length_a   4.32798910
_cell_length_b   9.82333469
_cell_length_c   10.30739880
_cell_angle_alpha   90.00000000
_cell_angle_beta   90.00000000
_cell_angle_gamma   90.00000000
_symmetry_Int_Tables_number   1
_chemical_formula_structural   TaCu(HgSe2)2
_chemical_formula_sum   'Ta2 Cu2 Hg4 Se8'
_cell_volume   438.22200252
_cell_formula_units_Z   2
loop_
 _symmetry_equiv_pos_site_id
 _symmetry_equiv_pos_as_xyz
  1  'x, y, z'
loop_
 _atom_site_type_symbol
 _atom_site_label
 _atom_site_symmetry_multiplicity
 _atom_site_fract_x
 _atom_site_fract_y
 _atom_site_fract_z
 _atom_site_occupancy
  Cu  Cu0  1  -0.00000000  0.21759601  0.09897900  1
  Ta  Ta1  1  -0.00000000  0.21759601  0.40102101  1
  Cu  Cu2  1  -0.00000000  0.78240402  0.59897901  1
  Ta  Ta3  1  -0.00000000  0.78240402  0.90102102  1
  Hg  Hg4  1  0.49999999  0.79008802  0.25000000  1
  Hg  Hg5  1  0.49999999  0.50000002  0.50000001  1
  Hg  Hg6  1  0.49999999  0.20991201  0.75000001  1
  Hg  Hg7  1  0.49999999  0.50000002  0.00000000  1
  Se  Se8  1  0.49999999  0.75941702  0.49769201  1
  Se  Se9  1  0.49999999  0.24058301  0.50230801  1
  Se  Se10  1  0.49999999  0.75941702  0.00230800  1
  Se  Se11  1  0.49999999  0.24058301  0.99769202  1
  Se  Se12  1  -0.00000000  0.97771703  0.75000001  1
  Se  Se13  1  -0.00000000  0.02228300  0.25000000  1
  Se  Se14  1  -0.00000000  0.56702402  0.75000001  1
  Se  Se15  1  -0.00000000  0.43297601  0.25000000  1
