# generated using pymatgen
data_NaAlCoB2AsBrN
_symmetry_space_group_name_H-M   'P 1'
_cell_length_a   5.69871759
_cell_length_b   5.69871759
_cell_length_c   5.69871759
_cell_angle_alpha   60.00000000
_cell_angle_beta   60.00000000
_cell_angle_gamma   60.00000000
_symmetry_Int_Tables_number   1
_chemical_formula_structural   NaAlCoB2AsBrN
_chemical_formula_sum   'Na1 Al1 Co1 B2 As1 Br1 N1'
_cell_volume   130.86286042
_cell_formula_units_Z   1
loop_
 _symmetry_equiv_pos_site_id
 _symmetry_equiv_pos_as_xyz
  1  'x, y, z'
loop_
 _atom_site_type_symbol
 _atom_site_label
 _atom_site_symmetry_multiplicity
 _atom_site_fract_x
 _atom_site_fract_y
 _atom_site_fract_z
 _atom_site_occupancy
  Al  Al0  1  0.75000003  0.75000003  0.75000003  1
  Na  Na1  1  0.00000000  0.00000000  0.00000000  1
  B  B2  1  0.50000002  0.50000002  0.50000002  1
  B  B3  1  0.25000001  0.25000001  0.25000001  1
  N  N4  1  0.37500001  0.37500001  0.87500003  1
  As  As5  1  0.37500001  0.37500001  0.37500001  1
  Co  Co6  1  0.37500001  0.87500003  0.37500001  1
  Br  Br7  1  0.87500003  0.37500001  0.37500001  1
