# generated using pymatgen
data_LiDySe2
_symmetry_space_group_name_H-M   'P 1'
_cell_length_a   5.73950386
_cell_length_b   5.73950386
_cell_length_c   7.14858627
_cell_angle_alpha   113.66843414
_cell_angle_beta   113.66843414
_cell_angle_gamma   90.00000000
_symmetry_Int_Tables_number   1
_chemical_formula_structural   LiDySe2
_chemical_formula_sum   'Li2 Dy2 Se4'
_cell_volume   193.85782101
_cell_formula_units_Z   2
loop_
 _symmetry_equiv_pos_site_id
 _symmetry_equiv_pos_as_xyz
  1  'x, y, z'
loop_
 _atom_site_type_symbol
 _atom_site_label
 _atom_site_symmetry_multiplicity
 _atom_site_fract_x
 _atom_site_fract_y
 _atom_site_fract_z
 _atom_site_occupancy
  Li  Li0  1  0.24999996  0.74999999  0.49999992  1
  Li  Li1  1  0.49999997  0.49999999  -0.00000006  1
  Dy  Dy2  1  0.00000000  0.00000000  0.00000000  1
  Dy  Dy3  1  0.74999999  0.25000000  0.49999993  1
  Se  Se4  1  0.75341496  0.75341499  0.50682990  1
  Se  Se5  1  0.99658497  0.49658499  0.99316989  1
  Se  Se6  1  0.50341500  0.00341500  0.00682998  1
  Se  Se7  1  0.24658499  0.24658500  0.49316996  1
