# generated using pymatgen
data_Ga2O3
_symmetry_space_group_name_H-M   'P 1'
_cell_length_a   4.84880066
_cell_length_b   4.84880066
_cell_length_c   5.31609058
_cell_angle_alpha   62.86752701
_cell_angle_beta   62.86752701
_cell_angle_gamma   59.99998856
_symmetry_Int_Tables_number   1
_chemical_formula_structural   Ga2O3
_chemical_formula_sum   'Ga4 O6'
_cell_volume   92.01703510
_cell_formula_units_Z   2
loop_
 _symmetry_equiv_pos_site_id
 _symmetry_equiv_pos_as_xyz
  1  'x, y, z'
loop_
 _atom_site_type_symbol
 _atom_site_label
 _atom_site_symmetry_multiplicity
 _atom_site_fract_x
 _atom_site_fract_y
 _atom_site_fract_z
 _atom_site_occupancy
  Ga  Ga0  1  0.00000000  0.00000000  0.00000000  1
  Ga  Ga1  1  0.50000000  0.50000001  0.50000000  1
  Ga  Ga2  1  0.69326600  0.69326602  0.92020199  1
  Ga  Ga3  1  0.30673400  0.30673401  0.07979801  1
  O  O4  1  0.10747298  0.72060002  0.77556999  1
  O  O5  1  0.27939999  0.60364302  0.22443001  1
  O  O6  1  0.60364299  0.89252703  0.22443001  1
  O  O7  1  0.39635701  0.10747300  0.77556999  1
  O  O8  1  0.72060000  0.39635701  0.77556999  1
  O  O9  1  0.89252701  0.27940001  0.22443001  1
