# generated using pymatgen
data_BaSrYSbO6
_symmetry_space_group_name_H-M   'P 1'
_cell_length_a   5.93639374
_cell_length_b   5.96333694
_cell_length_c   8.39935493
_cell_angle_alpha   90.15361786
_cell_angle_beta   89.79644012
_cell_angle_gamma   89.75366211
_symmetry_Int_Tables_number   1
_chemical_formula_structural   BaSrYSbO6
_chemical_formula_sum   'Ba2 Sr2 Y2 Sb2 O12'
_cell_volume   297.33747373
_cell_formula_units_Z   2
loop_
 _symmetry_equiv_pos_site_id
 _symmetry_equiv_pos_as_xyz
  1  'x, y, z'
loop_
 _atom_site_type_symbol
 _atom_site_label
 _atom_site_symmetry_multiplicity
 _atom_site_fract_x
 _atom_site_fract_y
 _atom_site_fract_z
 _atom_site_occupancy
  Ba  Ba0  1  0.48983942  0.50357386  0.24956947  1
  Ba  Ba1  1  0.51016062  0.49642610  0.75043055  1
  Sr  Sr2  1  0.98457761  0.00076237  0.25222767  1
  Sr  Sr3  1  0.01542242  0.99923759  0.74777236  1
  Y  Y4  1  0.50000004  0.99999996  0.00000000  1
  Y  Y5  1  0.00000002  0.49999998  0.49999999  1
  Sb  Sb6  1  0.00000002  0.49999998  -0.00000001  1
  Sb  Sb7  1  0.50000004  0.99999996  0.50000000  1
  O  O8  1  0.78826788  0.24167899  0.96801230  1
  O  O9  1  0.28198854  0.25229861  0.52338419  1
  O  O10  1  0.21173215  0.75832097  0.03198772  1
  O  O11  1  0.71801149  0.74770135  0.47661584  1
  O  O12  1  0.25368747  0.28387876  0.97410277  1
  O  O13  1  0.76202667  0.20934144  0.52841211  1
  O  O14  1  0.74631256  0.71612120  0.02589726  1
  O  O15  1  0.23797336  0.79065852  0.47158791  1
  O  O16  1  0.99911859  0.43723457  0.23495496  1
  O  O17  1  0.51475870  0.04380265  0.26495063  1
  O  O18  1  0.00088145  0.56276539  0.76504507  1
  O  O19  1  0.48524134  0.95619731  0.73504939  1
