# generated using pymatgen
data_Ca(CdTe)2
_symmetry_space_group_name_H-M   'P 1'
_cell_length_a   4.86733580
_cell_length_b   4.86733532
_cell_length_c   8.03382206
_cell_angle_alpha   90.00000000
_cell_angle_beta   90.00000000
_cell_angle_gamma   120.00000000
_symmetry_Int_Tables_number   1
_chemical_formula_structural   Ca(CdTe)2
_chemical_formula_sum   'Ca1 Cd2 Te2'
_cell_volume   164.82968012
_cell_formula_units_Z   1
loop_
 _symmetry_equiv_pos_site_id
 _symmetry_equiv_pos_as_xyz
  1  'x, y, z'
loop_
 _atom_site_type_symbol
 _atom_site_label
 _atom_site_symmetry_multiplicity
 _atom_site_fract_x
 _atom_site_fract_y
 _atom_site_fract_z
 _atom_site_occupancy
  Ca  Ca0  1  0.00000000  0.00000000  0.00000000  1
  Cd  Cd1  1  0.33333330  0.66666666  0.62482900  1
  Cd  Cd2  1  0.66666667  0.33333333  0.37517100  1
  Te  Te3  1  0.33333330  0.66666666  0.25287300  1
  Te  Te4  1  0.66666667  0.33333333  0.74712699  1
