# generated using pymatgen
data_Sr(PdO2)2
_symmetry_space_group_name_H-M   'P 1'
_cell_length_a   6.31082010
_cell_length_b   6.82409382
_cell_length_c   6.31082010
_cell_angle_alpha   117.54160309
_cell_angle_beta   90.00000000
_cell_angle_gamma   117.54160309
_symmetry_Int_Tables_number   1
_chemical_formula_structural   Sr(PdO2)2
_chemical_formula_sum   'Sr2 Pd4 O8'
_cell_volume   205.61802461
_cell_formula_units_Z   2
loop_
 _symmetry_equiv_pos_site_id
 _symmetry_equiv_pos_as_xyz
  1  'x, y, z'
loop_
 _atom_site_type_symbol
 _atom_site_label
 _atom_site_symmetry_multiplicity
 _atom_site_fract_x
 _atom_site_fract_y
 _atom_site_fract_z
 _atom_site_occupancy
  Sr  Sr0  1  0.25000002  0.50000001  0.75000001  1
  Sr  Sr1  1  0.00000000  0.00000000  0.00000000  1
  Pd  Pd2  1  0.62500000  0.25000001  0.87500000  1
  Pd  Pd3  1  0.12500003  0.75000002  0.37500003  1
  Pd  Pd4  1  0.62500000  0.25000001  0.37500000  1
  Pd  Pd5  1  0.62500002  0.75000002  0.37500003  1
  O  O6  1  0.42014601  0.40385701  0.35526201  1
  O  O7  1  0.29859503  0.90385602  0.17014604  1
  O  O8  1  0.60526103  0.90385602  0.73371003  1
  O  O9  1  0.98371000  0.40385501  0.04859402  1
  O  O10  1  0.82985399  0.09614300  0.39473800  1
  O  O11  1  0.95140501  0.59614401  0.57985402  1
  O  O12  1  0.26629000  0.09614500  0.70140599  1
  O  O13  1  0.64473902  0.59614401  0.01629003  1
