# generated using pymatgen
data_CsK3PBrO2
_symmetry_space_group_name_H-M   'P 1'
_cell_length_a   5.12368393
_cell_length_b   5.12368393
_cell_length_c   10.16294861
_cell_angle_alpha   90.00000000
_cell_angle_beta   90.00000000
_cell_angle_gamma   90.00000000
_symmetry_Int_Tables_number   1
_chemical_formula_structural   CsK3PBrO2
_chemical_formula_sum   'Cs1 K3 P1 Br1 O2'
_cell_volume   266.79911928
_cell_formula_units_Z   1
loop_
 _symmetry_equiv_pos_site_id
 _symmetry_equiv_pos_as_xyz
  1  'x, y, z'
loop_
 _atom_site_type_symbol
 _atom_site_label
 _atom_site_symmetry_multiplicity
 _atom_site_fract_x
 _atom_site_fract_y
 _atom_site_fract_z
 _atom_site_occupancy
  Cs  Cs0  1  0.50000001  0.00000000  0.83183503  1
  K  K1  1  -0.00000000  0.50000001  0.16816501  1
  K  K2  1  0.50000001  0.50000001  0.50000002  1
  K  K3  1  0.00000000  0.00000000  0.50000002  1
  Br  Br4  1  -0.00000000  0.50000001  0.80046303  1
  P  P5  1  0.50000001  0.00000000  0.19953701  1
  O  O6  1  0.50000001  0.00000000  0.58783102  1
  O  O7  1  -0.00000000  0.50000001  0.41216902  1
