# generated using pymatgen
data_NaLa3Al2O7
_symmetry_space_group_name_H-M   'P 1'
_cell_length_a   3.79788589
_cell_length_b   6.68362904
_cell_length_c   8.52856445
_cell_angle_alpha   108.60523224
_cell_angle_beta   90.00000000
_cell_angle_gamma   106.50616455
_symmetry_Int_Tables_number   1
_chemical_formula_structural   NaLa3Al2O7
_chemical_formula_sum   'Na1 La3 Al2 O7'
_cell_volume   195.73588685
_cell_formula_units_Z   1
loop_
 _symmetry_equiv_pos_site_id
 _symmetry_equiv_pos_as_xyz
  1  'x, y, z'
loop_
 _atom_site_type_symbol
 _atom_site_label
 _atom_site_symmetry_multiplicity
 _atom_site_fract_x
 _atom_site_fract_y
 _atom_site_fract_z
 _atom_site_occupancy
  Na  Na0  1  0.65930299  0.31860599  0.31923398  1
  La  La1  1  0.34069694  0.68139397  0.68076596  1
  La  La2  1  0.35736494  0.71472997  0.16605097  1
  La  La3  1  0.64263499  0.28526999  0.83394896  1
  Al  Al4  1  0.00000000  0.00000000  0.00000000  1
  Al  Al5  1  0.00000000  0.00000000  0.49999998  1
  O  O6  1  0.98973393  0.97946796  0.70892294  1
  O  O7  1  0.72485197  0.44970398  0.61527297  1
  O  O8  1  0.49999991  0.99999996  -0.00000003  1
  O  O9  1  0.25206096  0.50412198  0.88009496  1
  O  O10  1  0.27514795  0.55029598  0.38472697  1
  O  O11  1  0.74793897  0.49587798  0.11990498  1
  O  O12  1  0.01026600  0.02053200  0.29107699  1
