# generated using pymatgen
data_LiTiCoO4
_symmetry_space_group_name_H-M   'P 1'
_cell_length_a   5.82429314
_cell_length_b   5.82968950
_cell_length_c   5.83032179
_cell_angle_alpha   91.86675262
_cell_angle_beta   118.94664764
_cell_angle_gamma   118.89871216
_symmetry_Int_Tables_number   1
_chemical_formula_structural   LiTiCoO4
_chemical_formula_sum   'Li2 Ti2 Co2 O8'
_cell_volume   142.18920602
_cell_formula_units_Z   2
loop_
 _symmetry_equiv_pos_site_id
 _symmetry_equiv_pos_as_xyz
  1  'x, y, z'
loop_
 _atom_site_type_symbol
 _atom_site_label
 _atom_site_symmetry_multiplicity
 _atom_site_fract_x
 _atom_site_fract_y
 _atom_site_fract_z
 _atom_site_occupancy
  Li  Li0  1  0.24877407  0.87431105  0.12446602  1
  Li  Li1  1  0.75122800  0.12567901  0.87554400  1
  Ti  Ti2  1  0.00000100  0.00000000  0.50001101  1
  Ti  Ti3  1  0.49998904  0.49999003  0.49999001  1
  Co  Co4  1  0.50001204  0.50002303  0.99999002  1
  Co  Co5  1  0.99999403  0.49999903  0.49999199  1
  O  O6  1  0.04861802  0.25515501  0.76116602  1
  O  O7  1  0.99444701  0.23829601  0.28693698  1
  O  O8  1  0.50822702  0.29460202  0.74562001  1
  O  O9  1  0.54897902  0.28592102  0.29372000  1
  O  O10  1  0.49177706  0.70539604  0.25437901  1
  O  O11  1  0.00554206  0.76169004  0.71306904  1
  O  O12  1  0.45101106  0.71407704  0.70626502  1
  O  O13  1  0.95140006  0.74485904  0.23885000  1
