# generated using pymatgen
data_Ba2Pb
_symmetry_space_group_name_H-M   'P 1'
_cell_length_a   5.41931581
_cell_length_b   9.02369785
_cell_length_c   10.84341812
_cell_angle_alpha   90.00000000
_cell_angle_beta   90.00000000
_cell_angle_gamma   90.00000000
_symmetry_Int_Tables_number   1
_chemical_formula_structural   Ba2Pb
_chemical_formula_sum   'Ba8 Pb4'
_cell_volume   530.26774426
_cell_formula_units_Z   4
loop_
 _symmetry_equiv_pos_site_id
 _symmetry_equiv_pos_as_xyz
  1  'x, y, z'
loop_
 _atom_site_type_symbol
 _atom_site_label
 _atom_site_symmetry_multiplicity
 _atom_site_fract_x
 _atom_site_fract_y
 _atom_site_fract_z
 _atom_site_occupancy
  Ba  Ba0  1  0.25000001  0.24542500  0.88557999  1
  Ba  Ba1  1  0.75000003  0.75457501  0.11442000  1
  Ba  Ba2  1  0.25000001  0.74542501  0.61441999  1
  Ba  Ba3  1  0.75000003  0.25457500  0.38558000  1
  Ba  Ba4  1  0.25000001  0.02287000  0.16445100  1
  Ba  Ba5  1  0.75000003  0.97713002  0.83554899  1
  Ba  Ba6  1  0.25000001  0.52287001  0.33554900  1
  Ba  Ba7  1  0.75000003  0.47713001  0.66445099  1
  Pb  Pb8  1  0.75000003  0.35817601  0.07269000  1
  Pb  Pb9  1  0.25000001  0.64182401  0.92730999  1
  Pb  Pb10  1  0.75000003  0.85817601  0.42731000  1
  Pb  Pb11  1  0.25000001  0.14182400  0.57268999  1
