# generated using pymatgen
data_Tm5(CrSb2)3
_symmetry_space_group_name_H-M   'P 1'
_cell_length_a   8.59063435
_cell_length_b   8.59063435
_cell_length_c   8.59063435
_cell_angle_alpha   109.47122192
_cell_angle_beta   109.47122192
_cell_angle_gamma   109.47122192
_symmetry_Int_Tables_number   1
_chemical_formula_structural   Tm5(CrSb2)3
_chemical_formula_sum   'Tm5 Cr3 Sb6'
_cell_volume   488.03817062
_cell_formula_units_Z   1
loop_
 _symmetry_equiv_pos_site_id
 _symmetry_equiv_pos_as_xyz
  1  'x, y, z'
loop_
 _atom_site_type_symbol
 _atom_site_label
 _atom_site_symmetry_multiplicity
 _atom_site_fract_x
 _atom_site_fract_y
 _atom_site_fract_z
 _atom_site_occupancy
  Cr  Cr0  1  0.25000003  0.43610801  0.18610803  1
  Tm  Tm1  1  0.68610801  0.25000101  0.93610802  1
  Tm  Tm2  1  0.43610804  0.68610802  0.75000104  1
  Tm  Tm3  1  0.81389305  0.75000102  0.56389306  1
  Cr  Cr4  1  0.06389305  0.81389302  0.25000004  1
  Tm  Tm5  1  0.75000000  0.06389300  0.31389302  1
  Tm  Tm6  1  0.04441900  0.04441900  0.54441900  1
  Sb  Sb7  1  0.50000003  0.45558101  0.50000003  1
  Cr  Cr8  1  0.45558106  1.00000003  1.00000006  1
  Sb  Sb9  1  0.00000003  0.50000001  0.95558102  1
  Sb  Sb10  1  0.50970203  0.50970202  0.00970204  1
  Sb  Sb11  1  0.50000006  0.99029803  0.50000006  1
  Sb  Sb12  1  1.00000003  0.50000001  0.49029805  1
  Sb  Sb13  1  0.99029806  1.00000003  1.00000007  1
