# generated using pymatgen
data_AlCoB3As2Br
_symmetry_space_group_name_H-M   'P 1'
_cell_length_a   5.73783493
_cell_length_b   5.73783493
_cell_length_c   5.73783493
_cell_angle_alpha   60.00000000
_cell_angle_beta   60.00000000
_cell_angle_gamma   60.00000000
_symmetry_Int_Tables_number   1
_chemical_formula_structural   AlCoB3As2Br
_chemical_formula_sum   'Al1 Co1 B3 As2 Br1'
_cell_volume   133.57622087
_cell_formula_units_Z   1
loop_
 _symmetry_equiv_pos_site_id
 _symmetry_equiv_pos_as_xyz
  1  'x, y, z'
loop_
 _atom_site_type_symbol
 _atom_site_label
 _atom_site_symmetry_multiplicity
 _atom_site_fract_x
 _atom_site_fract_y
 _atom_site_fract_z
 _atom_site_occupancy
  Al  Al0  1  0.75000000  0.75000000  0.75000000  1
  B  B1  1  0.00000000  0.00000000  0.00000000  1
  B  B2  1  0.50000000  0.50000000  0.50000000  1
  B  B3  1  0.25000000  0.25000000  0.25000000  1
  As  As4  1  0.37500000  0.87500000  0.37500000  1
  As  As5  1  0.37500000  0.37500000  0.37500000  1
  Co  Co6  1  0.87500000  0.37500000  0.37500000  1
  Br  Br7  1  0.37500000  0.37500000  0.87500000  1
