# generated using pymatgen
data_Li5Ga3S8
_symmetry_space_group_name_H-M   'P 1'
_cell_length_a   6.56689596
_cell_length_b   6.78326797
_cell_length_c   7.94395018
_cell_angle_alpha   90.00000000
_cell_angle_beta   90.00000000
_cell_angle_gamma   90.00000000
_symmetry_Int_Tables_number   1
_chemical_formula_structural   Li5Ga3S8
_chemical_formula_sum   'Li5 Ga3 S8'
_cell_volume   353.86338033
_cell_formula_units_Z   1
loop_
 _symmetry_equiv_pos_site_id
 _symmetry_equiv_pos_as_xyz
  1  'x, y, z'
loop_
 _atom_site_type_symbol
 _atom_site_label
 _atom_site_symmetry_multiplicity
 _atom_site_fract_x
 _atom_site_fract_y
 _atom_site_fract_z
 _atom_site_occupancy
  Li  Li0  1  0.51023600  0.34882800  0.00000000  1
  Li  Li1  1  0.01023600  0.65117200  0.49999999  1
  Li  Li2  1  0.51537100  0.82411500  0.75618798  1
  Li  Li3  1  0.01537100  0.17588500  0.74381198  1
  Li  Li4  1  0.01537100  0.17588500  0.25618799  1
  Ga  Ga5  1  0.51537100  0.82411500  0.24381199  1
  Ga  Ga6  1  0.99862501  0.67339500  0.00000000  1
  Ga  Ga7  1  0.49862500  0.32660500  0.49999999  1
  S  S8  1  0.89570101  0.34751400  -0.00000000  1
  S  S9  1  0.39570100  0.65248600  0.49999999  1
  S  S10  1  0.88204001  0.83789900  0.76219998  1
  S  S11  1  0.38204000  0.16210100  0.73779998  1
  S  S12  1  0.38204000  0.16210100  0.26219999  1
  S  S13  1  0.88204001  0.83789900  0.23779999  1
  S  S14  1  0.35311700  0.68575100  0.00000000  1
  S  S15  1  0.85311700  0.31424900  0.49999999  1
