# generated using pymatgen
data_BaPtSe2
_symmetry_space_group_name_H-M   'P 1'
_cell_length_a   3.75964808
_cell_length_b   7.90503883
_cell_length_c   7.90503883
_cell_angle_alpha   90.00000000
_cell_angle_beta   90.00000000
_cell_angle_gamma   90.00000000
_symmetry_Int_Tables_number   1
_chemical_formula_structural   BaPtSe2
_chemical_formula_sum   'Ba2 Pt2 Se4'
_cell_volume   234.93905143
_cell_formula_units_Z   2
loop_
 _symmetry_equiv_pos_site_id
 _symmetry_equiv_pos_as_xyz
  1  'x, y, z'
loop_
 _atom_site_type_symbol
 _atom_site_label
 _atom_site_symmetry_multiplicity
 _atom_site_fract_x
 _atom_site_fract_y
 _atom_site_fract_z
 _atom_site_occupancy
  Ba  Ba0  1  0.99999998  0.50000001  0.50000001  1
  Ba  Ba1  1  0.00000000  0.00000000  0.00000000  1
  Pt  Pt2  1  0.99999998  0.50000001  0.00000000  1
  Pt  Pt3  1  0.99999998  1.00000002  0.50000001  1
  Se  Se4  1  0.49999999  0.15014000  0.34986001  1
  Se  Se5  1  0.49999999  0.34986001  0.84986002  1
  Se  Se6  1  0.49999999  0.65014001  0.15014000  1
  Se  Se7  1  0.49999999  0.84986002  0.65014001  1
