# generated using pymatgen
data_Cs2AgSe3
_symmetry_space_group_name_H-M   'P 1'
_cell_length_a   7.32105589
_cell_length_b   8.09231472
_cell_length_c   9.18673134
_cell_angle_alpha   74.84593201
_cell_angle_beta   71.70350647
_cell_angle_gamma   66.19095612
_symmetry_Int_Tables_number   1
_chemical_formula_structural   Cs2AgSe3
_chemical_formula_sum   'Cs4 Ag2 Se6'
_cell_volume   467.05148473
_cell_formula_units_Z   2
loop_
 _symmetry_equiv_pos_site_id
 _symmetry_equiv_pos_as_xyz
  1  'x, y, z'
loop_
 _atom_site_type_symbol
 _atom_site_label
 _atom_site_symmetry_multiplicity
 _atom_site_fract_x
 _atom_site_fract_y
 _atom_site_fract_z
 _atom_site_occupancy
  Cs  Cs0  1  0.65333498  0.46205699  0.68578808  1
  Cs  Cs1  1  0.34666497  0.53794299  0.31421206  1
  Cs  Cs2  1  0.90297696  0.79812599  0.88183011  1
  Cs  Cs3  1  0.09702299  0.20187400  0.11817002  1
  Ag  Ag4  1  0.63874395  0.93854699  0.31274209  1
  Ag  Ag5  1  0.36125600  0.06145300  0.68725804  1
  Se  Se6  1  0.26607595  0.96131299  0.47606808  1
  Se  Se7  1  0.73392400  0.03868700  0.52393205  1
  Se  Se8  1  0.37332596  0.81678899  0.92032710  1
  Se  Se9  1  0.62667399  0.18321100  0.07967304  1
  Se  Se10  1  0.16265898  0.38973099  0.71903506  1
  Se  Se11  1  0.83734097  0.61026899  0.28096508  1
