# generated using pymatgen
data_CsSbCl6
_symmetry_space_group_name_H-M   'P 1'
_cell_length_a   6.63843203
_cell_length_b   7.08021545
_cell_length_c   12.67804527
_cell_angle_alpha   100.50230408
_cell_angle_beta   90.00000000
_cell_angle_gamma   117.95653534
_symmetry_Int_Tables_number   1
_chemical_formula_structural   CsSbCl6
_chemical_formula_sum   'Cs2 Sb2 Cl12'
_cell_volume   515.02087157
_cell_formula_units_Z   2
loop_
 _symmetry_equiv_pos_site_id
 _symmetry_equiv_pos_as_xyz
  1  'x, y, z'
loop_
 _atom_site_type_symbol
 _atom_site_label
 _atom_site_symmetry_multiplicity
 _atom_site_fract_x
 _atom_site_fract_y
 _atom_site_fract_z
 _atom_site_occupancy
  Cs  Cs0  1  0.11612900  0.00000000  0.74999999  1
  Cs  Cs1  1  0.88387100  0.00000000  0.25000000  1
  Sb  Sb2  1  0.50000004  0.50000000  0.49999999  1
  Sb  Sb3  1  1.00000003  0.50000000  0.99999999  1
  Cl  Cl4  1  0.54166206  0.84003101  0.60554199  1
  Cl  Cl5  1  0.45833801  0.15996900  0.39445799  1
  Cl  Cl6  1  0.70163101  0.15996900  0.89445799  1
  Cl  Cl7  1  0.29836906  0.84003101  0.10554200  1
  Cl  Cl8  1  0.62849703  0.42933000  0.65962699  1
  Cl  Cl9  1  0.37150304  0.57067000  0.34037300  1
  Cl  Cl10  1  0.19916704  0.57067000  0.84037299  1
  Cl  Cl11  1  0.80083303  0.42933000  0.15962700  1
  Cl  Cl12  1  0.20044702  0.30755300  0.03966300  1
  Cl  Cl13  1  0.79955305  0.69244700  0.96033699  1
  Cl  Cl14  1  0.89289405  0.69244700  0.46033699  1
  Cl  Cl15  1  0.10710602  0.30755300  0.53966299  1
