# generated using pymatgen
data_Li2AlIn(GaS2)2
_symmetry_space_group_name_H-M   'P 1'
_cell_length_a   6.33340979
_cell_length_b   6.33340979
_cell_length_c   6.33340979
_cell_angle_alpha   84.95429993
_cell_angle_beta   62.86910629
_cell_angle_gamma   117.13088989
_symmetry_Int_Tables_number   1
_chemical_formula_structural   Li2AlIn(GaS2)2
_chemical_formula_sum   'Li2 Al1 In1 Ga2 S4'
_cell_volume   186.64489201
_cell_formula_units_Z   1
loop_
 _symmetry_equiv_pos_site_id
 _symmetry_equiv_pos_as_xyz
  1  'x, y, z'
loop_
 _atom_site_type_symbol
 _atom_site_label
 _atom_site_symmetry_multiplicity
 _atom_site_fract_x
 _atom_site_fract_y
 _atom_site_fract_z
 _atom_site_occupancy
  Al  Al0  1  0.00000000  0.00000000  0.00000000  1
  Li  Li1  1  0.49999997  0.24999998  0.25000002  1
  Li  Li2  1  0.80352698  0.12499999  0.57147301  1
  In  In3  1  0.19647292  0.62499996  0.67852705  1
  Ga  Ga4  1  0.69647292  0.57147296  0.62500005  1
  Ga  Ga5  1  0.30352691  0.67852695  0.12500006  1
  S  S6  1  0.41983498  0.12499999  0.95516501  1
  S  S7  1  0.58016492  0.62499996  0.29483505  1
  S  S8  1  0.08016488  0.95516493  0.62500008  1
  S  S9  1  0.91983496  0.29483498  0.12500002  1
