# generated using pymatgen
data_Al2O3
_symmetry_space_group_name_H-M   'P 1'
_cell_length_a   5.41171789
_cell_length_b   5.67128515
_cell_length_c   5.97426748
_cell_angle_alpha   117.78594971
_cell_angle_beta   90.00000000
_cell_angle_gamma   118.49719238
_symmetry_Int_Tables_number   1
_chemical_formula_structural   Al2O3
_chemical_formula_sum   'Al4 O6'
_cell_volume   136.60479649
_cell_formula_units_Z   2
loop_
 _symmetry_equiv_pos_site_id
 _symmetry_equiv_pos_as_xyz
  1  'x, y, z'
loop_
 _atom_site_type_symbol
 _atom_site_label
 _atom_site_symmetry_multiplicity
 _atom_site_fract_x
 _atom_site_fract_y
 _atom_site_fract_z
 _atom_site_occupancy
  Al  Al0  1  0.62296901  0.07475400  0.63281598  1
  Al  Al1  1  0.45178501  0.07475400  0.13281599  1
  Al  Al2  1  0.28672301  0.42291398  0.62389997  1
  Al  Al3  1  0.13619101  0.42291398  0.12389998  1
  O  O4  1  0.52327401  0.26481899  0.49845998  1
  O  O5  1  0.74154502  0.26481899  0.99845997  1
  O  O6  1  0.30681201  0.66040697  0.48406896  1
  O  O7  1  0.35359501  0.66040697  0.98406895  1
  O  O8  1  0.92631102  0.07690700  0.51075399  1
  O  O9  1  0.15059600  0.07690700  0.01075400  1
