# generated using pymatgen
data_Al2CuSe4
_symmetry_space_group_name_H-M   'P 1'
_cell_length_a   7.45763159
_cell_length_b   7.45763159
_cell_length_c   7.45763159
_cell_angle_alpha   60.00000000
_cell_angle_beta   60.00000000
_cell_angle_gamma   60.00000000
_symmetry_Int_Tables_number   1
_chemical_formula_structural   Al2CuSe4
_chemical_formula_sum   'Al4 Cu2 Se8'
_cell_volume   293.28359931
_cell_formula_units_Z   2
loop_
 _symmetry_equiv_pos_site_id
 _symmetry_equiv_pos_as_xyz
  1  'x, y, z'
loop_
 _atom_site_type_symbol
 _atom_site_label
 _atom_site_symmetry_multiplicity
 _atom_site_fract_x
 _atom_site_fract_y
 _atom_site_fract_z
 _atom_site_occupancy
  Al  Al0  1  0.50000001  0.50000001  0.50000001  1
  Al  Al1  1  0.25000001  0.25000001  0.25000001  1
  Al  Al2  1  0.37500001  0.87500002  0.87500002  1
  Al  Al3  1  0.87500002  0.87500002  0.87500002  1
  Cu  Cu4  1  0.87500002  0.87500002  0.37500001  1
  Cu  Cu5  1  0.87500002  0.37500001  0.87500002  1
  Se  Se6  1  0.64342202  0.06973200  0.64342302  1
  Se  Se7  1  0.64342202  0.64342302  0.06973200  1
  Se  Se8  1  0.64342202  0.64342302  0.64342302  1
  Se  Se9  1  0.68026902  0.10657700  0.10657700  1
  Se  Se10  1  0.06973100  0.64342302  0.64342302  1
  Se  Se11  1  0.10657800  0.10657700  0.10657700  1
  Se  Se12  1  0.10657800  0.10657700  0.68026802  1
  Se  Se13  1  0.10657800  0.68026802  0.10657700  1
