# generated using pymatgen
data_Mg2SiP4
_symmetry_space_group_name_H-M   'P 1'
_cell_length_a   5.45008993
_cell_length_b   6.06981277
_cell_length_c   6.06981277
_cell_angle_alpha   90.00000000
_cell_angle_beta   90.00000000
_cell_angle_gamma   90.00000000
_symmetry_Int_Tables_number   1
_chemical_formula_structural   Mg2SiP4
_chemical_formula_sum   'Mg2 Si1 P4'
_cell_volume   200.79563111
_cell_formula_units_Z   1
loop_
 _symmetry_equiv_pos_site_id
 _symmetry_equiv_pos_as_xyz
  1  'x, y, z'
loop_
 _atom_site_type_symbol
 _atom_site_label
 _atom_site_symmetry_multiplicity
 _atom_site_fract_x
 _atom_site_fract_y
 _atom_site_fract_z
 _atom_site_occupancy
  Mg  Mg0  1  1.00000001  0.50000002  0.00000000  1
  Mg  Mg1  1  1.00000001  1.00000004  0.50000002  1
  Si  Si2  1  0.00000000  0.00000000  0.00000000  1
  P  P3  1  0.22984500  0.21312001  0.21312001  1
  P  P4  1  0.77015501  0.78688003  0.21312001  1
  P  P5  1  0.77015501  0.21312001  0.78688003  1
  P  P6  1  0.22984500  0.78688003  0.78688003  1
