# generated using pymatgen
data_VO3
_symmetry_space_group_name_H-M   'P 1'
_cell_length_a   3.93112373
_cell_length_b   3.93112373
_cell_length_c   7.55806208
_cell_angle_alpha   90.02293396
_cell_angle_beta   89.97706604
_cell_angle_gamma   89.97745514
_symmetry_Int_Tables_number   1
_chemical_formula_structural   VO3
_chemical_formula_sum   'V2 O6'
_cell_volume   116.80025167
_cell_formula_units_Z   2
loop_
 _symmetry_equiv_pos_site_id
 _symmetry_equiv_pos_as_xyz
  1  'x, y, z'
loop_
 _atom_site_type_symbol
 _atom_site_label
 _atom_site_symmetry_multiplicity
 _atom_site_fract_x
 _atom_site_fract_y
 _atom_site_fract_z
 _atom_site_occupancy
  V  V0  1  0.92890999  0.07109000  0.25701697  1
  V  V1  1  0.05438496  0.94561499  0.75670502  1
  O  O2  1  0.52254495  0.97082899  0.75852701  1
  O  O3  1  0.02917098  0.47745500  0.75852701  1
  O  O4  1  0.48247200  0.02838400  0.25892298  1
  O  O5  1  0.97161597  0.51752800  0.25892298  1
  O  O6  1  0.00613796  0.99386199  0.50657803  1
  O  O7  1  0.00476396  0.99523599  0.01079903  1
