# generated using pymatgen
data_CsU2Al(MoO6)2
_symmetry_space_group_name_H-M   'P 1'
_cell_length_a   7.38715982
_cell_length_b   7.46068621
_cell_length_c   7.46068621
_cell_angle_alpha   60.21547699
_cell_angle_beta   60.32547379
_cell_angle_gamma   60.32547379
_symmetry_Int_Tables_number   1
_chemical_formula_structural   CsU2Al(MoO6)2
_chemical_formula_sum   'Cs1 U2 Al1 Mo2 O12'
_cell_volume   292.64983962
_cell_formula_units_Z   1
loop_
 _symmetry_equiv_pos_site_id
 _symmetry_equiv_pos_as_xyz
  1  'x, y, z'
loop_
 _atom_site_type_symbol
 _atom_site_label
 _atom_site_symmetry_multiplicity
 _atom_site_fract_x
 _atom_site_fract_y
 _atom_site_fract_z
 _atom_site_occupancy
  Al  Al0  1  0.12279600  0.12720400  0.62720402  1
  Cs  Cs1  1  0.87720401  0.87279602  0.37279603  1
  U  U2  1  -0.00000001  0.50000001  1.00000005  1
  U  U3  1  0.50000000  0.50000001  0.00000001  1
  Mo  Mo4  1  0.50000002  0.00000000  1.00000002  1
  Mo  Mo5  1  0.50000000  0.50000001  0.50000003  1
  O  O6  1  0.56512001  0.18488000  0.68488002  1
  O  O7  1  0.17785999  0.57214001  0.07214002  1
  O  O8  1  0.56790100  0.56832601  0.66724003  1
  O  O9  1  0.19653300  0.16723900  0.06832600  1
  O  O10  1  0.19653199  0.56832601  0.66724004  1
  O  O11  1  0.56790201  0.16723900  0.06832600  1
  O  O12  1  0.43487999  0.81512002  0.31512003  1
  O  O13  1  0.82214002  0.42786001  0.92786003  1
  O  O14  1  0.43209900  0.43167401  0.33276002  1
  O  O15  1  0.80346700  0.83276102  0.93167405  1
  O  O16  1  0.80346802  0.43167401  0.33276001  1
  O  O17  1  0.43209799  0.83276102  0.93167405  1
