# generated using pymatgen
data_V2CrO6
_symmetry_space_group_name_H-M   'P 1'
_cell_length_a   5.91264725
_cell_length_b   6.82716942
_cell_length_c   6.84180117
_cell_angle_alpha   83.79416656
_cell_angle_beta   74.62734222
_cell_angle_gamma   74.70530701
_symmetry_Int_Tables_number   1
_chemical_formula_structural   V2CrO6
_chemical_formula_sum   'V4 Cr2 O12'
_cell_volume   256.65110585
_cell_formula_units_Z   2
loop_
 _symmetry_equiv_pos_site_id
 _symmetry_equiv_pos_as_xyz
  1  'x, y, z'
loop_
 _atom_site_type_symbol
 _atom_site_label
 _atom_site_symmetry_multiplicity
 _atom_site_fract_x
 _atom_site_fract_y
 _atom_site_fract_z
 _atom_site_occupancy
  V  V0  1  0.24759398  0.20561000  0.38482501  1
  V  V1  1  0.25205396  0.61512400  0.79430203  1
  V  V2  1  0.74290396  0.38778600  0.20786201  1
  V  V3  1  0.75702794  0.79229300  0.61243203  1
  Cr  Cr4  1  0.25065499  0.08612000  0.91368200  1
  Cr  Cr5  1  0.74971994  0.91453200  0.08573304  1
  O  O6  1  0.37100599  0.03847000  0.19106800  1
  O  O7  1  0.13001596  0.80973300  0.96101004  1
  O  O8  1  0.23033099  0.08519300  0.61334100  1
  O  O9  1  0.26908997  0.38582200  0.91447402  1
  O  O10  1  0.85193597  0.19569000  0.03971000  1
  O  O11  1  0.64755794  0.96078200  0.80415904  1
  O  O12  1  0.44595297  0.37204200  0.35339201  1
  O  O13  1  0.05396497  0.64670900  0.62855403  1
  O  O14  1  0.94950196  0.34667500  0.36876101  1
  O  O15  1  0.54987296  0.63090400  0.65341403  1
  O  O16  1  0.72570695  0.61905300  0.09191802  1
  O  O17  1  0.77510594  0.90746400  0.38136204  1
