# generated using pymatgen
data_MnCoO2
_symmetry_space_group_name_H-M   'P 1'
_cell_length_a   2.89984369
_cell_length_b   2.89984369
_cell_length_c   5.61809301
_cell_angle_alpha   75.04378510
_cell_angle_beta   75.04378510
_cell_angle_gamma   60.00000381
_symmetry_Int_Tables_number   1
_chemical_formula_structural   MnCoO2
_chemical_formula_sum   'Mn1 Co1 O2'
_cell_volume   39.05474381
_cell_formula_units_Z   1
loop_
 _symmetry_equiv_pos_site_id
 _symmetry_equiv_pos_as_xyz
  1  'x, y, z'
loop_
 _atom_site_type_symbol
 _atom_site_label
 _atom_site_symmetry_multiplicity
 _atom_site_fract_x
 _atom_site_fract_y
 _atom_site_fract_z
 _atom_site_occupancy
  Mn  Mn0  1  0.00000000  0.00000000  0.00000000  1
  Co  Co1  1  0.50000003  0.50000002  0.49999999  1
  O  O2  1  0.77049204  0.77049204  0.68852399  1
  O  O3  1  0.22950801  0.22950801  0.31147600  1
