# generated using pymatgen
data_TiMo(WO6)2
_symmetry_space_group_name_H-M   'P 1'
_cell_length_a   5.21265078
_cell_length_b   5.40737534
_cell_length_c   7.55559731
_cell_angle_alpha   87.82247925
_cell_angle_beta   90.01551819
_cell_angle_gamma   90.05986786
_symmetry_Int_Tables_number   1
_chemical_formula_structural   TiMo(WO6)2
_chemical_formula_sum   'Ti1 Mo1 W2 O12'
_cell_volume   212.81389633
_cell_formula_units_Z   1
loop_
 _symmetry_equiv_pos_site_id
 _symmetry_equiv_pos_as_xyz
  1  'x, y, z'
loop_
 _atom_site_type_symbol
 _atom_site_label
 _atom_site_symmetry_multiplicity
 _atom_site_fract_x
 _atom_site_fract_y
 _atom_site_fract_z
 _atom_site_occupancy
  Ti  Ti0  1  0.97841202  0.03816300  0.49432004  1
  W  W1  1  0.97891404  0.96244804  0.00570199  1
  Mo  Mo2  1  0.47110902  0.47093502  0.99443000  1
  W  W3  1  0.46918602  0.52912702  0.50551900  1
  O  O4  1  0.79383202  0.28573601  0.46035702  1
  O  O5  1  0.79016003  0.71737903  0.04016400  1
  O  O6  1  0.22773701  0.28065001  0.95780000  1
  O  O7  1  0.22257602  0.71497703  0.54233298  1
  O  O8  1  0.90657902  0.00019000  0.75003504  1
  O  O9  1  0.10532603  0.99926804  0.25024396  1
  O  O10  1  0.60428702  0.50147302  0.74974101  1
  O  O11  1  0.40854602  0.49813502  0.25016099  1
  O  O12  1  0.72711402  0.21770501  0.05576502  1
  O  O13  1  0.72057303  0.78720803  0.44265099  1
  O  O14  1  0.29934501  0.20862601  0.55232001  1
  O  O15  1  0.29630303  0.78798103  0.94845798  1
