# generated using pymatgen
data_Li4V3FeO8
_symmetry_space_group_name_H-M   'P 1'
_cell_length_a   4.16699505
_cell_length_b   5.11797523
_cell_length_c   7.97812414
_cell_angle_alpha   79.41674042
_cell_angle_beta   74.86389923
_cell_angle_gamma   65.97883606
_symmetry_Int_Tables_number   1
_chemical_formula_structural   Li4V3FeO8
_chemical_formula_sum   'Li4 V3 Fe1 O8'
_cell_volume   149.44042421
_cell_formula_units_Z   1
loop_
 _symmetry_equiv_pos_site_id
 _symmetry_equiv_pos_as_xyz
  1  'x, y, z'
loop_
 _atom_site_type_symbol
 _atom_site_label
 _atom_site_symmetry_multiplicity
 _atom_site_fract_x
 _atom_site_fract_y
 _atom_site_fract_z
 _atom_site_occupancy
  Li  Li0  1  0.25117500  0.37619600  0.12496499  1
  Li  Li1  1  0.25117901  0.87618699  0.62496697  1
  Li  Li2  1  0.50315400  0.24877500  0.74859298  1
  Li  Li3  1  0.50315801  0.74876699  0.24859498  1
  V  V4  1  0.00173601  0.50157199  0.49860198  1
  V  V5  1  0.75290701  0.62296499  0.87479896  1
  V  V6  1  0.00172900  0.00163400  0.99855898  1
  Fe  Fe7  1  0.75291100  0.12290900  0.37484798  1
  O  O8  1  0.23526100  0.15049100  0.38254899  1
  O  O9  1  0.23524501  0.65052199  0.88254197  1
  O  O10  1  0.77033601  0.84807699  0.61482396  1
  O  O11  1  0.77032901  0.34809000  0.11482699  1
  O  O12  1  0.51940601  0.97399499  0.99086996  1
  O  O13  1  0.51941601  0.47396899  0.49087898  1
  O  O14  1  0.98427701  0.77644099  0.25855597  1
  O  O15  1  0.98426901  0.27645000  0.75855597  1
