# generated using pymatgen
data_KMgF3
_symmetry_space_group_name_H-M   'P 1'
_cell_length_a   5.81690311
_cell_length_b   5.81690311
_cell_length_c   8.22876358
_cell_angle_alpha   90.00000000
_cell_angle_beta   90.00000000
_cell_angle_gamma   90.61642456
_symmetry_Int_Tables_number   1
_chemical_formula_structural   KMgF3
_chemical_formula_sum   'K4 Mg4 F12'
_cell_volume   278.41530819
_cell_formula_units_Z   4
loop_
 _symmetry_equiv_pos_site_id
 _symmetry_equiv_pos_as_xyz
  1  'x, y, z'
loop_
 _atom_site_type_symbol
 _atom_site_label
 _atom_site_symmetry_multiplicity
 _atom_site_fract_x
 _atom_site_fract_y
 _atom_site_fract_z
 _atom_site_occupancy
  K  K0  1  0.00959498  0.99040497  0.25000001  1
  K  K1  1  0.99040497  0.00959500  0.75000004  1
  K  K2  1  0.50612097  0.49387899  0.25000001  1
  K  K3  1  0.49387897  0.50612098  0.75000004  1
  Mg  Mg4  1  -0.00000001  0.49999998  1.00000005  1
  Mg  Mg5  1  -0.00000001  0.49999998  0.50000003  1
  Mg  Mg6  1  0.49999999  0.00000000  0.00000000  1
  Mg  Mg7  1  0.49999999  0.00000000  0.50000003  1
  F  F8  1  0.45185097  0.96017597  0.25000001  1
  F  F9  1  0.54814898  0.03982400  0.75000004  1
  F  F10  1  0.96017596  0.45185099  0.75000004  1
  F  F11  1  0.03982399  0.54814898  0.25000001  1
  F  F12  1  0.78184897  0.21815099  0.45719902  1
  F  F13  1  0.21815098  0.78184898  0.95719905  1
  F  F14  1  0.21815098  0.78184898  0.54280103  1
  F  F15  1  0.78184897  0.21815099  0.04280100  1
  F  F16  1  0.28420199  0.28420199  0.00000000  1
  F  F17  1  0.71579796  0.71579798  0.50000003  1
  F  F18  1  0.71579796  0.71579798  0.00000000  1
  F  F19  1  0.28420199  0.28420199  0.50000003  1
