# generated using pymatgen
data_BeHN
_symmetry_space_group_name_H-M   'P 1'
_cell_length_a   3.86593390
_cell_length_b   4.43247986
_cell_length_c   3.86593390
_cell_angle_alpha   64.14522552
_cell_angle_beta   90.00000000
_cell_angle_gamma   115.85477448
_symmetry_Int_Tables_number   1
_chemical_formula_structural   BeHN
_chemical_formula_sum   'Be1 H1 N1'
_cell_volume   52.14686753
_cell_formula_units_Z   1
loop_
 _symmetry_equiv_pos_site_id
 _symmetry_equiv_pos_as_xyz
  1  'x, y, z'
loop_
 _atom_site_type_symbol
 _atom_site_label
 _atom_site_symmetry_multiplicity
 _atom_site_fract_x
 _atom_site_fract_y
 _atom_site_fract_z
 _atom_site_occupancy
  Be  Be0  1  0.00000000  0.00000000  0.00000000  1
  H  H1  1  0.39233707  0.78467402  0.60766296  1
  N  N2  1  0.60766303  0.21532601  0.39233699  1
