# generated using pymatgen
data_LiMn2F5
_symmetry_space_group_name_H-M   'P 1'
_cell_length_a   4.03596401
_cell_length_b   5.73783398
_cell_length_c   10.36085510
_cell_angle_alpha   90.00000000
_cell_angle_beta   90.00000000
_cell_angle_gamma   110.59117889
_symmetry_Int_Tables_number   1
_chemical_formula_structural   LiMn2F5
_chemical_formula_sum   'Li2 Mn4 F10'
_cell_volume   224.60502124
_cell_formula_units_Z   2
loop_
 _symmetry_equiv_pos_site_id
 _symmetry_equiv_pos_as_xyz
  1  'x, y, z'
loop_
 _atom_site_type_symbol
 _atom_site_label
 _atom_site_symmetry_multiplicity
 _atom_site_fract_x
 _atom_site_fract_y
 _atom_site_fract_z
 _atom_site_occupancy
  Mn  Mn0  1  0.85745901  0.71491801  0.56827699  1
  Li  Li1  1  0.85745901  0.71491801  0.93172299  1
  Li  Li2  1  0.14254100  0.28508200  0.43172300  1
  Mn  Mn3  1  0.14254100  0.28508200  0.06827700  1
  Mn  Mn4  1  0.82444901  0.64889801  0.25000000  1
  Mn  Mn5  1  0.17555100  0.35110200  0.74999999  1
  F  F6  1  0.94882701  0.89765401  0.12294500  1
  F  F7  1  0.94882701  0.89765401  0.37705500  1
  F  F8  1  0.29447001  0.58894000  0.58789799  1
  F  F9  1  0.29447001  0.58894000  0.91210199  1
  F  F10  1  0.73224000  0.46448000  0.74999999  1
  F  F11  1  0.26776001  0.53552000  0.25000000  1
  F  F12  1  0.70553000  0.41106000  0.41210200  1
  F  F13  1  0.70553000  0.41106000  0.08789800  1
  F  F14  1  0.05117300  0.10234600  0.87705499  1
  F  F15  1  0.05117300  0.10234600  0.62294499  1
