# generated using pymatgen
data_LiV3GeO10
_symmetry_space_group_name_H-M   'P 1'
_cell_length_a   4.65273285
_cell_length_b   6.63688469
_cell_length_c   6.63688469
_cell_angle_alpha   90.72426605
_cell_angle_beta   91.46470642
_cell_angle_gamma   91.46470642
_symmetry_Int_Tables_number   1
_chemical_formula_structural   LiV3GeO10
_chemical_formula_sum   'Li1 V3 Ge1 O10'
_cell_volume   204.79265804
_cell_formula_units_Z   1
loop_
 _symmetry_equiv_pos_site_id
 _symmetry_equiv_pos_as_xyz
  1  'x, y, z'
loop_
 _atom_site_type_symbol
 _atom_site_label
 _atom_site_symmetry_multiplicity
 _atom_site_fract_x
 _atom_site_fract_y
 _atom_site_fract_z
 _atom_site_occupancy
  Li  Li0  1  -0.00000000  0.00024500  0.99975501  1
  V  V1  1  0.49999994  0.74995801  0.25004195  1
  V  V2  1  0.49999998  0.24923200  0.75076798  1
  V  V3  1  0.62115999  0.25003300  0.25022397  1
  Ge  Ge4  1  0.37883994  0.74977601  0.74996697  1
  O  O5  1  0.29833296  0.46563301  0.75710498  1
  O  O6  1  0.26950198  0.23487500  0.23500798  1
  O  O7  1  0.70166699  0.24289500  0.53436697  1
  O  O8  1  0.73071899  0.23984800  0.96308197  1
  O  O9  1  0.26928100  0.03691800  0.76015200  1
  O  O10  1  0.73259192  0.97737901  0.23590194  1
  O  O11  1  0.26740793  0.76409801  0.02262096  1
  O  O12  1  0.29216694  0.75475601  0.48063997  1
  O  O13  1  0.73049794  0.76499201  0.76512495  1
  O  O14  1  0.70783296  0.51936001  0.24524395  1
