# generated using pymatgen
data_Ba3GdF8
_symmetry_space_group_name_H-M   'P 1'
_cell_length_a   6.40794897
_cell_length_b   6.40794897
_cell_length_c   6.40794897
_cell_angle_alpha   90.00000000
_cell_angle_beta   90.00000000
_cell_angle_gamma   90.00000000
_symmetry_Int_Tables_number   1
_chemical_formula_structural   Ba3GdF8
_chemical_formula_sum   'Ba3 Gd1 F8'
_cell_volume   263.12198321
_cell_formula_units_Z   1
loop_
 _symmetry_equiv_pos_site_id
 _symmetry_equiv_pos_as_xyz
  1  'x, y, z'
loop_
 _atom_site_type_symbol
 _atom_site_label
 _atom_site_symmetry_multiplicity
 _atom_site_fract_x
 _atom_site_fract_y
 _atom_site_fract_z
 _atom_site_occupancy
  Gd  Gd0  1  0.50000000  0.50000000  0.00000000  1
  Ba  Ba1  1  0.50000000  0.00000000  0.50000000  1
  Ba  Ba2  1  -0.00000000  0.50000000  0.50000000  1
  Ba  Ba3  1  0.00000000  0.00000000  0.00000000  1
  F  F4  1  0.09417400  0.90582600  0.40582600  1
  F  F5  1  0.90582600  0.40582600  0.09417400  1
  F  F6  1  0.40582600  0.09417400  0.90582600  1
  F  F7  1  0.59417400  0.59417400  0.59417400  1
  F  F8  1  0.90582600  0.09417400  0.59417400  1
  F  F9  1  0.09417400  0.59417400  0.90582600  1
  F  F10  1  0.59417400  0.90582600  0.09417400  1
  F  F11  1  0.40582600  0.40582600  0.40582600  1
