# generated using pymatgen
data_NaSc2MnAs4
_symmetry_space_group_name_H-M   'P 1'
_cell_length_a   3.94230390
_cell_length_b   7.01912832
_cell_length_c   13.69523430
_cell_angle_alpha   90.00000000
_cell_angle_beta   90.00000000
_cell_angle_gamma   106.30949402
_symmetry_Int_Tables_number   1
_chemical_formula_structural   NaSc2MnAs4
_chemical_formula_sum   'Na2 Sc4 Mn2 As8'
_cell_volume   363.71803661
_cell_formula_units_Z   2
loop_
 _symmetry_equiv_pos_site_id
 _symmetry_equiv_pos_as_xyz
  1  'x, y, z'
loop_
 _atom_site_type_symbol
 _atom_site_label
 _atom_site_symmetry_multiplicity
 _atom_site_fract_x
 _atom_site_fract_y
 _atom_site_fract_z
 _atom_site_occupancy
  Na  Na0  1  0.89032202  0.78064400  0.74999998  1
  Na  Na1  1  0.10967800  0.21935600  0.24999999  1
  Sc  Sc2  1  0.36581300  0.73162600  0.06333600  1
  Sc  Sc3  1  0.63418701  0.26837400  0.56333599  1
  Sc  Sc4  1  0.36581300  0.73162600  0.43666399  1
  Sc  Sc5  1  0.63418701  0.26837400  0.93666398  1
  Mn  Mn6  1  0.83714102  0.67428200  0.24999999  1
  Mn  Mn7  1  0.16285900  0.32571800  0.74999998  1
  As  As8  1  0.00000000  0.00000000  0.49999999  1
  As  As9  1  0.00000000  0.00000000  0.00000000  1
  As  As10  1  0.26262200  0.52524400  0.88963598  1
  As  As11  1  0.73737801  0.47475600  0.11036400  1
  As  As12  1  0.43114300  0.86228600  0.24999999  1
  As  As13  1  0.26262200  0.52524400  0.61036399  1
  As  As14  1  0.56885701  0.13771400  0.74999998  1
  As  As15  1  0.73737801  0.47475600  0.38963599  1
