# generated using pymatgen
data_YTlTe2
_symmetry_space_group_name_H-M   'P 1'
_cell_length_a   4.47386169
_cell_length_b   4.47386169
_cell_length_c   7.75039148
_cell_angle_alpha   73.22454834
_cell_angle_beta   73.22454834
_cell_angle_gamma   60.00000381
_symmetry_Int_Tables_number   1
_chemical_formula_structural   YTlTe2
_chemical_formula_sum   'Y1 Tl1 Te2'
_cell_volume   126.66400011
_cell_formula_units_Z   1
loop_
 _symmetry_equiv_pos_site_id
 _symmetry_equiv_pos_as_xyz
  1  'x, y, z'
loop_
 _atom_site_type_symbol
 _atom_site_label
 _atom_site_symmetry_multiplicity
 _atom_site_fract_x
 _atom_site_fract_y
 _atom_site_fract_z
 _atom_site_occupancy
  Y  Y0  1  0.49527400  0.49527400  0.51417797  1
  Tl  Tl1  1  0.24749400  0.24749400  0.25751799  1
  Te  Te2  1  0.00525600  0.00525600  0.98423198  1
  Te  Te3  1  0.75197599  0.75197601  0.74407196  1
