# generated using pymatgen
data_Ba2MgNi(BO3)4
_symmetry_space_group_name_H-M   'P 1'
_cell_length_a   5.19131756
_cell_length_b   5.19131756
_cell_length_c   11.85158062
_cell_angle_alpha   77.34888458
_cell_angle_beta   77.34888458
_cell_angle_gamma   60.00000381
_symmetry_Int_Tables_number   1
_chemical_formula_structural   Ba2MgNi(BO3)4
_chemical_formula_sum   'Ba2 Mg1 Ni1 B4 O12'
_cell_volume   267.61486473
_cell_formula_units_Z   1
loop_
 _symmetry_equiv_pos_site_id
 _symmetry_equiv_pos_as_xyz
  1  'x, y, z'
loop_
 _atom_site_type_symbol
 _atom_site_label
 _atom_site_symmetry_multiplicity
 _atom_site_fract_x
 _atom_site_fract_y
 _atom_site_fract_z
 _atom_site_occupancy
  Ba  Ba0  1  0.50009304  0.50009302  0.49972097  1
  Ba  Ba1  1  0.00009300  0.00009300  0.99972100  1
  Mg  Mg2  1  0.74905607  0.74905603  0.75283296  1
  Ni  Ni3  1  0.24905602  0.24905601  0.25283299  1
  B  B4  1  0.61692405  0.61692402  0.14922697  1
  B  B5  1  0.11692401  0.11692400  0.64922699  1
  B  B6  1  0.88039108  0.88039103  0.35882596  1
  B  B7  1  0.38039103  0.38039101  0.85882598  1
  O  O8  1  0.91640406  0.40599001  0.14678497  1
  O  O9  1  0.53082106  0.91640403  0.14678496  1
  O  O10  1  0.40599004  0.53082102  0.14678498  1
  O  O11  1  0.03082103  0.90599003  0.64678497  1
  O  O12  1  0.41640402  0.03082100  0.64678499  1
  O  O13  1  0.90599006  0.41640402  0.64678497  1
  O  O14  1  0.07884204  0.98139404  0.36198897  1
  O  O15  1  0.57777503  0.07884200  0.36198898  1
  O  O16  1  0.98139407  0.57777502  0.36198896  1
  O  O17  1  0.07777502  0.48139402  0.86198898  1
  O  O18  1  0.57884203  0.07777500  0.86198898  1
  O  O19  1  0.48139405  0.57884202  0.86198897  1
