# generated using pymatgen
data_Cs2Ba(PO3)4
_symmetry_space_group_name_H-M   'P 1'
_cell_length_a   7.50900984
_cell_length_b   7.50900984
_cell_length_c   7.50900984
_cell_angle_alpha   87.59647369
_cell_angle_beta   61.37783813
_cell_angle_gamma   118.62216187
_symmetry_Int_Tables_number   1
_chemical_formula_structural   Cs2Ba(PO3)4
_chemical_formula_sum   'Cs2 Ba1 P4 O12'
_cell_volume   305.33145504
_cell_formula_units_Z   1
loop_
 _symmetry_equiv_pos_site_id
 _symmetry_equiv_pos_as_xyz
  1  'x, y, z'
loop_
 _atom_site_type_symbol
 _atom_site_label
 _atom_site_symmetry_multiplicity
 _atom_site_fract_x
 _atom_site_fract_y
 _atom_site_fract_z
 _atom_site_occupancy
  Ba  Ba0  1  0.00000000  0.00000000  0.00000000  1
  Cs  Cs1  1  0.50000000  0.57889699  0.92110300  1
  Cs  Cs2  1  0.49999999  0.92110299  0.57889701  1
  P  P3  1  0.12935500  0.12783700  0.43427400  1
  P  P4  1  0.87064499  0.43636999  0.00151900  1
  P  P5  1  0.43788900  0.00151800  0.12783599  1
  P  P6  1  0.56211100  0.43427499  0.43637100  1
  O  O7  1  0.25430900  0.99311099  0.36710902  1
  O  O8  1  0.74569099  0.37858099  0.26119800  1
  O  O9  1  0.63977900  0.26119700  0.99311099  1
  O  O10  1  0.36022100  0.36711000  0.37858100  1
  O  O11  1  0.93796799  0.02214400  0.67363498  1
  O  O12  1  0.06203200  0.38839599  0.91582400  1
  O  O13  1  0.30422100  0.91582399  0.02214302  1
  O  O14  1  0.69577899  0.67363499  0.38839700  1
  O  O15  1  0.06604200  0.16423500  0.27963600  1
  O  O16  1  0.93395799  0.65432199  0.90180700  1
  O  O17  1  0.55612899  0.90180699  0.16423501  1
  O  O18  1  0.44387100  0.27963600  0.65432199  1
