# generated using pymatgen
data_Ba2In3O7
_symmetry_space_group_name_H-M   'P 1'
_cell_length_a   4.25684404
_cell_length_b   4.25684404
_cell_length_c   11.44932842
_cell_angle_alpha   100.71356964
_cell_angle_beta   100.71356964
_cell_angle_gamma   90.00000000
_symmetry_Int_Tables_number   1
_chemical_formula_structural   Ba2In3O7
_chemical_formula_sum   'Ba2 In3 O7'
_cell_volume   200.17185495
_cell_formula_units_Z   1
loop_
 _symmetry_equiv_pos_site_id
 _symmetry_equiv_pos_as_xyz
  1  'x, y, z'
loop_
 _atom_site_type_symbol
 _atom_site_label
 _atom_site_symmetry_multiplicity
 _atom_site_fract_x
 _atom_site_fract_y
 _atom_site_fract_z
 _atom_site_occupancy
  Ba  Ba0  1  0.00000000  0.00000000  0.00000000  1
  Ba  Ba1  1  0.81447701  0.81447700  0.62895400  1
  In  In2  1  0.18552300  0.18552300  0.37104599  1
  In  In3  1  0.59736601  0.59736600  0.19473201  1
  In  In4  1  0.40263400  0.40263400  0.80526799  1
  O  O5  1  0.09619301  0.59619300  0.19238600  1
  O  O6  1  0.50000000  0.50000000  0.00000001  1
  O  O7  1  0.69318901  0.69318900  0.38637801  1
  O  O8  1  0.40380701  0.90380700  0.80761399  1
  O  O9  1  0.59619300  0.09619300  0.19238600  1
  O  O10  1  0.30681100  0.30681100  0.61362199  1
  O  O11  1  0.90380700  0.40380700  0.80761399  1
