# generated using pymatgen
data_CeHfMo2(SO3)2
_symmetry_space_group_name_H-M   'P 1'
_cell_length_a   3.88799810
_cell_length_b   5.28906298
_cell_length_c   9.74767971
_cell_angle_alpha   105.67836761
_cell_angle_beta   90.00000000
_cell_angle_gamma   111.56464386
_symmetry_Int_Tables_number   1
_chemical_formula_structural   CeHfMo2(SO3)2
_chemical_formula_sum   'Ce1 Hf1 Mo2 S2 O6'
_cell_volume   178.37553718
_cell_formula_units_Z   1
loop_
 _symmetry_equiv_pos_site_id
 _symmetry_equiv_pos_as_xyz
  1  'x, y, z'
loop_
 _atom_site_type_symbol
 _atom_site_label
 _atom_site_symmetry_multiplicity
 _atom_site_fract_x
 _atom_site_fract_y
 _atom_site_fract_z
 _atom_site_occupancy
  Hf  Hf0  1  0.72326299  0.44652601  0.20457301  1
  Ce  Ce1  1  0.27673700  0.55347402  0.79542699  1
  Mo  Mo2  1  0.11758500  0.23517001  0.42683899  1
  Mo  Mo3  1  0.88241499  0.76483002  0.57316100  1
  S  S4  1  0.38410700  0.76821402  0.09269002  1
  S  S5  1  0.61589299  0.23178601  0.90730998  1
  O  O6  1  0.15210400  0.30420801  0.24733200  1
  O  O7  1  0.84789599  0.69579202  0.75266800  1
  O  O8  1  0.33237800  0.66475602  0.56797300  1
  O  O9  1  0.66762199  0.33524401  0.43202700  1
  O  O10  1  0.07864000  0.15728000  0.62694398  1
  O  O11  1  0.92135999  0.84272003  0.37305601  1
