# generated using pymatgen
data_ErAg2Se3
_symmetry_space_group_name_H-M   'P 1'
_cell_length_a   4.09920406
_cell_length_b   5.79788780
_cell_length_c   7.09252548
_cell_angle_alpha   114.12522125
_cell_angle_beta   106.79693604
_cell_angle_gamma   90.00000000
_symmetry_Int_Tables_number   1
_chemical_formula_structural   ErAg2Se3
_chemical_formula_sum   'Er1 Ag2 Se3'
_cell_volume   145.92686589
_cell_formula_units_Z   1
loop_
 _symmetry_equiv_pos_site_id
 _symmetry_equiv_pos_as_xyz
  1  'x, y, z'
loop_
 _atom_site_type_symbol
 _atom_site_label
 _atom_site_symmetry_multiplicity
 _atom_site_fract_x
 _atom_site_fract_y
 _atom_site_fract_z
 _atom_site_occupancy
  Ag  Ag0  1  0.99986000  0.99986002  0.99971996  1
  Er  Er1  1  0.66730500  0.66730501  0.33460998  1
  Ag  Ag2  1  0.33187700  0.33187701  0.66375398  1
  Se  Se3  1  0.65929800  0.15929800  0.31859600  1
  Se  Se4  1  0.01055000  0.51055001  0.02109998  1
  Se  Se5  1  0.33111000  0.83111002  0.66221996  1
