# generated using pymatgen
data_MgBSF5
_symmetry_space_group_name_H-M   'P 1'
_cell_length_a   5.14241552
_cell_length_b   5.14241552
_cell_length_c   5.34419107
_cell_angle_alpha   61.24128723
_cell_angle_beta   61.24128723
_cell_angle_gamma   60.00000381
_symmetry_Int_Tables_number   1
_chemical_formula_structural   MgBSF5
_chemical_formula_sum   'Mg1 B1 S1 F5'
_cell_volume   101.76530152
_cell_formula_units_Z   1
loop_
 _symmetry_equiv_pos_site_id
 _symmetry_equiv_pos_as_xyz
  1  'x, y, z'
loop_
 _atom_site_type_symbol
 _atom_site_label
 _atom_site_symmetry_multiplicity
 _atom_site_fract_x
 _atom_site_fract_y
 _atom_site_fract_z
 _atom_site_occupancy
  Mg  Mg0  1  0.50000003  0.50000002  0.49999995  1
  B  B1  1  0.00000000  0.00000000  0.00000000  1
  S  S2  1  0.87251504  0.22666601  0.23018696  1
  F  F3  1  0.22666602  0.67063203  0.23018696  1
  F  F4  1  0.67063205  0.87251504  0.23018695  1
  F  F5  1  0.77333404  0.32936801  0.76981294  1
  F  F6  1  0.32936802  0.12748501  0.76981296  1
  F  F7  1  0.12748502  0.77333403  0.76981294  1
