# generated using pymatgen
data_YBiW2S6O
_symmetry_space_group_name_H-M   'P 1'
_cell_length_a   4.33404398
_cell_length_b   6.39332581
_cell_length_c   6.39332581
_cell_angle_alpha   112.75347900
_cell_angle_beta   95.21443939
_cell_angle_gamma   95.21443939
_symmetry_Int_Tables_number   1
_chemical_formula_structural   YBiW2S6O
_chemical_formula_sum   'Y1 Bi1 W2 S6 O1'
_cell_volume   161.15048838
_cell_formula_units_Z   1
loop_
 _symmetry_equiv_pos_site_id
 _symmetry_equiv_pos_as_xyz
  1  'x, y, z'
loop_
 _atom_site_type_symbol
 _atom_site_label
 _atom_site_symmetry_multiplicity
 _atom_site_fract_x
 _atom_site_fract_y
 _atom_site_fract_z
 _atom_site_occupancy
  Y  Y0  1  0.50000001  0.00000000  -0.00000000  1
  W  W1  1  1.00000002  0.32583300  0.67416699  1
  W  W2  1  1.00000001  0.67416699  0.32583299  1
  Bi  Bi3  1  0.93597001  0.67263999  0.95088298  1
  S  S4  1  0.93597001  0.95088299  0.67263999  1
  S  S5  1  0.27462000  0.60880099  0.60880099  1
  S  S6  1  0.50000000  0.74216699  0.25783300  1
  S  S7  1  0.50000001  0.25783300  0.74216699  1
  O  O8  1  0.72538001  0.39119899  0.39119899  1
  S  S9  1  0.06403000  0.04911700  0.32735999  1
  S  S10  1  0.06403000  0.32736000  0.04911700  1
