# generated using pymatgen
data_LiAgF3
_symmetry_space_group_name_H-M   'P 1'
_cell_length_a   3.80311894
_cell_length_b   6.94525528
_cell_length_c   10.22499371
_cell_angle_alpha   90.00000000
_cell_angle_beta   90.00000000
_cell_angle_gamma   92.67696381
_symmetry_Int_Tables_number   1
_chemical_formula_structural   LiAgF3
_chemical_formula_sum   'Li4 Ag4 F12'
_cell_volume   269.78449184
_cell_formula_units_Z   4
loop_
 _symmetry_equiv_pos_site_id
 _symmetry_equiv_pos_as_xyz
  1  'x, y, z'
loop_
 _atom_site_type_symbol
 _atom_site_label
 _atom_site_symmetry_multiplicity
 _atom_site_fract_x
 _atom_site_fract_y
 _atom_site_fract_z
 _atom_site_occupancy
  Li  Li0  1  0.27207800  0.79182498  0.45535301  1
  Li  Li1  1  0.27207800  0.29182499  0.04464700  1
  Li  Li2  1  0.72792201  0.70817498  0.95535303  1
  Li  Li3  1  0.72792201  0.20817500  0.54464702  1
  Ag  Ag4  1  0.24824000  0.98006098  0.77932102  1
  Ag  Ag5  1  0.24824000  0.48006099  0.72067902  1
  Ag  Ag6  1  0.75176001  0.51993899  0.27932101  1
  Ag  Ag7  1  0.75176001  0.01993900  0.22067901  1
  F  F8  1  0.21907300  0.65831798  0.89204503  1
  F  F9  1  0.21907300  0.15831800  0.60795502  1
  F  F10  1  0.28964700  0.76275898  0.63534902  1
  F  F11  1  0.25316500  0.55638499  0.35589401  1
  F  F12  1  0.28964700  0.26275899  0.86465102  1
  F  F13  1  0.25316500  0.05638500  0.14410600  1
  F  F14  1  0.74683501  0.94361498  0.85589402  1
  F  F15  1  0.71035301  0.73724098  0.13534900  1
  F  F16  1  0.74683501  0.44361499  0.64410602  1
  F  F17  1  0.71035301  0.23724099  0.36465101  1
  F  F18  1  0.78092701  0.84168198  0.39204501  1
  F  F19  1  0.78092701  0.34168199  0.10795500  1
