# generated using pymatgen
data_BiBr4N
_symmetry_space_group_name_H-M   'P 1'
_cell_length_a   3.84944510
_cell_length_b   3.84944510
_cell_length_c   8.33818531
_cell_angle_alpha   90.00000000
_cell_angle_beta   90.00000000
_cell_angle_gamma   90.00000000
_symmetry_Int_Tables_number   1
_chemical_formula_structural   BiBr4N
_chemical_formula_sum   'Bi1 Br4 N1'
_cell_volume   123.55712781
_cell_formula_units_Z   1
loop_
 _symmetry_equiv_pos_site_id
 _symmetry_equiv_pos_as_xyz
  1  'x, y, z'
loop_
 _atom_site_type_symbol
 _atom_site_label
 _atom_site_symmetry_multiplicity
 _atom_site_fract_x
 _atom_site_fract_y
 _atom_site_fract_z
 _atom_site_occupancy
  Bi  Bi0  1  -0.00000000  0.49999999  0.15591899  1
  N  N1  1  0.49999999  0.00000000  0.84408097  1
  Br  Br2  1  0.49999999  0.49999999  0.00000000  1
  Br  Br3  1  0.00000000  0.00000000  0.00000000  1
  Br  Br4  1  -0.00000000  0.49999999  0.68064097  1
  Br  Br5  1  0.49999999  0.00000000  0.31935899  1
