# generated using pymatgen
data_NaLa(CN3)2
_symmetry_space_group_name_H-M   'P 1'
_cell_length_a   5.25781441
_cell_length_b   5.25781441
_cell_length_c   6.91629505
_cell_angle_alpha   67.65991974
_cell_angle_beta   67.65991974
_cell_angle_gamma   59.99999619
_symmetry_Int_Tables_number   1
_chemical_formula_structural   NaLa(CN3)2
_chemical_formula_sum   'Na1 La1 C2 N6'
_cell_volume   148.78144907
_cell_formula_units_Z   1
loop_
 _symmetry_equiv_pos_site_id
 _symmetry_equiv_pos_as_xyz
  1  'x, y, z'
loop_
 _atom_site_type_symbol
 _atom_site_label
 _atom_site_symmetry_multiplicity
 _atom_site_fract_x
 _atom_site_fract_y
 _atom_site_fract_z
 _atom_site_occupancy
  Na  Na0  1  0.00000000  0.00000000  0.00000000  1
  La  La1  1  0.49999994  0.49999998  0.50000004  1
  C  C2  1  0.74999992  0.74999997  0.75000006  1
  C  C3  1  0.24999997  0.24999999  0.25000002  1
  N  N4  1  0.49736997  0.00263000  0.25000002  1
  N  N5  1  0.99736990  0.74999997  0.75000007  1
  N  N6  1  0.50262992  0.99736996  0.75000006  1
  N  N7  1  0.00262999  0.24999999  0.25000001  1
  N  N8  1  0.74999993  0.50262998  0.75000005  1
  N  N9  1  0.24999996  0.49736998  0.25000003  1
