# generated using pymatgen
data_Li3Cu6SiPS9
_symmetry_space_group_name_H-M   'P 1'
_cell_length_a   6.23493624
_cell_length_b   6.36792850
_cell_length_c   8.23989582
_cell_angle_alpha   90.00000000
_cell_angle_beta   90.00000000
_cell_angle_gamma   98.27938843
_symmetry_Int_Tables_number   1
_chemical_formula_structural   Li3Cu6SiPS9
_chemical_formula_sum   'Li3 Cu6 Si1 P1 S9'
_cell_volume   323.74405088
_cell_formula_units_Z   1
loop_
 _symmetry_equiv_pos_site_id
 _symmetry_equiv_pos_as_xyz
  1  'x, y, z'
loop_
 _atom_site_type_symbol
 _atom_site_label
 _atom_site_symmetry_multiplicity
 _atom_site_fract_x
 _atom_site_fract_y
 _atom_site_fract_z
 _atom_site_occupancy
  Li  Li0  1  0.69074499  0.07567600  0.13401100  1
  Li  Li1  1  0.80925494  0.92432401  0.63401101  1
  Li  Li2  1  0.30925495  0.92432401  0.86598902  1
  Cu  Cu3  1  0.19074499  0.07567600  0.36598901  1
  Cu  Cu4  1  0.55405396  0.66522101  0.36555401  1
  Cu  Cu5  1  0.94594597  0.33477900  0.86555402  1
  Cu  Cu6  1  0.44594598  0.33477900  0.63444601  1
  Cu  Cu7  1  0.05405396  0.66522101  0.13444600  1
  Si  Si8  1  0.88146197  0.37462800  0.38889501  1
  Cu  Cu9  1  0.61853796  0.62537201  0.88889502  1
  S  S10  1  0.11853796  0.62537201  0.61110501  1
  P  P11  1  0.38146197  0.37462800  0.11110500  1
  S  S12  1  0.55556998  0.27166100  0.90724602  1
  S  S13  1  0.94442995  0.72833901  0.40724601  1
  S  S14  1  0.44442995  0.72833901  0.09275400  1
  S  S15  1  0.05556998  0.27166100  0.59275401  1
  S  S16  1  0.54459498  0.28382400  0.34134101  1
  S  S17  1  0.95540495  0.71617601  0.84134102  1
  S  S18  1  0.45540495  0.71617601  0.65865901  1
  S  S19  1  0.04459498  0.28382400  0.15865900  1
