# generated using pymatgen
data_Dy2NbCoP4(Se5S)2
_symmetry_space_group_name_H-M   'P 1'
_cell_length_a   4.96134615
_cell_length_b   6.66926479
_cell_length_c   14.60059357
_cell_angle_alpha   90.00000000
_cell_angle_beta   91.10289001
_cell_angle_gamma   90.00000000
_symmetry_Int_Tables_number   1
_chemical_formula_structural   Dy2NbCoP4(Se5S)2
_chemical_formula_sum   'Dy2 Nb1 Co1 P4 Se10 S2'
_cell_volume   483.02269567
_cell_formula_units_Z   1
loop_
 _symmetry_equiv_pos_site_id
 _symmetry_equiv_pos_as_xyz
  1  'x, y, z'
loop_
 _atom_site_type_symbol
 _atom_site_label
 _atom_site_symmetry_multiplicity
 _atom_site_fract_x
 _atom_site_fract_y
 _atom_site_fract_z
 _atom_site_occupancy
  Nb  Nb0  1  0.23787199  0.02260000  0.35835901  1
  Dy  Dy1  1  0.73787198  0.47740001  0.85835902  1
  Co  Co2  1  0.76212798  0.97740003  0.64164102  1
  Dy  Dy3  1  0.26212799  0.52260002  0.14164101  1
  P  P4  1  0.24935899  0.97543503  0.88430002  1
  P  P5  1  0.74935898  0.52456502  0.38430001  1
  P  P6  1  0.75064098  0.02456500  0.11570001  1
  P  P7  1  0.25064099  0.47543501  0.61570001  1
  Se  Se8  1  0.29330299  0.81599803  0.76325802  1
  S  S9  1  0.79330298  0.68400202  0.26325801  1
  Se  Se10  1  0.70669698  0.18400201  0.23674201  1
  Se  Se11  1  0.20669699  0.31599801  0.73674202  1
  Se  Se12  1  0.82863998  0.95047203  0.86007202  1
  Se  Se13  1  0.32863999  0.54952802  0.36007201  1
  Se  Se14  1  0.17135999  0.04952800  0.13992800  1
  Se  Se15  1  0.67135998  0.45047201  0.63992802  1
  Se  Se16  1  0.24194099  0.69640702  0.94883402  1
  Se  Se17  1  0.74194098  0.80359302  0.44883402  1
  S  S18  1  0.75805898  0.30359301  0.05116601  1
  Se  Se19  1  0.25805899  0.19640701  0.55116601  1
