# generated using pymatgen
data_Na3CoF6
_symmetry_space_group_name_H-M   'P 1'
_cell_length_a   5.73553181
_cell_length_b   5.93581820
_cell_length_c   8.33922863
_cell_angle_alpha   90.00000000
_cell_angle_beta   90.65851593
_cell_angle_gamma   90.00000000
_symmetry_Int_Tables_number   1
_chemical_formula_structural   Na3CoF6
_chemical_formula_sum   'Na6 Co2 F12'
_cell_volume   283.89090495
_cell_formula_units_Z   2
loop_
 _symmetry_equiv_pos_site_id
 _symmetry_equiv_pos_as_xyz
  1  'x, y, z'
loop_
 _atom_site_type_symbol
 _atom_site_label
 _atom_site_symmetry_multiplicity
 _atom_site_fract_x
 _atom_site_fract_y
 _atom_site_fract_z
 _atom_site_occupancy
  Na  Na0  1  0.50000002  0.49999998  1.00000001  1
  Na  Na1  1  -0.00000000  0.00000000  0.50000001  1
  Na  Na2  1  0.51194002  0.94622297  0.24358500  1
  Na  Na3  1  0.48806002  0.05377700  0.75641501  1
  Na  Na4  1  0.98806003  0.44622299  0.25641500  1
  Na  Na5  1  0.01194000  0.55377698  0.74358501  1
  Co  Co6  1  0.50000002  0.49999998  0.50000001  1
  Co  Co7  1  0.00000000  0.00000000  0.00000000  1
  F  F8  1  0.67044302  0.20414699  0.42370800  1
  F  F9  1  0.32955701  0.79585297  0.57629201  1
  F  F10  1  0.82955703  0.70414698  0.07629200  1
  F  F11  1  0.17044301  0.29585299  0.92370802  1
  F  F12  1  0.37150501  0.56914398  0.26538100  1
  F  F13  1  0.62849502  0.43085599  0.73461901  1
  F  F14  1  0.12849500  0.06914400  0.23461900  1
  F  F15  1  0.87150503  0.93085597  0.76538101  1
  F  F16  1  0.80301003  0.67782598  0.43962900  1
  F  F17  1  0.19699001  0.32217399  0.56037101  1
  F  F18  1  0.69699002  0.17782599  0.06037100  1
  F  F19  1  0.30301001  0.82217397  0.93962901  1
