# generated using pymatgen
data_Sr2CaBiI5
_symmetry_space_group_name_H-M   'P 1'
_cell_length_a   7.65846491
_cell_length_b   8.49120903
_cell_length_c   11.65360069
_cell_angle_alpha   90.00000000
_cell_angle_beta   90.66442871
_cell_angle_gamma   90.00000000
_symmetry_Int_Tables_number   1
_chemical_formula_structural   Sr2CaBiI5
_chemical_formula_sum   'Sr4 Ca2 Bi2 I10'
_cell_volume   757.77834399
_cell_formula_units_Z   2
loop_
 _symmetry_equiv_pos_site_id
 _symmetry_equiv_pos_as_xyz
  1  'x, y, z'
loop_
 _atom_site_type_symbol
 _atom_site_label
 _atom_site_symmetry_multiplicity
 _atom_site_fract_x
 _atom_site_fract_y
 _atom_site_fract_z
 _atom_site_occupancy
  Sr  Sr0  1  0.05107200  0.39252400  0.75243799  1
  Sr  Sr1  1  0.44892801  0.89252400  0.74756201  1
  Sr  Sr2  1  0.55107201  0.10747600  0.25243802  1
  Sr  Sr3  1  0.94892801  0.60747600  0.24756203  1
  Ca  Ca4  1  0.00000000  0.00000000  0.00000000  1
  Ca  Ca5  1  0.50000001  0.50000000  0.50000001  1
  Bi  Bi6  1  0.17549600  0.68186900  0.93232799  1
  Bi  Bi7  1  0.32959600  0.18057100  0.92435300  1
  I  I8  1  0.64904301  0.54686000  0.74981501  1
  I  I9  1  0.85095701  0.04686000  0.75018502  1
  I  I10  1  0.17040400  0.68057100  0.57564700  1
  I  I11  1  0.32450400  0.18186900  0.56767200  1
  I  I12  1  0.67549601  0.81813100  0.43232802  1
  I  I13  1  0.82959601  0.31942900  0.42435302  1
  I  I14  1  0.14904300  0.95314000  0.24981500  1
  I  I15  1  0.35095700  0.45314000  0.25018501  1
  I  I16  1  0.67040401  0.81942900  0.07564702  1
  I  I17  1  0.82450401  0.31813100  0.06767203  1
