# generated using pymatgen
data_Eu4CO2F9
_symmetry_space_group_name_H-M   'P 1'
_cell_length_a   4.09957457
_cell_length_b   4.09957457
_cell_length_c   15.98046017
_cell_angle_alpha   90.00000000
_cell_angle_beta   90.00000000
_cell_angle_gamma   119.24407959
_symmetry_Int_Tables_number   1
_chemical_formula_structural   Eu4CO2F9
_chemical_formula_sum   'Eu4 C1 O2 F9'
_cell_volume   234.34486296
_cell_formula_units_Z   1
loop_
 _symmetry_equiv_pos_site_id
 _symmetry_equiv_pos_as_xyz
  1  'x, y, z'
loop_
 _atom_site_type_symbol
 _atom_site_label
 _atom_site_symmetry_multiplicity
 _atom_site_fract_x
 _atom_site_fract_y
 _atom_site_fract_z
 _atom_site_occupancy
  Eu  Eu0  1  0.33245104  0.66531605  0.59472399  1
  Eu  Eu1  1  0.66531605  0.33245102  0.40527600  1
  Eu  Eu2  1  0.66531605  0.33245102  0.09472400  1
  Eu  Eu3  1  0.33245104  0.66531605  0.90527599  1
  C  C4  1  0.06755001  0.13506501  0.74999999  1
  F  F5  1  0.13506501  0.06755000  0.25000000  1
  O  O6  1  0.98116709  0.96374107  0.67822399  1
  F  F7  1  0.96374109  0.98116707  0.32177600  1
  F  F8  1  0.96374109  0.98116707  0.17822400  1
  F  F9  1  0.98116709  0.96374107  0.82177599  1
  F  F10  1  0.33077904  0.66546305  0.05686700  1
  F  F11  1  0.66546305  0.33077902  0.94313299  1
  F  F12  1  0.66546305  0.33077902  0.55686699  1
  F  F13  1  0.33077904  0.66546305  0.44313300  1
  O  O14  1  0.24946403  0.49532604  0.74999999  1
  F  F15  1  0.49532604  0.24946402  0.25000000  1
