# generated using pymatgen
data_KF
_symmetry_space_group_name_H-M   'P 1'
_cell_length_a   4.11215878
_cell_length_b   4.15470886
_cell_length_c   5.84579134
_cell_angle_alpha   90.00000000
_cell_angle_beta   88.85158539
_cell_angle_gamma   90.00000000
_symmetry_Int_Tables_number   1
_chemical_formula_structural   KF
_chemical_formula_sum   'K2 F2'
_cell_volume   99.85424605
_cell_formula_units_Z   2
loop_
 _symmetry_equiv_pos_site_id
 _symmetry_equiv_pos_as_xyz
  1  'x, y, z'
loop_
 _atom_site_type_symbol
 _atom_site_label
 _atom_site_symmetry_multiplicity
 _atom_site_fract_x
 _atom_site_fract_y
 _atom_site_fract_z
 _atom_site_occupancy
  K  K0  1  0.20852501  0.25000001  0.76011699  1
  K  K1  1  0.79147504  0.75000002  0.23988300  1
  F  F2  1  0.72313204  0.75000002  0.74459499  1
  F  F3  1  0.27686802  0.25000001  0.25540500  1
