# generated using pymatgen
data_MnSe
_symmetry_space_group_name_H-M   'P 1'
_cell_length_a   4.22495317
_cell_length_b   4.22495317
_cell_length_c   7.33435011
_cell_angle_alpha   73.26025391
_cell_angle_beta   73.26025391
_cell_angle_gamma   60.00001144
_symmetry_Int_Tables_number   1
_chemical_formula_structural   MnSe
_chemical_formula_sum   'Mn2 Se2'
_cell_volume   106.92566603
_cell_formula_units_Z   2
loop_
 _symmetry_equiv_pos_site_id
 _symmetry_equiv_pos_as_xyz
  1  'x, y, z'
loop_
 _atom_site_type_symbol
 _atom_site_label
 _atom_site_symmetry_multiplicity
 _atom_site_fract_x
 _atom_site_fract_y
 _atom_site_fract_z
 _atom_site_occupancy
  Mn  Mn0  1  0.49980400  0.49980401  0.50058796  1
  Mn  Mn1  1  0.00082800  0.00082800  0.99751597  1
  Se  Se2  1  0.13034600  0.13034600  0.60896198  1
  Se  Se3  1  0.61902200  0.61902201  0.14293397  1
