# generated using pymatgen
data_Sn3Bi4Pb3NO9
_symmetry_space_group_name_H-M   'P 1'
_cell_length_a   3.51050711
_cell_length_b   9.61262131
_cell_length_c   11.95122623
_cell_angle_alpha   90.00000000
_cell_angle_beta   90.00000000
_cell_angle_gamma   90.00000000
_symmetry_Int_Tables_number   1
_chemical_formula_structural   Sn3Bi4Pb3NO9
_chemical_formula_sum   'Sn3 Bi4 Pb3 N1 O9'
_cell_volume   403.29622570
_cell_formula_units_Z   1
loop_
 _symmetry_equiv_pos_site_id
 _symmetry_equiv_pos_as_xyz
  1  'x, y, z'
loop_
 _atom_site_type_symbol
 _atom_site_label
 _atom_site_symmetry_multiplicity
 _atom_site_fract_x
 _atom_site_fract_y
 _atom_site_fract_z
 _atom_site_occupancy
  Sn  Sn0  1  0.74999998  0.60713398  0.63100599  1
  Bi  Bi1  1  0.24999999  0.39286599  0.36899399  1
  Bi  Bi2  1  0.74999998  0.10713400  0.86899398  1
  Bi  Bi3  1  0.24999999  0.89286597  0.13100600  1
  Pb  Pb4  1  0.74999998  0.76974298  0.28495099  1
  Bi  Bi5  1  0.24999999  0.73025698  0.78495098  1
  Sn  Sn6  1  0.74999998  0.26974299  0.21504900  1
  Sn  Sn7  1  0.24999999  0.23025699  0.71504899  1
  N  N8  1  0.74999998  0.07992800  0.09800000  1
  Pb  Pb9  1  0.24999999  0.91612497  0.32257499  1
  Pb  Pb10  1  0.74999998  0.08387500  0.67742499  1
  O  O11  1  0.24999999  0.41612499  0.17742500  1
  O  O12  1  0.74999998  0.72212198  0.09717400  1
  O  O13  1  0.24999999  0.27787799  0.90282598  1
  O  O14  1  0.74999998  0.22212199  0.40282599  1
  O  O15  1  0.24999999  0.77787798  0.59717399  1
  O  O16  1  0.74999998  0.57992798  0.40199999  1
  O  O17  1  0.24999999  0.42007199  0.59799999  1
  O  O18  1  0.24999999  0.92007197  0.90199998  1
  O  O19  1  0.74999998  0.58387498  0.82257498  1
