# generated using pymatgen
data_AlSi4PN3O
_symmetry_space_group_name_H-M   'P 1'
_cell_length_a   4.96034384
_cell_length_b   4.99804354
_cell_length_c   5.94600773
_cell_angle_alpha   98.09163666
_cell_angle_beta   106.50376129
_cell_angle_gamma   60.26702881
_symmetry_Int_Tables_number   1
_chemical_formula_structural   AlSi4PN3O
_chemical_formula_sum   'Al1 Si4 P1 N3 O1'
_cell_volume   122.73226089
_cell_formula_units_Z   1
loop_
 _symmetry_equiv_pos_site_id
 _symmetry_equiv_pos_as_xyz
  1  'x, y, z'
loop_
 _atom_site_type_symbol
 _atom_site_label
 _atom_site_symmetry_multiplicity
 _atom_site_fract_x
 _atom_site_fract_y
 _atom_site_fract_z
 _atom_site_occupancy
  Al  Al0  1  0.83392904  0.33181898  0.49996001  1
  Si  Si1  1  0.66441304  0.67122697  0.00011403  1
  Si  Si2  1  0.33385502  0.33224498  0.99996500  1
  P  P3  1  0.99949304  0.00109300  0.99995600  1
  Si  Si4  1  0.07287001  0.31356899  0.17318801  1
  N  N5  1  0.72291303  0.02139500  0.17432401  1
  N  N6  1  0.38541802  0.66311797  0.16995002  1
  Si  Si7  1  0.95135605  0.66341097  0.83012402  1
  O  O8  1  0.61348203  0.31392299  0.82687201  1
  N  N9  1  0.25560401  0.02153500  0.82554699  1
