# generated using pymatgen
data_K4NaScRe2F12
_symmetry_space_group_name_H-M   'P 1'
_cell_length_a   6.00051737
_cell_length_b   6.00051737
_cell_length_c   8.75233269
_cell_angle_alpha   90.00000000
_cell_angle_beta   90.00000000
_cell_angle_gamma   90.00000000
_symmetry_Int_Tables_number   1
_chemical_formula_structural   K4NaScRe2F12
_chemical_formula_sum   'K4 Na1 Sc1 Re2 F12'
_cell_volume   315.13831724
_cell_formula_units_Z   1
loop_
 _symmetry_equiv_pos_site_id
 _symmetry_equiv_pos_as_xyz
  1  'x, y, z'
loop_
 _atom_site_type_symbol
 _atom_site_label
 _atom_site_symmetry_multiplicity
 _atom_site_fract_x
 _atom_site_fract_y
 _atom_site_fract_z
 _atom_site_occupancy
  K  K0  1  -0.00000000  0.49999999  0.24999999  1
  K  K1  1  0.49999999  0.00000000  0.74999998  1
  K  K2  1  0.49999999  0.00000000  0.24999999  1
  K  K3  1  -0.00000000  0.49999999  0.74999998  1
  Na  Na4  1  0.00000000  0.00000000  0.00000000  1
  Sc  Sc5  1  0.49999999  0.49999999  0.49999999  1
  Re  Re6  1  0.00000000  0.00000000  0.49999999  1
  Re  Re7  1  0.49999999  0.49999999  0.00000000  1
  F  F8  1  0.00000000  0.00000000  0.27241135  1
  F  F9  1  0.49999999  0.49999999  0.22758863  1
  F  F10  1  0.00000000  0.00000000  0.72758862  1
  F  F11  1  0.49999999  0.49999999  0.77241134  1
  F  F12  1  0.33767355  0.21419453  0.01179790  1
  F  F13  1  0.66232642  0.78580545  0.01179790  1
  F  F14  1  0.78580545  0.33767355  0.98820207  1
  F  F15  1  0.21419453  0.66232642  0.98820207  1
  F  F16  1  0.83767354  0.28580546  0.51179789  1
  F  F17  1  0.16232644  0.71419451  0.51179789  1
  F  F18  1  0.28580546  0.16232644  0.48820209  1
  F  F19  1  0.71419451  0.83767354  0.48820209  1
