# generated using pymatgen
data_CdO
_symmetry_space_group_name_H-M   'P 1'
_cell_length_a   6.13012886
_cell_length_b   6.38678980
_cell_length_c   7.39281702
_cell_angle_alpha   90.00000000
_cell_angle_beta   90.00000000
_cell_angle_gamma   90.00000000
_symmetry_Int_Tables_number   1
_chemical_formula_structural   CdO
_chemical_formula_sum   'Cd8 O8'
_cell_volume   289.44242219
_cell_formula_units_Z   8
loop_
 _symmetry_equiv_pos_site_id
 _symmetry_equiv_pos_as_xyz
  1  'x, y, z'
loop_
 _atom_site_type_symbol
 _atom_site_label
 _atom_site_symmetry_multiplicity
 _atom_site_fract_x
 _atom_site_fract_y
 _atom_site_fract_z
 _atom_site_occupancy
  Cd  Cd0  1  0.00201900  0.15493400  0.50000000  1
  Cd  Cd1  1  0.50201901  0.84506603  0.00000000  1
  Cd  Cd2  1  0.49176201  0.32582701  0.74747200  1
  Cd  Cd3  1  0.49176201  0.32582701  0.25252800  1
  Cd  Cd4  1  0.99176202  0.67417302  0.75252800  1
  Cd  Cd5  1  0.99176202  0.67417302  0.24747200  1
  Cd  Cd6  1  0.50097501  0.82816503  0.50000000  1
  Cd  Cd7  1  0.00097500  0.17183501  0.00000000  1
  O  O8  1  0.14655800  0.82471303  0.50000000  1
  O  O9  1  0.64655801  0.17528701  0.00000000  1
  O  O10  1  0.62283801  0.14571900  0.50000000  1
  O  O11  1  0.12283800  0.85428103  0.00000000  1
  O  O12  1  0.11704300  0.33194301  0.75948900  1
  O  O13  1  0.11704300  0.33194301  0.24051100  1
  O  O14  1  0.61704301  0.66805702  0.74051100  1
  O  O15  1  0.61704301  0.66805702  0.25948900  1
