# generated using pymatgen
data_La2Be2P3O2
_symmetry_space_group_name_H-M   'P 1'
_cell_length_a   3.86405802
_cell_length_b   5.98710203
_cell_length_c   6.89677954
_cell_angle_alpha   64.27895355
_cell_angle_beta   73.73117065
_cell_angle_gamma   90.00193024
_symmetry_Int_Tables_number   1
_chemical_formula_structural   La2Be2P3O2
_chemical_formula_sum   'La2 Be2 P3 O2'
_cell_volume   136.61772849
_cell_formula_units_Z   1
loop_
 _symmetry_equiv_pos_site_id
 _symmetry_equiv_pos_as_xyz
  1  'x, y, z'
loop_
 _atom_site_type_symbol
 _atom_site_label
 _atom_site_symmetry_multiplicity
 _atom_site_fract_x
 _atom_site_fract_y
 _atom_site_fract_z
 _atom_site_occupancy
  La  La0  1  0.50000000  0.49999999  0.99999900  1
  La  La1  1  0.29729798  0.79727498  0.40548899  1
  Be  Be2  1  0.70269901  0.20272200  0.59451299  1
  Be  Be3  1  0.00000100  0.00000000  0.99999902  1
  P  P4  1  0.50000101  0.00000100  0.99999901  1
  P  P5  1  0.14505598  0.90353098  0.70990800  1
  P  P6  1  0.85494302  0.09646900  0.29009198  1
  O  O7  1  0.85494200  0.61343799  0.29009797  1
  O  O8  1  0.14505899  0.38656299  0.70990001  1
