# generated using pymatgen
data_HfGaIr
_symmetry_space_group_name_H-M   'P 1'
_cell_length_a   3.60991096
_cell_length_b   7.12705994
_cell_length_c   7.12705994
_cell_angle_alpha   120.00000000
_cell_angle_beta   90.00000000
_cell_angle_gamma   90.00000000
_symmetry_Int_Tables_number   1
_chemical_formula_structural   HfGaIr
_chemical_formula_sum   'Hf3 Ga3 Ir3'
_cell_volume   158.79906627
_cell_formula_units_Z   3
loop_
 _symmetry_equiv_pos_site_id
 _symmetry_equiv_pos_as_xyz
  1  'x, y, z'
loop_
 _atom_site_type_symbol
 _atom_site_label
 _atom_site_symmetry_multiplicity
 _atom_site_fract_x
 _atom_site_fract_y
 _atom_site_fract_z
 _atom_site_occupancy
  Hf  Hf0  1  -0.00000000  0.59949201  0.59949200  1
  Hf  Hf1  1  1.00000001  0.00000000  0.40050800  1
  Hf  Hf2  1  -0.00000000  0.40050800  -0.00000000  1
  Ga  Ga3  1  0.50000000  0.25823100  0.25823100  1
  Ga  Ga4  1  0.50000000  1.00000001  0.74176900  1
  Ga  Ga5  1  0.50000000  0.74176901  1.00000001  1
  Ir  Ir6  1  0.50000000  0.66666667  0.33333334  1
  Ir  Ir7  1  0.50000000  0.33333334  0.66666667  1
  Ir  Ir8  1  0.00000000  0.00000000  0.00000000  1
