# generated using pymatgen
data_Li2PO4
_symmetry_space_group_name_H-M   'P 1'
_cell_length_a   5.67931223
_cell_length_b   5.72528744
_cell_length_c   5.72528744
_cell_angle_alpha   60.87747955
_cell_angle_beta   60.26528549
_cell_angle_gamma   60.26528549
_symmetry_Int_Tables_number   1
_chemical_formula_structural   Li2PO4
_chemical_formula_sum   'Li4 P2 O8'
_cell_volume   133.02275536
_cell_formula_units_Z   2
loop_
 _symmetry_equiv_pos_site_id
 _symmetry_equiv_pos_as_xyz
  1  'x, y, z'
loop_
 _atom_site_type_symbol
 _atom_site_label
 _atom_site_symmetry_multiplicity
 _atom_site_fract_x
 _atom_site_fract_y
 _atom_site_fract_z
 _atom_site_occupancy
  Li  Li0  1  0.49999998  0.50000001  0.50000000  1
  Li  Li1  1  0.49999998  0.00000000  0.00000001  1
  Li  Li2  1  0.99999996  0.50000001  0.00000000  1
  Li  Li3  1  0.49999998  0.50000001  -0.00000000  1
  P  P4  1  0.88381497  0.86618501  0.36618500  1
  P  P5  1  0.11618500  0.13381500  0.63381500  1
  O  O6  1  0.75992197  0.25344400  0.75344301  1
  O  O7  1  0.23319199  0.25344300  0.75344301  1
  O  O8  1  0.23766099  0.24666200  0.27801600  1
  O  O9  1  0.23766200  0.77801601  0.74666100  1
  O  O10  1  0.76233898  0.75333801  0.72198400  1
  O  O11  1  0.76233797  0.22198400  0.25333901  1
  O  O12  1  0.76680798  0.74655701  0.24655700  1
  O  O13  1  0.24007800  0.74655601  0.24655699  1
