# generated using pymatgen
data_MgH3F4
_symmetry_space_group_name_H-M   'P 1'
_cell_length_a   4.49882603
_cell_length_b   5.39347076
_cell_length_c   5.84536219
_cell_angle_alpha   89.99996185
_cell_angle_beta   89.99356079
_cell_angle_gamma   89.99995422
_symmetry_Int_Tables_number   1
_chemical_formula_structural   MgH3F4
_chemical_formula_sum   'Mg2 H6 F8'
_cell_volume   141.83354276
_cell_formula_units_Z   2
loop_
 _symmetry_equiv_pos_site_id
 _symmetry_equiv_pos_as_xyz
  1  'x, y, z'
loop_
 _atom_site_type_symbol
 _atom_site_label
 _atom_site_symmetry_multiplicity
 _atom_site_fract_x
 _atom_site_fract_y
 _atom_site_fract_z
 _atom_site_occupancy
  Mg  Mg0  1  0.47650601  0.51358802  0.75151999  1
  Mg  Mg1  1  0.02349400  0.01359100  0.49847998  1
  H  H2  1  0.47675101  0.51366702  0.25127000  1
  H  H3  1  0.02324900  0.01366600  0.99872497  1
  H  H4  1  0.55880000  0.02464700  0.24888198  1
  H  H5  1  0.55881000  0.02464300  0.74886396  1
  H  H6  1  0.94120001  0.52464802  0.00111900  1
  H  H7  1  0.94119001  0.52464302  0.50113698  1
  F  F8  1  0.75475700  0.12788301  0.24896598  1
  F  F9  1  0.75475100  0.12788701  0.74892896  1
  F  F10  1  0.74524201  0.62788303  0.00103401  1
  F  F11  1  0.74524901  0.62788703  0.50107099  1
  F  F12  1  0.26355502  0.88772404  0.24851902  1
  F  F13  1  0.26356402  0.88772004  0.74856001  1
  F  F14  1  0.23644501  0.38772402  0.00148101  1
  F  F15  1  0.23643601  0.38772002  0.50144000  1
