# generated using pymatgen
data_Hf3B3(MoIr2)4
_symmetry_space_group_name_H-M   'P 1'
_cell_length_a   5.73761511
_cell_length_b   5.73761511
_cell_length_c   5.73761511
_cell_angle_alpha   94.81232452
_cell_angle_beta   94.81232452
_cell_angle_gamma   94.81233978
_symmetry_Int_Tables_number   1
_chemical_formula_structural   Hf3B3(MoIr2)4
_chemical_formula_sum   'Hf3 B3 Mo4 Ir8'
_cell_volume   186.76618258
_cell_formula_units_Z   1
loop_
 _symmetry_equiv_pos_site_id
 _symmetry_equiv_pos_as_xyz
  1  'x, y, z'
loop_
 _atom_site_type_symbol
 _atom_site_label
 _atom_site_symmetry_multiplicity
 _atom_site_fract_x
 _atom_site_fract_y
 _atom_site_fract_z
 _atom_site_occupancy
  Hf  Hf0  1  0.00000000  0.00000000  0.00000000  1
  Hf  Hf1  1  0.33031200  0.33031200  0.33031200  1
  Hf  Hf2  1  0.66968800  0.66968800  0.66968800  1
  B  B3  1  0.00000000  0.00000000  0.50000001  1
  B  B4  1  -0.00000000  0.50000000  -0.00000001  1
  B  B5  1  0.50000000  0.00000000  -0.00000001  1
  Ir  Ir6  1  0.80422800  0.30674000  0.30673999  1
  Ir  Ir7  1  0.30674000  0.30674000  0.80422801  1
  Ir  Ir8  1  0.30674000  0.80422801  0.30673999  1
  Ir  Ir9  1  0.19577200  0.69326001  0.69326001  1
  Ir  Ir10  1  0.69326000  0.69326001  0.19577199  1
  Ir  Ir11  1  0.69326000  0.19577200  0.69326001  1
  Ir  Ir12  1  0.62449400  0.37550600  -0.00000001  1
  Ir  Ir13  1  0.37550600  0.00000000  0.62449401  1
  Mo  Mo14  1  -0.00000000  0.62449400  0.37550600  1
  Mo  Mo15  1  0.62449400  0.00000000  0.37550600  1
  Mo  Mo16  1  -0.00000000  0.37550600  0.62449401  1
  Mo  Mo17  1  0.37550600  0.62449400  1.00000001  1
