# generated using pymatgen
data_K3TeO5
_symmetry_space_group_name_H-M   'P 1'
_cell_length_a   7.39904213
_cell_length_b   7.39904308
_cell_length_c   7.90031099
_cell_angle_alpha   117.92240143
_cell_angle_beta   117.92240906
_cell_angle_gamma   90.00000000
_symmetry_Int_Tables_number   1
_chemical_formula_structural   K3TeO5
_chemical_formula_sum   'K6 Te2 O10'
_cell_volume   324.07498464
_cell_formula_units_Z   2
loop_
 _symmetry_equiv_pos_site_id
 _symmetry_equiv_pos_as_xyz
  1  'x, y, z'
loop_
 _atom_site_type_symbol
 _atom_site_label
 _atom_site_symmetry_multiplicity
 _atom_site_fract_x
 _atom_site_fract_y
 _atom_site_fract_z
 _atom_site_occupancy
  K  K0  1  0.75000006  0.75000098  0.49999999  1
  K  K1  1  0.25000002  0.25000099  0.50000000  1
  K  K2  1  0.68079803  0.18079800  0.99999501  1
  K  K3  1  0.31919605  0.81919698  0.99999499  1
  K  K4  1  0.81920206  0.68080198  0.00000498  1
  K  K5  1  0.18080402  0.31920299  0.00000499  1
  Te  Te6  1  0.75000003  0.24999999  0.50000000  1
  Te  Te7  1  0.25000004  0.74999898  0.49999999  1
  O  O8  1  0.00000000  0.00000000  0.00000000  1
  O  O9  1  0.50000004  0.49999999  -0.00000002  1
  O  O10  1  0.79258802  0.02094500  0.31353400  1
  O  O11  1  0.47905805  0.70740598  0.68646399  1
  O  O12  1  0.20740705  0.97905797  0.68646398  1
  O  O13  1  0.70741203  0.20741099  0.68646501  1
  O  O14  1  0.97905405  0.47905399  0.68646600  1
  O  O15  1  0.29259505  0.79259398  0.31353698  1
  O  O16  1  0.02094303  0.52094199  0.31353699  1
  O  O17  1  0.52094603  0.29258799  0.31353400  1
