# generated using pymatgen
data_Sm3Dy
_symmetry_space_group_name_H-M   'P 1'
_cell_length_a   6.00606680
_cell_length_b   7.34831381
_cell_length_c   7.34831429
_cell_angle_alpha   60.00000000
_cell_angle_beta   90.00000000
_cell_angle_gamma   90.00000000
_symmetry_Int_Tables_number   1
_chemical_formula_structural   Sm3Dy
_chemical_formula_sum   'Sm6 Dy2'
_cell_volume   280.86408426
_cell_formula_units_Z   2
loop_
 _symmetry_equiv_pos_site_id
 _symmetry_equiv_pos_as_xyz
  1  'x, y, z'
loop_
 _atom_site_type_symbol
 _atom_site_label
 _atom_site_symmetry_multiplicity
 _atom_site_fract_x
 _atom_site_fract_y
 _atom_site_fract_z
 _atom_site_occupancy
  Sm  Sm0  1  0.75000003  0.66008603  0.16995698  1
  Sm  Sm1  1  0.75000003  0.16995701  0.66008600  1
  Sm  Sm2  1  0.75000003  0.16995701  0.16995700  1
  Sm  Sm3  1  0.25000001  0.83004303  0.83004298  1
  Sm  Sm4  1  0.25000001  0.83004303  0.33991398  1
  Sm  Sm5  1  0.25000001  0.33991401  0.83004300  1
  Dy  Dy6  1  0.75000003  0.66666669  0.66666665  1
  Dy  Dy7  1  0.25000001  0.33333335  0.33333333  1
