# generated using pymatgen
data_In2Ga2Ni7Sn3
_symmetry_space_group_name_H-M   'P 1'
_cell_length_a   5.06607676
_cell_length_b   6.61718845
_cell_length_c   6.61718845
_cell_angle_alpha   70.62850189
_cell_angle_beta   81.22330475
_cell_angle_gamma   81.22330475
_symmetry_Int_Tables_number   1
_chemical_formula_structural   In2Ga2Ni7Sn3
_chemical_formula_sum   'In2 Ga2 Ni7 Sn3'
_cell_volume   205.57976650
_cell_formula_units_Z   1
loop_
 _symmetry_equiv_pos_site_id
 _symmetry_equiv_pos_as_xyz
  1  'x, y, z'
loop_
 _atom_site_type_symbol
 _atom_site_label
 _atom_site_symmetry_multiplicity
 _atom_site_fract_x
 _atom_site_fract_y
 _atom_site_fract_z
 _atom_site_occupancy
  In  In0  1  0.00000000  0.00000000  0.00000000  1
  Ga  Ga1  1  0.06213500  0.61457501  0.61457499  1
  Ga  Ga2  1  0.93786500  0.38542500  0.38542499  1
  Ni  Ni3  1  0.62445400  0.22274700  0.22274700  1
  Ni  Ni4  1  0.37554600  0.77725301  0.77725299  1
  Ni  Ni5  1  0.68600200  0.36506700  0.78648500  1
  In  In6  1  0.31399800  0.21351500  0.63493300  1
  Ni  Ni7  1  0.31399800  0.63493301  0.21351499  1
  Sn  Sn8  1  0.68600200  0.78648501  0.36506699  1
  Sn  Sn9  1  0.20037000  0.35600300  0.99523900  1
  Sn  Sn10  1  0.79963000  0.00476100  0.64399700  1
  Ni  Ni11  1  0.79963000  0.64399701  0.00476099  1
  Ni  Ni12  1  0.20037000  0.99523901  0.35600299  1
  Ni  Ni13  1  0.50000000  0.00000000  -0.00000000  1
