# generated using pymatgen
data_Ba4ZrBi(SbO6)2
_symmetry_space_group_name_H-M   'P 1'
_cell_length_a   7.10699749
_cell_length_b   7.10699749
_cell_length_c   7.10699749
_cell_angle_alpha   109.47122192
_cell_angle_beta   109.47122192
_cell_angle_gamma   109.47122192
_symmetry_Int_Tables_number   1
_chemical_formula_structural   Ba4ZrBi(SbO6)2
_chemical_formula_sum   'Ba4 Zr1 Bi1 Sb2 O12'
_cell_volume   276.33543234
_cell_formula_units_Z   1
loop_
 _symmetry_equiv_pos_site_id
 _symmetry_equiv_pos_as_xyz
  1  'x, y, z'
loop_
 _atom_site_type_symbol
 _atom_site_label
 _atom_site_symmetry_multiplicity
 _atom_site_fract_x
 _atom_site_fract_y
 _atom_site_fract_z
 _atom_site_occupancy
  Ba  Ba0  1  1.00000006  0.50000003  1.00000007  1
  Ba  Ba1  1  0.00000000  0.00000000  0.50000001  1
  Ba  Ba2  1  0.50000005  0.50000003  0.50000005  1
  Ba  Ba3  1  0.50000001  0.00000000  0.00000001  1
  Zr  Zr4  1  0.00000000  0.00000000  0.00000000  1
  Bi  Bi5  1  0.50000005  0.50000003  0.00000004  1
  Sb  Sb6  1  0.50000001  0.00000000  0.50000002  1
  Sb  Sb7  1  0.00000003  0.50000003  0.50000004  1
  O  O8  1  0.50000003  0.25000002  0.75000004  1
  O  O9  1  0.75000004  0.25000002  0.50000004  1
  O  O10  1  0.25000005  0.75000005  0.50000006  1
  O  O11  1  0.75000005  0.50000003  0.25000005  1
  O  O12  1  0.25000004  0.50000003  0.75000005  1
  O  O13  1  0.50000006  0.75000005  0.25000006  1
  O  O14  1  0.00000005  0.72587804  0.72587806  1
  O  O15  1  0.72587807  0.72587804  0.00000006  1
  O  O16  1  0.00000002  0.27412202  0.27412202  1
  O  O17  1  0.72587808  1.00000006  0.72587809  1
  O  O18  1  0.27412207  1.00000006  0.27412207  1
  O  O19  1  0.27412203  0.27412202  0.00000002  1
