# generated using pymatgen
data_Nb4Cr7Ga2
_symmetry_space_group_name_H-M   'P 1'
_cell_length_a   4.89288044
_cell_length_b   4.89288044
_cell_length_c   9.27353764
_cell_angle_alpha   74.70383453
_cell_angle_beta   74.70383453
_cell_angle_gamma   59.99999237
_symmetry_Int_Tables_number   1
_chemical_formula_structural   Nb4Cr7Ga2
_chemical_formula_sum   'Nb4 Cr7 Ga2'
_cell_volume   183.12953278
_cell_formula_units_Z   1
loop_
 _symmetry_equiv_pos_site_id
 _symmetry_equiv_pos_as_xyz
  1  'x, y, z'
loop_
 _atom_site_type_symbol
 _atom_site_label
 _atom_site_symmetry_multiplicity
 _atom_site_fract_x
 _atom_site_fract_y
 _atom_site_fract_z
 _atom_site_occupancy
  Nb  Nb0  1  0.83136097  0.83136101  0.50591706  1
  Nb  Nb1  1  0.16863899  0.16863900  0.49408302  1
  Nb  Nb2  1  0.65546397  0.65546401  0.03360803  1
  Nb  Nb3  1  0.34453599  0.34453601  0.96639205  1
  Ga  Ga4  1  0.54929698  0.54929701  0.35210904  1
  Ga  Ga5  1  0.45070298  0.45070301  0.64789104  1
  Cr  Cr6  1  0.00000000  0.00000000  0.00000000  1
  Cr  Cr7  1  0.90944398  0.40884701  0.77226505  1
  Cr  Cr8  1  0.90944396  0.90944401  0.77226507  1
  Cr  Cr9  1  0.40884696  0.90944401  0.77226506  1
  Cr  Cr10  1  0.09055598  0.59115301  0.22773502  1
  Cr  Cr11  1  0.09055600  0.09055600  0.22773501  1
  Cr  Cr12  1  0.59115299  0.09055600  0.22773502  1
