# generated using pymatgen
data_Pr2Ga3Ge
_symmetry_space_group_name_H-M   'P 1'
_cell_length_a   3.86951208
_cell_length_b   4.80540895
_cell_length_c   8.31247997
_cell_angle_alpha   89.98362732
_cell_angle_beta   90.00000000
_cell_angle_gamma   90.00000000
_symmetry_Int_Tables_number   1
_chemical_formula_structural   Pr2Ga3Ge
_chemical_formula_sum   'Pr2 Ga3 Ge1'
_cell_volume   154.56713408
_cell_formula_units_Z   1
loop_
 _symmetry_equiv_pos_site_id
 _symmetry_equiv_pos_as_xyz
  1  'x, y, z'
loop_
 _atom_site_type_symbol
 _atom_site_label
 _atom_site_symmetry_multiplicity
 _atom_site_fract_x
 _atom_site_fract_y
 _atom_site_fract_z
 _atom_site_occupancy
  Pr  Pr0  1  0.00000000  0.99994700  0.02845302  1
  Pr  Pr1  1  0.00000000  0.49989100  0.48612302  1
  Ga  Ga2  1  0.49999999  0.50007500  0.83473403  1
  Ga  Ga3  1  0.49999999  0.49994500  0.18209601  1
  Ga  Ga4  1  0.49999999  0.99993800  0.64488104  1
  Ge  Ge5  1  0.49999999  0.00000300  0.32371301  1
