# generated using pymatgen
data_Cs2Ge(SbS5)2
_symmetry_space_group_name_H-M   'P 1'
_cell_length_a   6.72539377
_cell_length_b   8.09707355
_cell_length_c   9.44745827
_cell_angle_alpha   108.01991272
_cell_angle_beta   92.35219574
_cell_angle_gamma   106.68852997
_symmetry_Int_Tables_number   1
_chemical_formula_structural   Cs2Ge(SbS5)2
_chemical_formula_sum   'Cs2 Ge1 Sb2 S10'
_cell_volume   463.84101808
_cell_formula_units_Z   1
loop_
 _symmetry_equiv_pos_site_id
 _symmetry_equiv_pos_as_xyz
  1  'x, y, z'
loop_
 _atom_site_type_symbol
 _atom_site_label
 _atom_site_symmetry_multiplicity
 _atom_site_fract_x
 _atom_site_fract_y
 _atom_site_fract_z
 _atom_site_occupancy
  Cs  Cs0  1  0.61039100  0.45889701  0.24246300  1
  Cs  Cs1  1  0.38960899  0.54110301  0.75753701  1
  Sb  Sb2  1  0.81707102  0.07022000  0.38749800  1
  Sb  Sb3  1  0.18292896  0.92978002  0.61250202  1
  S  S4  1  0.00000000  0.00000000  0.00000000  1
  Ge  Ge5  1  0.24062797  0.84521802  0.24218801  1
  S  S6  1  0.75937202  0.15478200  0.75781200  1
  S  S7  1  0.44329501  0.13324100  0.83420201  1
  S  S8  1  0.55670498  0.86675902  0.16579801  1
  S  S9  1  0.16662097  0.66107602  0.38016001  1
  S  S10  1  0.83337901  0.33892401  0.61984000  1
  S  S11  1  0.98438202  0.28150301  0.97755301  1
  S  S12  1  0.01561796  0.71849702  0.02244701  1
  S  S13  1  0.21654200  0.12023800  0.37140500  1
  S  S14  1  0.78345798  0.87976202  0.62859501  1
