# generated using pymatgen
data_PrSi2
_symmetry_space_group_name_H-M   'P 1'
_cell_length_a   4.15125179
_cell_length_b   4.15125179
_cell_length_c   7.91305780
_cell_angle_alpha   105.20681000
_cell_angle_beta   105.20681000
_cell_angle_gamma   90.00000000
_symmetry_Int_Tables_number   1
_chemical_formula_structural   PrSi2
_chemical_formula_sum   'Pr2 Si4'
_cell_volume   126.63541880
_cell_formula_units_Z   2
loop_
 _symmetry_equiv_pos_site_id
 _symmetry_equiv_pos_as_xyz
  1  'x, y, z'
loop_
 _atom_site_type_symbol
 _atom_site_label
 _atom_site_symmetry_multiplicity
 _atom_site_fract_x
 _atom_site_fract_y
 _atom_site_fract_z
 _atom_site_occupancy
  Pr  Pr0  1  0.58229102  0.58229102  0.16458199  1
  Pr  Pr1  1  0.33229100  0.83229103  0.66458200  1
  Si  Si2  1  0.99948103  0.99948104  0.99896200  1
  Si  Si3  1  0.74948103  0.24948101  0.49896200  1
  Si  Si4  1  0.16522800  0.16522801  0.33045600  1
  Si  Si5  1  0.91522803  0.41522802  0.83045600  1
