# generated using pymatgen
data_CsPd3S2
_symmetry_space_group_name_H-M   'P 1'
_cell_length_a   5.63066483
_cell_length_b   6.28977394
_cell_length_c   6.28977394
_cell_angle_alpha   120.00000000
_cell_angle_beta   90.00000000
_cell_angle_gamma   90.00000000
_symmetry_Int_Tables_number   1
_chemical_formula_structural   CsPd3S2
_chemical_formula_sum   'Cs1 Pd3 S2'
_cell_volume   192.91250545
_cell_formula_units_Z   1
loop_
 _symmetry_equiv_pos_site_id
 _symmetry_equiv_pos_as_xyz
  1  'x, y, z'
loop_
 _atom_site_type_symbol
 _atom_site_label
 _atom_site_symmetry_multiplicity
 _atom_site_fract_x
 _atom_site_fract_y
 _atom_site_fract_z
 _atom_site_occupancy
  Cs  Cs0  1  0.50000002  0.00000000  -0.00000000  1
  Pd  Pd1  1  0.00000000  1.00000001  0.49999999  1
  Pd  Pd2  1  1.00000003  0.50000000  0.50000000  1
  Pd  Pd3  1  0.00000000  0.50000000  -0.00000000  1
  S  S4  1  0.30102501  0.66666667  0.33333333  1
  S  S5  1  0.69897502  0.33333334  0.66666666  1
