# generated using pymatgen
data_Eu2Zn3GeSb4
_symmetry_space_group_name_H-M   'P 1'
_cell_length_a   4.54087114
_cell_length_b   4.54087114
_cell_length_c   10.55881691
_cell_angle_alpha   90.00000000
_cell_angle_beta   90.00000000
_cell_angle_gamma   90.00000000
_symmetry_Int_Tables_number   1
_chemical_formula_structural   Eu2Zn3GeSb4
_chemical_formula_sum   'Eu2 Zn3 Ge1 Sb4'
_cell_volume   217.71763868
_cell_formula_units_Z   1
loop_
 _symmetry_equiv_pos_site_id
 _symmetry_equiv_pos_as_xyz
  1  'x, y, z'
loop_
 _atom_site_type_symbol
 _atom_site_label
 _atom_site_symmetry_multiplicity
 _atom_site_fract_x
 _atom_site_fract_y
 _atom_site_fract_z
 _atom_site_occupancy
  Eu  Eu0  1  0.49999998  0.00000000  0.76061201  1
  Eu  Eu1  1  0.00000000  0.49999998  0.23938800  1
  Zn  Zn2  1  0.00000000  0.49999998  0.63320901  1
  Ge  Ge3  1  0.49999998  0.00000000  0.36679100  1
  Zn  Zn4  1  0.00000000  0.00000000  0.00000000  1
  Zn  Zn5  1  0.49999998  0.49999998  0.00000000  1
  Sb  Sb6  1  0.49999998  0.49999998  0.50000000  1
  Sb  Sb7  1  0.00000000  0.49999998  0.87470701  1
  Sb  Sb8  1  0.49999998  0.00000000  0.12529300  1
  Sb  Sb9  1  0.00000000  0.00000000  0.50000000  1
