# generated using pymatgen
data_Na2Ir3NF12
_symmetry_space_group_name_H-M   'P 1'
_cell_length_a   5.57471943
_cell_length_b   5.57471943
_cell_length_c   7.86550379
_cell_angle_alpha   90.00000000
_cell_angle_beta   90.00000000
_cell_angle_gamma   90.70603943
_symmetry_Int_Tables_number   1
_chemical_formula_structural   Na2Ir3NF12
_chemical_formula_sum   'Na2 Ir3 N1 F12'
_cell_volume   244.42160932
_cell_formula_units_Z   1
loop_
 _symmetry_equiv_pos_site_id
 _symmetry_equiv_pos_as_xyz
  1  'x, y, z'
loop_
 _atom_site_type_symbol
 _atom_site_label
 _atom_site_symmetry_multiplicity
 _atom_site_fract_x
 _atom_site_fract_y
 _atom_site_fract_z
 _atom_site_occupancy
  Na  Na0  1  0.98151846  0.01848153  0.49999999  1
  Na  Na1  1  0.51437115  0.48562882  -0.00000000  1
  Ir  Ir2  1  0.00098421  0.50073167  0.74734999  1
  Ir  Ir3  1  0.00098421  0.50073167  0.25264998  1
  Ir  Ir4  1  0.49926829  0.99901577  0.25264998  1
  N  N5  1  0.49926829  0.99901577  0.74734999  1
  F  F6  1  0.21828853  0.21934733  0.75657395  1
  F  F7  1  0.78065264  0.78171145  0.75657395  1
  F  F8  1  0.78065264  0.78171145  0.24342603  1
  F  F9  1  0.21828853  0.21934733  0.24342603  1
  F  F10  1  0.70754692  0.29245307  0.72028916  1
  F  F11  1  0.28997410  0.71002587  0.78828473  1
  F  F12  1  0.28997410  0.71002587  0.21171525  1
  F  F13  1  0.70754692  0.29245307  0.27971082  1
  F  F14  1  0.95757367  0.46397401  -0.00000000  1
  F  F15  1  0.04379527  0.53561418  0.49999999  1
  F  F16  1  0.53602597  0.04242631  -0.00000000  1
  F  F17  1  0.46438578  0.95620471  0.49999999  1
