# generated using pymatgen
data_Al4Si2OF12
_symmetry_space_group_name_H-M   'P 1'
_cell_length_a   7.50358200
_cell_length_b   7.56466436
_cell_length_c   7.57725525
_cell_angle_alpha   119.69903564
_cell_angle_beta   90.00000000
_cell_angle_gamma   119.73324585
_symmetry_Int_Tables_number   1
_chemical_formula_structural   Al4Si2OF12
_chemical_formula_sum   'Al4 Si2 O1 F12'
_cell_volume   306.71832750
_cell_formula_units_Z   1
loop_
 _symmetry_equiv_pos_site_id
 _symmetry_equiv_pos_as_xyz
  1  'x, y, z'
loop_
 _atom_site_type_symbol
 _atom_site_label
 _atom_site_symmetry_multiplicity
 _atom_site_fract_x
 _atom_site_fract_y
 _atom_site_fract_z
 _atom_site_occupancy
  Al  Al0  1  0.50341998  0.50839401  0.98632599  1
  Al  Al1  1  0.00497398  0.50839401  0.98632599  1
  Al  Al2  1  0.50199000  0.00398000  0.51471299  1
  Al  Al3  1  0.50348000  0.00696000  0.01338600  1
  Si  Si4  1  0.98840198  0.50637401  0.43117100  1
  Si  Si5  1  0.51797198  0.50637401  0.43117100  1
  F  F6  1  0.57439897  0.76684101  0.95405800  1
  O  O7  1  0.17507697  0.72892001  0.33495601  1
  F  F8  1  0.19244197  0.76684101  0.95405800  1
  F  F9  1  0.55384297  0.72892001  0.33495601  1
  F  F10  1  0.20200198  0.40400400  0.96375399  1
  F  F11  1  0.56070499  0.12141000  0.32424900  1
  F  F12  1  0.44807199  0.27061200  0.10399000  1
  F  F13  1  0.80879099  0.24787300  0.69718699  1
  F  F14  1  0.82253999  0.27061200  0.10399000  1
  F  F15  1  0.43908199  0.24787300  0.69718699  1
  F  F16  1  0.80319398  0.60638801  0.06034601  1
  F  F17  1  0.44362097  0.88724201  0.70845200  1
  F  F18  1  0.83099597  0.66199201  0.52472200  1
