# generated using pymatgen
data_MgBO2
_symmetry_space_group_name_H-M   'P 1'
_cell_length_a   3.23317814
_cell_length_b   3.23317814
_cell_length_c   4.90038300
_cell_angle_alpha   70.73787689
_cell_angle_beta   70.73787689
_cell_angle_gamma   59.99999619
_symmetry_Int_Tables_number   1
_chemical_formula_structural   MgBO2
_chemical_formula_sum   'Mg1 B1 O2'
_cell_volume   41.01820592
_cell_formula_units_Z   1
loop_
 _symmetry_equiv_pos_site_id
 _symmetry_equiv_pos_as_xyz
  1  'x, y, z'
loop_
 _atom_site_type_symbol
 _atom_site_label
 _atom_site_symmetry_multiplicity
 _atom_site_fract_x
 _atom_site_fract_y
 _atom_site_fract_z
 _atom_site_occupancy
  Mg  Mg0  1  0.00000000  0.00000000  0.00000000  1
  B  B1  1  0.50000003  0.50000001  0.49999996  1
  O  O2  1  0.41029902  0.41029901  0.76910297  1
  O  O3  1  0.58970103  0.58970101  0.23089695  1
