# generated using pymatgen
data_KWO4
_symmetry_space_group_name_H-M   'P 1'
_cell_length_a   6.00964785
_cell_length_b   6.00964785
_cell_length_c   7.97191048
_cell_angle_alpha   112.14343262
_cell_angle_beta   112.14343262
_cell_angle_gamma   90.00000000
_symmetry_Int_Tables_number   1
_chemical_formula_structural   KWO4
_chemical_formula_sum   'K2 W2 O8'
_cell_volume   243.59722233
_cell_formula_units_Z   2
loop_
 _symmetry_equiv_pos_site_id
 _symmetry_equiv_pos_as_xyz
  1  'x, y, z'
loop_
 _atom_site_type_symbol
 _atom_site_label
 _atom_site_symmetry_multiplicity
 _atom_site_fract_x
 _atom_site_fract_y
 _atom_site_fract_z
 _atom_site_occupancy
  K  K0  1  0.75000004  0.25000001  0.50000002  1
  K  K1  1  0.00000000  0.00000000  0.00000000  1
  W  W2  1  0.25000004  0.75000004  0.50000003  1
  W  W3  1  0.50000004  0.50000002  0.00000004  1
  O  O4  1  0.21200802  0.31643102  0.85131500  1
  O  O5  1  0.28488403  0.46200702  0.35131502  1
  O  O6  1  0.06643104  0.88930804  0.35131603  1
  O  O7  1  0.63930805  0.53488503  0.85131603  1
  O  O8  1  0.11069203  0.71511503  0.64868402  1
  O  O9  1  0.68356904  0.36069202  0.14868403  1
  O  O10  1  0.46511605  0.78799304  0.14868505  1
  O  O11  1  0.53799206  0.93356904  0.64868504  1
