# generated using pymatgen
data_Ho4Ga13
_symmetry_space_group_name_H-M   'P 1'
_cell_length_a   7.51012039
_cell_length_b   7.51012039
_cell_length_c   7.51012039
_cell_angle_alpha   109.47122192
_cell_angle_beta   109.47122192
_cell_angle_gamma   109.47122192
_symmetry_Int_Tables_number   1
_chemical_formula_structural   Ho4Ga13
_chemical_formula_sum   'Ho4 Ga13'
_cell_volume   326.07596312
_cell_formula_units_Z   1
loop_
 _symmetry_equiv_pos_site_id
 _symmetry_equiv_pos_as_xyz
  1  'x, y, z'
loop_
 _atom_site_type_symbol
 _atom_site_label
 _atom_site_symmetry_multiplicity
 _atom_site_fract_x
 _atom_site_fract_y
 _atom_site_fract_z
 _atom_site_occupancy
  Ho  Ho0  1  0.50000003  0.50000002  0.50000004  1
  Ho  Ho1  1  0.00000003  0.50000002  1.00000002  1
  Ho  Ho2  1  0.00000000  0.00000000  0.50000000  1
  Ho  Ho3  1  0.50000000  0.00000000  0.00000001  1
  Ga  Ga4  1  0.50000005  0.75000002  0.25000005  1
  Ga  Ga5  1  0.75000002  0.25000001  0.50000003  1
  Ga  Ga6  1  0.25000003  0.50000002  0.75000003  1
  Ga  Ga7  1  0.25000005  0.75000002  0.50000004  1
  Ga  Ga8  1  0.50000002  0.25000001  0.75000002  1
  Ga  Ga9  1  0.75000003  0.50000002  0.25000004  1
  Ga  Ga10  1  0.00000000  0.00000000  0.00000000  1
  Ga  Ga11  1  1.00000005  0.71163902  0.71163906  1
  Ga  Ga12  1  0.71163905  0.71163902  0.00000006  1
  Ga  Ga13  1  0.71163900  0.00000000  0.71163901  1
  Ga  Ga14  1  1.00000002  0.28836101  0.28836104  1
  Ga  Ga15  1  0.28836102  0.28836101  0.00000002  1
  Ga  Ga16  1  0.28836100  0.00000000  0.28836100  1
