# generated using pymatgen
data_Tb2BrN2
_symmetry_space_group_name_H-M   'P 1'
_cell_length_a   4.05497789
_cell_length_b   4.05497694
_cell_length_c   7.12747622
_cell_angle_alpha   90.00000000
_cell_angle_beta   90.00000000
_cell_angle_gamma   120.00000763
_symmetry_Int_Tables_number   1
_chemical_formula_structural   Tb2BrN2
_chemical_formula_sum   'Tb2 Br1 N2'
_cell_volume   101.49467443
_cell_formula_units_Z   1
loop_
 _symmetry_equiv_pos_site_id
 _symmetry_equiv_pos_as_xyz
  1  'x, y, z'
loop_
 _atom_site_type_symbol
 _atom_site_label
 _atom_site_symmetry_multiplicity
 _atom_site_fract_x
 _atom_site_fract_y
 _atom_site_fract_z
 _atom_site_occupancy
  Tb  Tb0  1  0.33333335  0.66666671  0.28823199  1
  Tb  Tb1  1  0.66666669  0.33333336  0.71176798  1
  Br  Br2  1  0.00000000  0.00000000  0.00000000  1
  N  N3  1  0.66666669  0.33333336  0.37438499  1
  N  N4  1  0.33333335  0.66666671  0.62561498  1
