# generated using pymatgen
data_Hg3PbBrO3
_symmetry_space_group_name_H-M   'P 1'
_cell_length_a   5.66651917
_cell_length_b   5.66651917
_cell_length_c   5.66651869
_cell_angle_alpha   89.39856720
_cell_angle_beta   89.39856720
_cell_angle_gamma   89.39855957
_symmetry_Int_Tables_number   1
_chemical_formula_structural   Hg3PbBrO3
_chemical_formula_sum   'Hg3 Pb1 Br1 O3'
_cell_volume   181.91887505
_cell_formula_units_Z   1
loop_
 _symmetry_equiv_pos_site_id
 _symmetry_equiv_pos_as_xyz
  1  'x, y, z'
loop_
 _atom_site_type_symbol
 _atom_site_label
 _atom_site_symmetry_multiplicity
 _atom_site_fract_x
 _atom_site_fract_y
 _atom_site_fract_z
 _atom_site_occupancy
  Hg  Hg0  1  0.00047000  0.00047000  0.00047000  1
  Hg  Hg1  1  0.50235200  0.99370001  0.99370009  1
  Hg  Hg2  1  0.99370001  0.99370001  0.50235208  1
  Pb  Pb3  1  0.99370001  0.50235201  0.99370009  1
  O  O4  1  0.24965600  0.74419001  0.24965604  1
  Br  Br5  1  0.24965600  0.24965600  0.74419004  1
  O  O6  1  0.74419001  0.24965600  0.24965604  1
  O  O7  1  0.76627701  0.76627701  0.76627708  1
