# generated using pymatgen
data_PrTlPd2
_symmetry_space_group_name_H-M   'P 1'
_cell_length_a   4.39881992
_cell_length_b   4.39881992
_cell_length_c   9.73009777
_cell_angle_alpha   90.00000000
_cell_angle_beta   90.00000000
_cell_angle_gamma   90.00000000
_symmetry_Int_Tables_number   1
_chemical_formula_structural   PrTlPd2
_chemical_formula_sum   'Pr2 Tl2 Pd4'
_cell_volume   188.27366250
_cell_formula_units_Z   2
loop_
 _symmetry_equiv_pos_site_id
 _symmetry_equiv_pos_as_xyz
  1  'x, y, z'
loop_
 _atom_site_type_symbol
 _atom_site_label
 _atom_site_symmetry_multiplicity
 _atom_site_fract_x
 _atom_site_fract_y
 _atom_site_fract_z
 _atom_site_occupancy
  Pr  Pr0  1  0.00000000  0.50000001  0.86395502  1
  Pr  Pr1  1  0.50000001  0.00000000  0.13604500  1
  Tl  Tl2  1  0.50000001  0.50000001  0.50000001  1
  Tl  Tl3  1  0.00000000  0.00000000  0.50000001  1
  Pd  Pd4  1  0.00000000  0.50000001  0.30208001  1
  Pd  Pd5  1  0.50000001  0.00000000  0.69792002  1
  Pd  Pd6  1  0.50000001  0.50000001  -0.00000000  1
  Pd  Pd7  1  0.00000000  0.00000000  0.00000000  1
