# generated using pymatgen
data_Ni5Bi5Sb2
_symmetry_space_group_name_H-M   'P 1'
_cell_length_a   5.50448895
_cell_length_b   7.55588198
_cell_length_c   7.55588293
_cell_angle_alpha   119.99999237
_cell_angle_beta   90.00000000
_cell_angle_gamma   90.00000000
_symmetry_Int_Tables_number   1
_chemical_formula_structural   Ni5Bi5Sb2
_chemical_formula_sum   'Ni5 Bi5 Sb2'
_cell_volume   272.15608879
_cell_formula_units_Z   1
loop_
 _symmetry_equiv_pos_site_id
 _symmetry_equiv_pos_as_xyz
  1  'x, y, z'
loop_
 _atom_site_type_symbol
 _atom_site_label
 _atom_site_symmetry_multiplicity
 _atom_site_fract_x
 _atom_site_fract_y
 _atom_site_fract_z
 _atom_site_occupancy
  Bi  Bi0  1  0.34562600  0.66666665  0.33333330  1
  Ni  Ni1  1  0.65437401  0.33333332  0.66666666  1
  Ni  Ni2  1  0.00000000  0.00000000  0.00000000  1
  Ni  Ni3  1  0.00000000  0.49999999  0.99999999  1
  Ni  Ni4  1  0.00000000  0.00000000  0.50000001  1
  Ni  Ni5  1  0.00000000  0.49999999  0.49999998  1
  Bi  Bi6  1  0.22835000  0.17124500  0.82875501  1
  Bi  Bi7  1  0.22835000  0.17124500  0.34249000  1
  Bi  Bi8  1  0.22835000  0.65750998  0.82875498  1
  Bi  Bi9  1  0.77165001  0.82875498  0.17124495  1
  Sb  Sb10  1  0.77165001  0.82875498  0.65750996  1
  Sb  Sb11  1  0.77165001  0.34248999  0.17124498  1
