# generated using pymatgen
data_Zr5GaSn3
_symmetry_space_group_name_H-M   'P 1'
_cell_length_a   5.89188194
_cell_length_b   8.76183891
_cell_length_c   8.76183891
_cell_angle_alpha   120.00000000
_cell_angle_beta   90.00000000
_cell_angle_gamma   90.00000000
_symmetry_Int_Tables_number   1
_chemical_formula_structural   Zr5GaSn3
_chemical_formula_sum   'Zr10 Ga2 Sn6'
_cell_volume   391.71950464
_cell_formula_units_Z   2
loop_
 _symmetry_equiv_pos_site_id
 _symmetry_equiv_pos_as_xyz
  1  'x, y, z'
loop_
 _atom_site_type_symbol
 _atom_site_label
 _atom_site_symmetry_multiplicity
 _atom_site_fract_x
 _atom_site_fract_y
 _atom_site_fract_z
 _atom_site_occupancy
  Zr  Zr0  1  0.00000000  0.33333333  0.66666669  1
  Zr  Zr1  1  -0.00000000  0.66666665  0.33333335  1
  Zr  Zr2  1  0.50000000  0.66666665  0.33333335  1
  Zr  Zr3  1  0.50000000  0.33333333  0.66666669  1
  Zr  Zr4  1  0.25000000  0.28196199  0.00000001  1
  Zr  Zr5  1  0.25000000  0.71803798  0.71803803  1
  Zr  Zr6  1  0.25000000  0.99999998  0.28196203  1
  Zr  Zr7  1  0.75000001  0.71803798  0.00000002  1
  Zr  Zr8  1  0.75000001  0.28196199  0.28196201  1
  Zr  Zr9  1  0.75000001  0.00000000  0.71803802  1
  Ga  Ga10  1  0.00000000  0.00000000  0.00000000  1
  Ga  Ga11  1  0.50000000  0.00000000  -0.00000000  1
  Sn  Sn12  1  0.25000000  0.62223599  1.00000004  1
  Sn  Sn13  1  0.25000000  0.37776399  0.37776402  1
  Sn  Sn14  1  0.25000000  0.99999998  0.62223604  1
  Sn  Sn15  1  0.75000001  0.37776399  0.00000001  1
  Sn  Sn16  1  0.75000001  0.62223599  0.62223603  1
  Sn  Sn17  1  0.75000001  0.00000000  0.37776401  1
