# generated using pymatgen
data_Na2LiMnF6
_symmetry_space_group_name_H-M   'P 1'
_cell_length_a   5.29876232
_cell_length_b   5.29876232
_cell_length_c   5.84682798
_cell_angle_alpha   63.05522919
_cell_angle_beta   63.05522919
_cell_angle_gamma   59.99999237
_symmetry_Int_Tables_number   1
_chemical_formula_structural   Na2LiMnF6
_chemical_formula_sum   'Na2 Li1 Mn1 F6'
_cell_volume   121.15369398
_cell_formula_units_Z   1
loop_
 _symmetry_equiv_pos_site_id
 _symmetry_equiv_pos_as_xyz
  1  'x, y, z'
loop_
 _atom_site_type_symbol
 _atom_site_label
 _atom_site_symmetry_multiplicity
 _atom_site_fract_x
 _atom_site_fract_y
 _atom_site_fract_z
 _atom_site_occupancy
  Na  Na0  1  0.36114301  0.36114302  0.91657098  1
  Na  Na1  1  0.63885701  0.63885703  0.08342901  1
  Li  Li2  1  0.14824600  0.14824601  0.55526199  1
  Mn  Mn3  1  0.85175402  0.85175404  0.44473801  1
  F  F4  1  0.81031302  0.43464802  0.72885599  1
  F  F5  1  0.02618298  0.81031304  0.72885599  1
  F  F6  1  0.43464802  0.02618300  0.72885598  1
  F  F7  1  0.56535200  0.97381705  0.27114401  1
  F  F8  1  0.97381704  0.18968701  0.27114400  1
  F  F9  1  0.18968700  0.56535203  0.27114400  1
