# generated using pymatgen
data_InAg7O10
_symmetry_space_group_name_H-M   'P 1'
_cell_length_a   7.24135208
_cell_length_b   7.24135208
_cell_length_c   7.24135208
_cell_angle_alpha   60.00000000
_cell_angle_beta   60.00000000
_cell_angle_gamma   60.00000000
_symmetry_Int_Tables_number   1
_chemical_formula_structural   InAg7O10
_chemical_formula_sum   'In1 Ag7 O10'
_cell_volume   268.49981671
_cell_formula_units_Z   1
loop_
 _symmetry_equiv_pos_site_id
 _symmetry_equiv_pos_as_xyz
  1  'x, y, z'
loop_
 _atom_site_type_symbol
 _atom_site_label
 _atom_site_symmetry_multiplicity
 _atom_site_fract_x
 _atom_site_fract_y
 _atom_site_fract_z
 _atom_site_occupancy
  In  In0  1  0.26087999  0.26087999  0.73911998  1
  Ag  Ag1  1  0.73911998  0.26087999  0.26087999  1
  Ag  Ag2  1  0.26087999  0.73911998  0.73911998  1
  Ag  Ag3  1  0.73911998  0.73911998  0.26087999  1
  Ag  Ag4  1  0.73911998  0.26087999  0.73911998  1
  Ag  Ag5  1  0.26087999  0.73911998  0.26087999  1
  Ag  Ag6  1  0.74999998  0.74999998  0.74999998  1
  Ag  Ag7  1  0.24999999  0.24999999  0.24999999  1
  O  O8  1  0.00000000  0.00000000  0.00000000  1
  O  O9  1  0.49999998  0.49999998  0.49999998  1
  O  O10  1  0.35036499  0.35036499  0.35036499  1
  O  O11  1  0.05109500  0.64963498  0.64963498  1
  O  O12  1  0.64963498  0.64963498  0.05109500  1
  O  O13  1  0.64963498  0.05109500  0.64963498  1
  O  O14  1  0.64963498  0.64963498  0.64963498  1
  O  O15  1  0.35036499  0.94890497  0.35036499  1
  O  O16  1  0.94890497  0.35036499  0.35036499  1
  O  O17  1  0.35036499  0.35036499  0.94890497  1
