# generated using pymatgen
data_LaMnO6
_symmetry_space_group_name_H-M   'P 1'
_cell_length_a   4.14281416
_cell_length_b   6.49728298
_cell_length_c   7.15615416
_cell_angle_alpha   90.00000000
_cell_angle_beta   90.00000000
_cell_angle_gamma   90.00000000
_symmetry_Int_Tables_number   1
_chemical_formula_structural   LaMnO6
_chemical_formula_sum   'La2 Mn2 O12'
_cell_volume   192.62245857
_cell_formula_units_Z   2
loop_
 _symmetry_equiv_pos_site_id
 _symmetry_equiv_pos_as_xyz
  1  'x, y, z'
loop_
 _atom_site_type_symbol
 _atom_site_label
 _atom_site_symmetry_multiplicity
 _atom_site_fract_x
 _atom_site_fract_y
 _atom_site_fract_z
 _atom_site_occupancy
  Mn  Mn0  1  0.93286696  0.61350700  0.74999998  1
  La  La1  1  0.43286698  0.88649300  0.24999999  1
  Mn  Mn2  1  0.56713298  0.11350700  0.74999998  1
  La  La3  1  0.06713300  0.38649300  0.24999999  1
  O  O4  1  0.07209400  0.96142800  0.74999998  1
  O  O5  1  0.57209398  0.53857200  0.24999999  1
  O  O6  1  0.42790598  0.46142800  0.74999998  1
  O  O7  1  0.92790596  0.03857200  0.24999999  1
  O  O8  1  0.38222899  0.18229700  0.05243100  1
  O  O9  1  0.88222897  0.31770300  0.94756898  1
  O  O10  1  0.11777100  0.68229700  0.44756899  1
  O  O11  1  0.61777098  0.81770300  0.55243099  1
  O  O12  1  0.61777098  0.81770300  0.94756898  1
  O  O13  1  0.11777100  0.68229700  0.05243100  1
  O  O14  1  0.88222897  0.31770300  0.55243099  1
  O  O15  1  0.38222899  0.18229700  0.44756899  1
