# generated using pymatgen
data_NaP
_symmetry_space_group_name_H-M   'P 1'
_cell_length_a   6.39092112
_cell_length_b   6.39092112
_cell_length_c   6.39092112
_cell_angle_alpha   109.47122192
_cell_angle_beta   109.47122192
_cell_angle_gamma   109.47122192
_symmetry_Int_Tables_number   1
_chemical_formula_structural   NaP
_chemical_formula_sum   'Na4 P4'
_cell_volume   200.94095389
_cell_formula_units_Z   4
loop_
 _symmetry_equiv_pos_site_id
 _symmetry_equiv_pos_as_xyz
  1  'x, y, z'
loop_
 _atom_site_type_symbol
 _atom_site_label
 _atom_site_symmetry_multiplicity
 _atom_site_fract_x
 _atom_site_fract_y
 _atom_site_fract_z
 _atom_site_occupancy
  Na  Na0  1  0.50000000  0.00000000  0.50000001  1
  Na  Na1  1  0.50000003  0.50000002  0.00000004  1
  Na  Na2  1  0.00000003  0.50000002  0.50000002  1
  Na  Na3  1  0.00000000  0.00000000  0.00000000  1
  P  P4  1  1.00000006  1.00000003  0.35178008  1
  P  P5  1  0.00000002  0.35178001  0.00000002  1
  P  P6  1  0.64822004  0.64822002  0.64822005  1
  P  P7  1  0.35178000  0.00000000  0.00000001  1
