# generated using pymatgen
data_ZnCd(CO3)2
_symmetry_space_group_name_H-M   'P 1'
_cell_length_a   4.71419525
_cell_length_b   4.72412872
_cell_length_c   5.80886889
_cell_angle_alpha   66.08032227
_cell_angle_beta   66.39899445
_cell_angle_gamma   60.38502502
_symmetry_Int_Tables_number   1
_chemical_formula_structural   ZnCd(CO3)2
_chemical_formula_sum   'Zn1 Cd1 C2 O6'
_cell_volume   99.49831686
_cell_formula_units_Z   1
loop_
 _symmetry_equiv_pos_site_id
 _symmetry_equiv_pos_as_xyz
  1  'x, y, z'
loop_
 _atom_site_type_symbol
 _atom_site_label
 _atom_site_symmetry_multiplicity
 _atom_site_fract_x
 _atom_site_fract_y
 _atom_site_fract_z
 _atom_site_occupancy
  Zn  Zn0  1  0.00000000  0.00000000  0.00000000  1
  Cd  Cd1  1  0.50000000  0.49999899  0.50000098  1
  C  C2  1  0.74766001  0.74917999  0.75429997  1
  C  C3  1  0.25234100  0.25082000  0.24569899  1
  O  O4  1  0.47038400  0.01824100  0.75480200  1
  O  O5  1  0.01838401  0.75659199  0.75533399  1
  O  O6  1  0.75338300  0.47131699  0.75339298  1
  O  O7  1  0.98161599  0.24340900  0.24466497  1
  O  O8  1  0.24661701  0.52868299  0.24660698  1
  O  O9  1  0.52961501  0.98175898  0.24519796  1
