# generated using pymatgen
data_CsCaI3
_symmetry_space_group_name_H-M   'P 1'
_cell_length_a   8.57107353
_cell_length_b   8.78458881
_cell_length_c   12.39946556
_cell_angle_alpha   90.00000000
_cell_angle_beta   90.00000000
_cell_angle_gamma   90.00000000
_symmetry_Int_Tables_number   1
_chemical_formula_structural   CsCaI3
_chemical_formula_sum   'Cs4 Ca4 I12'
_cell_volume   933.59738302
_cell_formula_units_Z   4
loop_
 _symmetry_equiv_pos_site_id
 _symmetry_equiv_pos_as_xyz
  1  'x, y, z'
loop_
 _atom_site_type_symbol
 _atom_site_label
 _atom_site_symmetry_multiplicity
 _atom_site_fract_x
 _atom_site_fract_y
 _atom_site_fract_z
 _atom_site_occupancy
  Cs  Cs0  1  0.47967803  0.95011302  0.25000001  1
  Cs  Cs1  1  0.97967805  0.54988701  0.75000003  1
  Cs  Cs2  1  0.02032200  0.45011301  0.25000001  1
  Cs  Cs3  1  0.52032203  0.04988700  0.75000003  1
  Ca  Ca4  1  0.00000000  0.00000000  0.00000000  1
  Ca  Ca5  1  0.50000003  0.50000001  -0.00000000  1
  Ca  Ca6  1  0.50000003  0.50000001  0.50000002  1
  Ca  Ca7  1  0.00000000  0.00000000  0.50000002  1
  I  I8  1  0.55564003  0.50274201  0.25000001  1
  I  I9  1  0.05564000  0.99725802  0.75000003  1
  I  I10  1  0.94436005  0.00274200  0.25000001  1
  I  I11  1  0.44436002  0.49725801  0.75000003  1
  I  I12  1  0.29474102  0.20713000  0.02749200  1
  I  I13  1  0.79474104  0.29287001  0.97250803  1
  I  I14  1  0.20525901  0.70713001  0.47250802  1
  I  I15  1  0.70525904  0.79287002  0.52749202  1
  I  I16  1  0.70525904  0.79287002  0.97250803  1
  I  I17  1  0.20525901  0.70713001  0.02749200  1
  I  I18  1  0.79474104  0.29287001  0.52749202  1
  I  I19  1  0.29474102  0.20713000  0.47250802  1
