# generated using pymatgen
data_Mg3(H2N5)2
_symmetry_space_group_name_H-M   'P 1'
_cell_length_a   4.88648081
_cell_length_b   5.82372379
_cell_length_c   5.82372332
_cell_angle_alpha   120.00000763
_cell_angle_beta   90.00000000
_cell_angle_gamma   90.00000000
_symmetry_Int_Tables_number   1
_chemical_formula_structural   Mg3(H2N5)2
_chemical_formula_sum   'Mg3 H4 N10'
_cell_volume   143.52524550
_cell_formula_units_Z   1
loop_
 _symmetry_equiv_pos_site_id
 _symmetry_equiv_pos_as_xyz
  1  'x, y, z'
loop_
 _atom_site_type_symbol
 _atom_site_label
 _atom_site_symmetry_multiplicity
 _atom_site_fract_x
 _atom_site_fract_y
 _atom_site_fract_z
 _atom_site_occupancy
  Mg  Mg0  1  0.00000000  0.00000000  0.00000000  1
  Mg  Mg1  1  0.76418803  0.85874606  0.42937304  1
  Mg  Mg2  1  0.76418803  0.57062704  0.42937303  1
  H  H3  1  0.76418803  0.57062704  0.14125403  1
  H  H4  1  0.51716602  0.33333336  0.66666667  1
  N  N5  1  0.48283402  0.66666671  0.33333337  1
  H  H6  1  0.23581201  0.42937303  0.85874601  1
  H  H7  1  0.23581201  0.42937303  0.57062702  1
  N  N8  1  0.23581201  0.14125401  0.57062700  1
  N  N9  1  0.69420303  0.66666671  0.33333337  1
  N  N10  1  0.30579701  0.33333336  0.66666667  1
  N  N11  1  0.78348003  0.15657101  0.31314200  1
  N  N12  1  0.78348003  0.15657101  0.84342999  1
  N  N13  1  0.78348003  0.68685905  0.84343003  1
  N  N14  1  0.21652001  0.31314102  0.15657002  1
  N  N15  1  0.21652001  0.84342906  0.15657005  1
  N  N16  1  0.21652001  0.84342906  0.68685804  1
