# generated using pymatgen
data_SmSi
_symmetry_space_group_name_H-M   'P 1'
_cell_length_a   3.89650989
_cell_length_b   5.73066616
_cell_length_c   7.99082422
_cell_angle_alpha   90.00000000
_cell_angle_beta   90.00000000
_cell_angle_gamma   90.00000000
_symmetry_Int_Tables_number   1
_chemical_formula_structural   SmSi
_chemical_formula_sum   'Sm4 Si4'
_cell_volume   178.43188736
_cell_formula_units_Z   4
loop_
 _symmetry_equiv_pos_site_id
 _symmetry_equiv_pos_as_xyz
  1  'x, y, z'
loop_
 _atom_site_type_symbol
 _atom_site_label
 _atom_site_symmetry_multiplicity
 _atom_site_fract_x
 _atom_site_fract_y
 _atom_site_fract_z
 _atom_site_occupancy
  Sm  Sm0  1  0.25000001  0.11439200  0.68055398  1
  Sm  Sm1  1  0.75000002  0.61439198  0.81944598  1
  Sm  Sm2  1  0.75000002  0.88560798  0.31944599  1
  Sm  Sm3  1  0.25000001  0.38560799  0.18055399  1
  Si  Si4  1  0.25000001  0.62331898  0.53555099  1
  Si  Si5  1  0.25000001  0.87668098  0.03555100  1
  Si  Si6  1  0.75000002  0.37668099  0.46444899  1
  Si  Si7  1  0.75000002  0.12331900  0.96444897  1
