# generated using pymatgen
data_LiCuO
_symmetry_space_group_name_H-M   'P 1'
_cell_length_a   4.59439516
_cell_length_b   5.28924322
_cell_length_c   7.33963823
_cell_angle_alpha   95.79887390
_cell_angle_beta   90.00000000
_cell_angle_gamma   90.00000000
_symmetry_Int_Tables_number   1
_chemical_formula_structural   LiCuO
_chemical_formula_sum   'Li6 Cu6 O6'
_cell_volume   177.44689933
_cell_formula_units_Z   6
loop_
 _symmetry_equiv_pos_site_id
 _symmetry_equiv_pos_as_xyz
  1  'x, y, z'
loop_
 _atom_site_type_symbol
 _atom_site_label
 _atom_site_symmetry_multiplicity
 _atom_site_fract_x
 _atom_site_fract_y
 _atom_site_fract_z
 _atom_site_occupancy
  Li  Li0  1  0.20583799  0.53256398  0.73918700  1
  Li  Li1  1  0.79416197  0.46743598  0.26081300  1
  Li  Li2  1  0.29416199  0.03256400  0.73918699  1
  Li  Li3  1  0.70583798  0.96743596  0.26081301  1
  Li  Li4  1  0.19876099  0.18460099  0.39881700  1
  Li  Li5  1  0.20643999  0.86873897  0.05981901  1
  Cu  Cu6  1  0.79355997  0.13126099  0.94018099  1
  Cu  Cu7  1  0.80123897  0.81539897  0.60118300  1
  Cu  Cu8  1  0.29355999  0.36873899  0.05981900  1
  Cu  Cu9  1  0.30123899  0.68460097  0.39881700  1
  Cu  Cu10  1  0.70643998  0.63126097  0.94018100  1
  Cu  Cu11  1  0.69876098  0.31539899  0.60118300  1
  O  O12  1  0.48026498  0.66404697  0.16112101  1
  O  O13  1  0.51973498  0.33595299  0.83887900  1
  O  O14  1  0.49999998  0.00000000  0.49999999  1
  O  O15  1  0.01973500  0.16404699  0.16112100  1
  O  O16  1  0.98026497  0.83595297  0.83887900  1
  O  O17  1  -0.00000000  0.49999998  0.50000000  1
