# generated using pymatgen
data_Sc3Pt2
_symmetry_space_group_name_H-M   'P 1'
_cell_length_a   3.74352908
_cell_length_b   7.26142597
_cell_length_c   7.26142597
_cell_angle_alpha   90.00000000
_cell_angle_beta   90.00000000
_cell_angle_gamma   90.00000000
_symmetry_Int_Tables_number   1
_chemical_formula_structural   Sc3Pt2
_chemical_formula_sum   'Sc6 Pt4'
_cell_volume   197.38995121
_cell_formula_units_Z   2
loop_
 _symmetry_equiv_pos_site_id
 _symmetry_equiv_pos_as_xyz
  1  'x, y, z'
loop_
 _atom_site_type_symbol
 _atom_site_label
 _atom_site_symmetry_multiplicity
 _atom_site_fract_x
 _atom_site_fract_y
 _atom_site_fract_z
 _atom_site_occupancy
  Sc  Sc0  1  0.49999999  0.67383300  0.17383300  1
  Sc  Sc1  1  0.49999999  0.32616700  0.82616700  1
  Sc  Sc2  1  0.49999999  0.17383300  0.32616700  1
  Sc  Sc3  1  0.49999999  0.82616700  0.67383300  1
  Sc  Sc4  1  0.00000000  0.00000000  0.00000000  1
  Sc  Sc5  1  0.00000000  0.50000000  0.50000000  1
  Pt  Pt6  1  0.99999998  0.11973300  0.61973300  1
  Pt  Pt7  1  0.99999998  0.88026700  0.38026700  1
  Pt  Pt8  1  0.99999998  0.61973300  0.88026700  1
  Pt  Pt9  1  0.00000000  0.38026700  0.11973300  1
