# generated using pymatgen
data_InBi
_symmetry_space_group_name_H-M   'P 1'
_cell_length_a   7.06736279
_cell_length_b   7.06736279
_cell_length_c   7.06736279
_cell_angle_alpha   105.06985474
_cell_angle_beta   105.06985474
_cell_angle_gamma   118.68585205
_symmetry_Int_Tables_number   1
_chemical_formula_structural   InBi
_chemical_formula_sum   'In4 Bi4'
_cell_volume   266.39110496
_cell_formula_units_Z   4
loop_
 _symmetry_equiv_pos_site_id
 _symmetry_equiv_pos_as_xyz
  1  'x, y, z'
loop_
 _atom_site_type_symbol
 _atom_site_label
 _atom_site_symmetry_multiplicity
 _atom_site_fract_x
 _atom_site_fract_y
 _atom_site_fract_z
 _atom_site_occupancy
  In  In0  1  0.49999988  0.99999992  0.49999991  1
  In  In1  1  -0.00000006  0.49999996  0.49999996  1
  In  In2  1  0.49999993  0.49999996  -0.00000005  1
  In  In3  1  0.00000000  0.00000000  0.00000000  1
  Bi  Bi4  1  0.04830199  0.04830200  0.65127799  1
  Bi  Bi5  1  0.95169792  0.60297495  -0.00000007  1
  Bi  Bi6  1  0.60297588  0.95169892  -0.00000009  1
  Bi  Bi7  1  0.39702395  0.39702397  0.34872196  1
