# generated using pymatgen
data_Ca3Nb2SnO12
_symmetry_space_group_name_H-M   'P 1'
_cell_length_a   5.43845463
_cell_length_b   5.50072813
_cell_length_c   8.99978638
_cell_angle_alpha   72.20553589
_cell_angle_beta   89.23088074
_cell_angle_gamma   90.00000000
_symmetry_Int_Tables_number   1
_chemical_formula_structural   Ca3Nb2SnO12
_chemical_formula_sum   'Ca3 Nb2 Sn1 O12'
_cell_volume   256.32689243
_cell_formula_units_Z   1
loop_
 _symmetry_equiv_pos_site_id
 _symmetry_equiv_pos_as_xyz
  1  'x, y, z'
loop_
 _atom_site_type_symbol
 _atom_site_label
 _atom_site_symmetry_multiplicity
 _atom_site_fract_x
 _atom_site_fract_y
 _atom_site_fract_z
 _atom_site_occupancy
  Ca  Ca0  1  0.02769199  0.62822200  0.65765497  1
  Ca  Ca1  1  0.97230797  0.28587700  0.34234501  1
  Ca  Ca2  1  0.45620298  0.13272100  0.64512700  1
  Sn  Sn3  1  0.54379697  0.77784800  0.35487298  1
  Nb  Nb4  1  0.49999998  0.52671300  -0.00000001  1
  Nb  Nb5  1  -0.00000000  0.02559100  -0.00000000  1
  O  O6  1  0.21898398  0.99790399  0.51472197  1
  O  O7  1  0.78101597  0.51262600  0.48527800  1
  O  O8  1  0.28907598  0.49161100  0.50746499  1
  O  O9  1  0.71092397  0.99907599  0.49253498  1
  O  O10  1  0.24801199  0.27951100  0.04591800  1
  O  O11  1  0.75198797  0.32542900  0.95408200  1
  O  O12  1  0.24654898  0.77733600  0.04388898  1
  O  O13  1  0.75345097  0.82122499  0.95611098  1
  O  O14  1  0.40972998  0.68070100  0.78634298  1
  O  O15  1  0.59026998  0.46704400  0.21365700  1
  O  O16  1  0.09838699  0.17470100  0.78476199  1
  O  O17  1  0.90161296  0.95946299  0.21523799  1
