# generated using pymatgen
data_Ce2CuH6
_symmetry_space_group_name_H-M   'P 1'
_cell_length_a   3.67516899
_cell_length_b   3.67516899
_cell_length_c   7.21893883
_cell_angle_alpha   90.00000000
_cell_angle_beta   90.00000000
_cell_angle_gamma   90.00000000
_symmetry_Int_Tables_number   1
_chemical_formula_structural   Ce2CuH6
_chemical_formula_sum   'Ce2 Cu1 H6'
_cell_volume   97.50524744
_cell_formula_units_Z   1
loop_
 _symmetry_equiv_pos_site_id
 _symmetry_equiv_pos_as_xyz
  1  'x, y, z'
loop_
 _atom_site_type_symbol
 _atom_site_label
 _atom_site_symmetry_multiplicity
 _atom_site_fract_x
 _atom_site_fract_y
 _atom_site_fract_z
 _atom_site_occupancy
  Ce  Ce0  1  0.00000000  0.00000000  0.00000000  1
  Ce  Ce1  1  0.00000000  0.00000000  0.50000001  1
  Cu  Cu2  1  0.50000000  0.50000000  0.25438101  1
  H  H3  1  0.50000000  0.50000000  0.74561902  1
  H  H4  1  0.50000000  0.00000000  0.21168001  1
  H  H5  1  0.50000000  0.00000000  0.78832002  1
  H  H6  1  0.50000000  0.50000000  0.50000001  1
  H  H7  1  0.00000000  0.50000000  0.21168001  1
  H  H8  1  0.00000000  0.50000000  0.78832002  1
