# generated using pymatgen
data_KCeGeSe4
_symmetry_space_group_name_H-M   'P 1'
_cell_length_a   6.95072794
_cell_length_b   7.10503721
_cell_length_c   9.14972973
_cell_angle_alpha   90.00000000
_cell_angle_beta   72.11742401
_cell_angle_gamma   90.00000000
_symmetry_Int_Tables_number   1
_chemical_formula_structural   KCeGeSe4
_chemical_formula_sum   'K2 Ce2 Ge2 Se8'
_cell_volume   430.03066708
_cell_formula_units_Z   2
loop_
 _symmetry_equiv_pos_site_id
 _symmetry_equiv_pos_as_xyz
  1  'x, y, z'
loop_
 _atom_site_type_symbol
 _atom_site_label
 _atom_site_symmetry_multiplicity
 _atom_site_fract_x
 _atom_site_fract_y
 _atom_site_fract_z
 _atom_site_occupancy
  K  K0  1  0.24292200  0.72461398  0.06308300  1
  K  K1  1  0.75707800  0.22461399  0.93691696  1
  Ce  Ce2  1  0.73176900  0.21183399  0.44648698  1
  Ce  Ce3  1  0.26823100  0.71183398  0.55351298  1
  Ge  Ge4  1  0.71772900  0.74541698  0.68074597  1
  Ge  Ge5  1  0.28227100  0.24541699  0.31925399  1
  Se  Se6  1  0.92065101  0.74872998  0.84516197  1
  Se  Se7  1  0.07934900  0.24872999  0.15483799  1
  Se  Se8  1  0.48968500  0.97048797  0.28628499  1
  Se  Se9  1  0.92512301  0.80509798  0.42362999  1
  Se  Se10  1  0.07487700  0.30509799  0.57636997  1
  Se  Se11  1  0.46830400  0.98910897  0.72813497  1
  Se  Se12  1  0.53169600  0.48910899  0.27186499  1
  Se  Se13  1  0.51031500  0.47048799  0.71371497  1
