# generated using pymatgen
data_K9Ge7
_symmetry_space_group_name_H-M   'P 1'
_cell_length_a   6.19054413
_cell_length_b   9.72678661
_cell_length_c   9.72678661
_cell_angle_alpha   84.18798828
_cell_angle_beta   71.44460297
_cell_angle_gamma   71.44460297
_symmetry_Int_Tables_number   1
_chemical_formula_structural   K9Ge7
_chemical_formula_sum   'K9 Ge7'
_cell_volume   526.37993010
_cell_formula_units_Z   1
loop_
 _symmetry_equiv_pos_site_id
 _symmetry_equiv_pos_as_xyz
  1  'x, y, z'
loop_
 _atom_site_type_symbol
 _atom_site_label
 _atom_site_symmetry_multiplicity
 _atom_site_fract_x
 _atom_site_fract_y
 _atom_site_fract_z
 _atom_site_occupancy
  K  K0  1  0.91053299  0.30502099  0.87391302  1
  K  K1  1  0.72505201  0.68356199  0.86633402  1
  K  K2  1  0.21555404  0.87391298  0.69497901  1
  K  K3  1  0.59138499  0.13366700  0.68356201  1
  K  K4  1  0.75000000  0.49999999  0.50000002  1
  K  K5  1  0.25000002  0.49999999  0.50000001  1
  K  K6  1  0.40861503  0.86633298  0.31643801  1
  K  K7  1  0.78444598  0.12608700  0.30502102  1
  K  K8  1  0.27494801  0.31643799  0.13366601  1
  Ge  Ge9  1  0.08946704  0.69497899  0.12608701  1
  Ge  Ge10  1  0.34400002  0.50315799  0.80884201  1
  Ge  Ge11  1  0.15284101  0.19115900  0.50315800  1
  Ge  Ge12  1  0.84715902  0.80884098  0.49684202  1
  Ge  Ge13  1  0.65600001  0.49684199  0.19115802  1
  Ge  Ge14  1  0.70266798  0.00000000  0.00000002  1
  Ge  Ge15  1  0.29733199  0.00000000  0.00000001  1
