# generated using pymatgen
data_Sr3Ti2O7
_symmetry_space_group_name_H-M   'P 1'
_cell_length_a   3.92617798
_cell_length_b   3.92617798
_cell_length_c   10.51063251
_cell_angle_alpha   100.76444244
_cell_angle_beta   100.76444244
_cell_angle_gamma   90.00000000
_symmetry_Int_Tables_number   1
_chemical_formula_structural   Sr3Ti2O7
_chemical_formula_sum   'Sr3 Ti2 O7'
_cell_volume   156.26604290
_cell_formula_units_Z   1
loop_
 _symmetry_equiv_pos_site_id
 _symmetry_equiv_pos_as_xyz
  1  'x, y, z'
loop_
 _atom_site_type_symbol
 _atom_site_label
 _atom_site_symmetry_multiplicity
 _atom_site_fract_x
 _atom_site_fract_y
 _atom_site_fract_z
 _atom_site_occupancy
  Sr  Sr0  1  0.31570399  0.31570400  0.63140801  1
  Sr  Sr1  1  0.68429598  0.68429600  0.36859199  1
  Sr  Sr2  1  0.49999999  0.50000000  -0.00000002  1
  Ti  Ti3  1  0.09786200  0.09786200  0.19572400  1
  Ti  Ti4  1  0.90213798  0.90213800  0.80427599  1
  O  O5  1  0.59648500  0.09648500  0.19296999  1
  O  O6  1  0.40351498  0.90351500  0.80703000  1
  O  O7  1  0.09648499  0.59648500  0.19296999  1
  O  O8  1  0.90351499  0.40351500  0.80703000  1
  O  O9  1  0.19721900  0.19721900  0.39443801  1
  O  O10  1  0.80278098  0.80278100  0.60556199  1
  O  O11  1  0.00000000  0.00000000  0.00000000  1
