# generated using pymatgen
data_SrLaMgMoO6
_symmetry_space_group_name_H-M   'P 1'
_cell_length_a   5.72556877
_cell_length_b   5.78868103
_cell_length_c   8.04626465
_cell_angle_alpha   90.00000000
_cell_angle_beta   89.96572876
_cell_angle_gamma   90.00000000
_symmetry_Int_Tables_number   1
_chemical_formula_structural   SrLaMgMoO6
_chemical_formula_sum   'Sr2 La2 Mg2 Mo2 O12'
_cell_volume   266.68125494
_cell_formula_units_Z   2
loop_
 _symmetry_equiv_pos_site_id
 _symmetry_equiv_pos_as_xyz
  1  'x, y, z'
loop_
 _atom_site_type_symbol
 _atom_site_label
 _atom_site_symmetry_multiplicity
 _atom_site_fract_x
 _atom_site_fract_y
 _atom_site_fract_z
 _atom_site_occupancy
  Sr  Sr0  1  0.49903802  0.74049500  0.74938399  1
  Sr  Sr1  1  0.99903804  0.25950500  0.24938401  1
  La  La2  1  0.01813000  0.20444500  0.74795598  1
  La  La3  1  0.51813002  0.79555500  0.24795600  1
  Mg  Mg4  1  0.50319402  0.25869400  0.99937598  1
  Mg  Mg5  1  0.00319400  0.74130600  0.49937599  1
  Mo  Mo6  1  0.50063502  0.25590100  0.50010099  1
  Mo  Mo7  1  0.00063500  0.74409900  0.00010100  1
  O  O8  1  0.45223802  0.21597400  0.25503200  1
  O  O9  1  0.75882003  0.99455099  0.03873501  1
  O  O10  1  0.74608403  0.00830900  0.46783300  1
  O  O11  1  0.24608401  0.99169099  0.96783298  1
  O  O12  1  0.25882001  0.00544900  0.53873499  1
  O  O13  1  0.95223804  0.78402600  0.75503199  1
  O  O14  1  0.10114200  0.73921400  0.24210800  1
  O  O15  1  0.70091103  0.53296700  0.45095600  1
  O  O16  1  0.71980603  0.54225100  0.04852001  1
  O  O17  1  0.21980601  0.45774900  0.54851999  1
  O  O18  1  0.20091101  0.46703300  0.95095598  1
  O  O19  1  0.60114202  0.26078600  0.74210799  1
