# generated using pymatgen
data_Cs2Ag2Br(OF)3
_symmetry_space_group_name_H-M   'P 1'
_cell_length_a   4.35941601
_cell_length_b   7.62754536
_cell_length_c   7.71132565
_cell_angle_alpha   112.24171448
_cell_angle_beta   90.00000000
_cell_angle_gamma   106.60475922
_symmetry_Int_Tables_number   1
_chemical_formula_structural   Cs2Ag2Br(OF)3
_chemical_formula_sum   'Cs2 Ag2 Br1 O3 F3'
_cell_volume   225.74114609
_cell_formula_units_Z   1
loop_
 _symmetry_equiv_pos_site_id
 _symmetry_equiv_pos_as_xyz
  1  'x, y, z'
loop_
 _atom_site_type_symbol
 _atom_site_label
 _atom_site_symmetry_multiplicity
 _atom_site_fract_x
 _atom_site_fract_y
 _atom_site_fract_z
 _atom_site_occupancy
  Cs  Cs0  1  0.60373601  0.20747200  0.91780898  1
  Cs  Cs1  1  0.39626403  0.79252800  0.08219098  1
  Ag  Ag2  1  0.85263002  0.70526000  0.50744097  1
  Ag  Ag3  1  0.14737001  0.29474000  0.49255898  1
  Br  Br4  1  0.19911801  0.39823600  0.75791098  1
  O  O5  1  0.69119801  0.38239600  0.49645498  1
  F  F6  1  0.91113003  0.82226000  0.77259596  1
  O  O7  1  0.00000000  0.00000000  0.49999999  1
  F  F8  1  0.30880202  0.61760400  0.50354497  1
  F  F9  1  0.08887001  0.17774000  0.22740399  1
  O  O10  1  0.80088202  0.60176400  0.24208898  1
