# generated using pymatgen
data_EuAl3Au2
_symmetry_space_group_name_H-M   'P 1'
_cell_length_a   4.32075405
_cell_length_b   4.32075405
_cell_length_c   13.40896034
_cell_angle_alpha   99.27159119
_cell_angle_beta   99.27159119
_cell_angle_gamma   90.00000000
_symmetry_Int_Tables_number   1
_chemical_formula_structural   EuAl3Au2
_chemical_formula_sum   'Eu2 Al6 Au4'
_cell_volume   243.74609236
_cell_formula_units_Z   2
loop_
 _symmetry_equiv_pos_site_id
 _symmetry_equiv_pos_as_xyz
  1  'x, y, z'
loop_
 _atom_site_type_symbol
 _atom_site_label
 _atom_site_symmetry_multiplicity
 _atom_site_fract_x
 _atom_site_fract_y
 _atom_site_fract_z
 _atom_site_occupancy
  Eu  Eu0  1  0.14995300  0.14995300  0.29990601  1
  Eu  Eu1  1  0.85004702  0.85004700  0.70009405  1
  Al  Al2  1  0.39912801  0.39912800  0.79825604  1
  Al  Al3  1  0.95243301  0.45243300  0.90486605  1
  Al  Al4  1  0.04756701  0.54756700  0.09513402  1
  Al  Al5  1  0.45243302  0.95243300  0.90486605  1
  Al  Al6  1  0.60087201  0.60087200  0.20174403  1
  Au  Au7  1  0.30534701  0.30534700  0.61069403  1
  Al  Al8  1  0.69465301  0.69465300  0.38930604  1
  Au  Au9  1  0.75000000  0.25000000  0.50000003  1
  Au  Au10  1  0.54756700  0.04756700  0.09513402  1
  Au  Au11  1  0.25000002  0.75000000  0.50000003  1
