# generated using pymatgen
data_Ba3CaO4
_symmetry_space_group_name_H-M   'P 1'
_cell_length_a   3.94930410
_cell_length_b   6.29178619
_cell_length_c   14.39437580
_cell_angle_alpha   90.00000000
_cell_angle_beta   90.00000000
_cell_angle_gamma   90.00000000
_symmetry_Int_Tables_number   1
_chemical_formula_structural   Ba3CaO4
_chemical_formula_sum   'Ba6 Ca2 O8'
_cell_volume   357.67399823
_cell_formula_units_Z   2
loop_
 _symmetry_equiv_pos_site_id
 _symmetry_equiv_pos_as_xyz
  1  'x, y, z'
loop_
 _atom_site_type_symbol
 _atom_site_label
 _atom_site_symmetry_multiplicity
 _atom_site_fract_x
 _atom_site_fract_y
 _atom_site_fract_z
 _atom_site_occupancy
  Ca  Ca0  1  0.24999999  0.74402998  0.32888300  1
  Ba  Ba1  1  0.24999999  0.24402999  0.17111700  1
  Ba  Ba2  1  0.74999998  0.25596999  0.67111701  1
  Ba  Ba3  1  0.74999998  0.75596998  0.82888301  1
  Ca  Ca4  1  0.24999999  0.23551799  0.93879301  1
  Ba  Ba5  1  0.74999998  0.76448198  0.06120700  1
  Ba  Ba6  1  0.24999999  0.73551798  0.56120701  1
  Ba  Ba7  1  0.74999998  0.26448199  0.43879301  1
  O  O8  1  0.74999998  0.12090700  0.82052801  1
  O  O9  1  0.24999999  0.87909297  0.17947200  1
  O  O10  1  0.74999998  0.62090698  0.67947201  1
  O  O11  1  0.24999999  0.37909299  0.32052800  1
  O  O12  1  0.24999999  0.64088398  0.90186101  1
  O  O13  1  0.74999998  0.85911597  0.40186101  1
  O  O14  1  0.24999999  0.14088400  0.59813901  1
  O  O15  1  0.74999998  0.35911599  0.09813900  1
