# generated using pymatgen
data_Na3BF5
_symmetry_space_group_name_H-M   'P 1'
_cell_length_a   4.94078016
_cell_length_b   4.94078016
_cell_length_c   4.94078016
_cell_angle_alpha   90.00000000
_cell_angle_beta   90.00000000
_cell_angle_gamma   90.00000000
_symmetry_Int_Tables_number   1
_chemical_formula_structural   Na3BF5
_chemical_formula_sum   'Na3 B1 F5'
_cell_volume   120.61090936
_cell_formula_units_Z   1
loop_
 _symmetry_equiv_pos_site_id
 _symmetry_equiv_pos_as_xyz
  1  'x, y, z'
loop_
 _atom_site_type_symbol
 _atom_site_label
 _atom_site_symmetry_multiplicity
 _atom_site_fract_x
 _atom_site_fract_y
 _atom_site_fract_z
 _atom_site_occupancy
  Na  Na0  1  0.00000000  0.49999998  -0.00000000  1
  Na  Na1  1  0.49999998  0.00000000  -0.00000000  1
  Na  Na2  1  0.00000000  0.00000000  0.49999998  1
  B  B3  1  0.49999998  0.49999998  0.49999998  1
  F  F4  1  0.32452799  0.32452799  0.32452799  1
  F  F5  1  0.67547198  0.67547198  0.32452799  1
  F  F6  1  0.32452799  0.67547198  0.67547198  1
  F  F7  1  0.67547198  0.32452799  0.67547198  1
  F  F8  1  0.00000000  0.00000000  0.00000000  1
