# generated using pymatgen
data_YIn2
_symmetry_space_group_name_H-M   'P 1'
_cell_length_a   4.42291594
_cell_length_b   6.85368109
_cell_length_c   6.85368109
_cell_angle_alpha   90.00000000
_cell_angle_beta   90.00000000
_cell_angle_gamma   90.00000000
_symmetry_Int_Tables_number   1
_chemical_formula_structural   YIn2
_chemical_formula_sum   'Y2 In4'
_cell_volume   207.75738454
_cell_formula_units_Z   2
loop_
 _symmetry_equiv_pos_site_id
 _symmetry_equiv_pos_as_xyz
  1  'x, y, z'
loop_
 _atom_site_type_symbol
 _atom_site_label
 _atom_site_symmetry_multiplicity
 _atom_site_fract_x
 _atom_site_fract_y
 _atom_site_fract_z
 _atom_site_occupancy
  Y  Y0  1  0.00000000  0.00000000  0.00000000  1
  Y  Y1  1  0.50000001  0.49999999  0.49999999  1
  In  In2  1  0.50000001  0.80307399  0.19692600  1
  In  In3  1  0.00000000  0.69692599  0.69692599  1
  In  In4  1  0.00000000  0.30307400  0.30307400  1
  In  In5  1  0.50000001  0.19692600  0.80307399  1
