# generated using pymatgen
data_KTeBr3
_symmetry_space_group_name_H-M   'P 1'
_cell_length_a   5.93279791
_cell_length_b   5.95962620
_cell_length_c   5.98572969
_cell_angle_alpha   85.06332397
_cell_angle_beta   87.21602631
_cell_angle_gamma   88.38034821
_symmetry_Int_Tables_number   1
_chemical_formula_structural   KTeBr3
_chemical_formula_sum   'K1 Te1 Br3'
_cell_volume   210.54334384
_cell_formula_units_Z   1
loop_
 _symmetry_equiv_pos_site_id
 _symmetry_equiv_pos_as_xyz
  1  'x, y, z'
loop_
 _atom_site_type_symbol
 _atom_site_label
 _atom_site_symmetry_multiplicity
 _atom_site_fract_x
 _atom_site_fract_y
 _atom_site_fract_z
 _atom_site_occupancy
  K  K0  1  0.07958701  0.10528400  0.11758899  1
  Te  Te1  1  0.48788903  0.49569499  0.48014296  1
  Br  Br2  1  0.99282804  0.47853699  0.44951194  1
  Br  Br3  1  0.46196003  0.45369699  0.95142897  1
  Br  Br4  1  0.47773305  0.97678797  0.44132993  1
