# generated using pymatgen
data_K4I2O
_symmetry_space_group_name_H-M   'P 1'
_cell_length_a   5.33109188
_cell_length_b   5.33109188
_cell_length_c   9.96214294
_cell_angle_alpha   105.51956940
_cell_angle_beta   105.51956940
_cell_angle_gamma   90.00000000
_symmetry_Int_Tables_number   1
_chemical_formula_structural   K4I2O
_chemical_formula_sum   'K4 I2 O1'
_cell_volume   262.07687713
_cell_formula_units_Z   1
loop_
 _symmetry_equiv_pos_site_id
 _symmetry_equiv_pos_as_xyz
  1  'x, y, z'
loop_
 _atom_site_type_symbol
 _atom_site_label
 _atom_site_symmetry_multiplicity
 _atom_site_fract_x
 _atom_site_fract_y
 _atom_site_fract_z
 _atom_site_occupancy
  K  K0  1  0.67114198  0.67114200  0.34228395  1
  K  K1  1  0.32885799  0.32885800  0.65771596  1
  K  K2  1  0.50000000  0.00000000  -0.00000001  1
  K  K3  1  -0.00000002  0.50000000  -0.00000002  1
  I  I4  1  0.86257398  0.86257400  0.72514792  1
  I  I5  1  0.13742600  0.13742600  0.27485198  1
  O  O6  1  0.49999999  0.50000000  -0.00000003  1
