# generated using pymatgen
data_Zn2H2Se2SO9
_symmetry_space_group_name_H-M   'P 1'
_cell_length_a   5.42154598
_cell_length_b   5.48602009
_cell_length_c   7.81218958
_cell_angle_alpha   109.57180023
_cell_angle_beta   104.59900665
_cell_angle_gamma   96.34664154
_symmetry_Int_Tables_number   1
_chemical_formula_structural   Zn2H2Se2SO9
_chemical_formula_sum   'Zn2 H2 Se2 S1 O9'
_cell_volume   206.96168159
_cell_formula_units_Z   1
loop_
 _symmetry_equiv_pos_site_id
 _symmetry_equiv_pos_as_xyz
  1  'x, y, z'
loop_
 _atom_site_type_symbol
 _atom_site_label
 _atom_site_symmetry_multiplicity
 _atom_site_fract_x
 _atom_site_fract_y
 _atom_site_fract_z
 _atom_site_occupancy
  Zn  Zn0  1  0.50000004  0.49999999  0.50000005  1
  Zn  Zn1  1  0.00000000  0.00000000  0.00000000  1
  Se  Se2  1  0.56308906  0.87041198  0.22648706  1
  Se  Se3  1  0.43691102  0.12958800  0.77351303  1
  H  H4  1  0.96966504  0.29944699  0.33788605  1
  H  H5  1  0.03033504  0.70055299  0.66211404  1
  S  S6  1  0.88681906  0.66900099  0.71766207  1
  O  O7  1  0.67625103  0.17075800  0.36205004  1
  O  O8  1  0.34884503  0.30490099  0.66011104  1
  O  O9  1  0.68029206  0.80872598  0.05791506  1
  O  O10  1  0.26185505  0.81096498  0.15012504  1
  O  O11  1  0.73814503  0.18903500  0.84987505  1
  O  O12  1  0.31970802  0.19127400  0.94208503  1
  O  O13  1  0.65115506  0.69509899  0.33988906  1
  O  O14  1  0.32374906  0.82924198  0.63795005  1
  O  O15  1  0.11318102  0.33099899  0.28233802  1
