# generated using pymatgen
data_LiH2SO5
_symmetry_space_group_name_H-M   'P 1'
_cell_length_a   5.05668020
_cell_length_b   5.24511290
_cell_length_c   7.81662321
_cell_angle_alpha   108.98451996
_cell_angle_beta   108.00302887
_cell_angle_gamma   90.42179108
_symmetry_Int_Tables_number   1
_chemical_formula_structural   LiH2SO5
_chemical_formula_sum   'Li2 H4 S2 O10'
_cell_volume   185.09721335
_cell_formula_units_Z   2
loop_
 _symmetry_equiv_pos_site_id
 _symmetry_equiv_pos_as_xyz
  1  'x, y, z'
loop_
 _atom_site_type_symbol
 _atom_site_label
 _atom_site_symmetry_multiplicity
 _atom_site_fract_x
 _atom_site_fract_y
 _atom_site_fract_z
 _atom_site_occupancy
  Li  Li0  1  0.50000004  0.50000004  0.50000004  1
  Li  Li1  1  0.00000000  0.00000000  0.00000000  1
  H  H2  1  0.82273902  0.40462003  0.77843204  1
  H  H3  1  0.17726106  0.59538004  0.22156804  1
  H  H4  1  0.02075305  0.50845704  0.68527502  1
  H  H5  1  0.97924703  0.49154304  0.31472506  1
  S  S6  1  0.39164500  0.07025301  0.75513600  1
  S  S7  1  0.60835509  0.92974707  0.24486408  1
  O  O8  1  0.74023207  0.83662706  0.09257608  1
  O  O9  1  0.25976801  0.16337301  0.90742400  1
  O  O10  1  0.29467108  0.84179406  0.15391006  1
  O  O11  1  0.70532900  0.15820601  0.84609002  1
  O  O12  1  0.66187801  0.23353502  0.32684203  1
  O  O13  1  0.33812207  0.76646506  0.67315805  1
  O  O14  1  0.71260407  0.80183406  0.38978607  1
  O  O15  1  0.28739601  0.19816601  0.61021401  1
  O  O16  1  0.14689105  0.45302903  0.27592903  1
  O  O17  1  0.85310904  0.54697104  0.72407105  1
