# generated using pymatgen
data_K2NaAg(PO4)2
_symmetry_space_group_name_H-M   'P 1'
_cell_length_a   5.38384390
_cell_length_b   5.38384342
_cell_length_c   7.06342888
_cell_angle_alpha   90.00000000
_cell_angle_beta   90.00000000
_cell_angle_gamma   120.00000000
_symmetry_Int_Tables_number   1
_chemical_formula_structural   K2NaAg(PO4)2
_chemical_formula_sum   'K2 Na1 Ag1 P2 O8'
_cell_volume   177.30912575
_cell_formula_units_Z   1
loop_
 _symmetry_equiv_pos_site_id
 _symmetry_equiv_pos_as_xyz
  1  'x, y, z'
loop_
 _atom_site_type_symbol
 _atom_site_label
 _atom_site_symmetry_multiplicity
 _atom_site_fract_x
 _atom_site_fract_y
 _atom_site_fract_z
 _atom_site_occupancy
  K  K0  1  0.00000000  0.00000000  0.50000001  1
  K  K1  1  0.66666666  0.33333332  0.81907801  1
  Na  Na2  1  0.33333329  0.66666664  0.18092200  1
  Ag  Ag3  1  0.00000000  0.00000000  0.00000000  1
  P  P4  1  0.66666666  0.33333332  0.25679300  1
  P  P5  1  0.33333329  0.66666664  0.74320701  1
  O  O6  1  0.66666666  0.33333332  0.47463701  1
  O  O7  1  0.33333329  0.66666664  0.52536301  1
  O  O8  1  0.17706894  0.82292997  0.82131501  1
  O  O9  1  0.17706898  0.35413799  0.82131501  1
  O  O10  1  0.64586095  0.82292997  0.82131501  1
  O  O11  1  0.82293100  0.17706999  0.17868500  1
  O  O12  1  0.82293097  0.64586198  0.17868500  1
  O  O13  1  0.35413899  0.17706999  0.17868500  1
