# generated using pymatgen
data_CeAu
_symmetry_space_group_name_H-M   'P 1'
_cell_length_a   4.74492788
_cell_length_b   6.00168610
_cell_length_c   7.40921879
_cell_angle_alpha   90.00000000
_cell_angle_beta   90.00000000
_cell_angle_gamma   90.00000000
_symmetry_Int_Tables_number   1
_chemical_formula_structural   CeAu
_chemical_formula_sum   'Ce4 Au4'
_cell_volume   210.99652967
_cell_formula_units_Z   4
loop_
 _symmetry_equiv_pos_site_id
 _symmetry_equiv_pos_as_xyz
  1  'x, y, z'
loop_
 _atom_site_type_symbol
 _atom_site_label
 _atom_site_symmetry_multiplicity
 _atom_site_fract_x
 _atom_site_fract_y
 _atom_site_fract_z
 _atom_site_occupancy
  Ce  Ce0  1  0.25000001  0.64418099  0.18259901  1
  Ce  Ce1  1  0.75000002  0.35581899  0.81740102  1
  Ce  Ce2  1  0.75000002  0.14418100  0.31740101  1
  Ce  Ce3  1  0.25000001  0.85581899  0.68259902  1
  Au  Au4  1  0.25000001  0.15311700  0.04123500  1
  Au  Au5  1  0.75000002  0.84688299  0.95876503  1
  Au  Au6  1  0.75000002  0.65311699  0.45876501  1
  Au  Au7  1  0.25000001  0.34688299  0.54123502  1
