# generated using pymatgen
data_TbCrCo11
_symmetry_space_group_name_H-M   'P 1'
_cell_length_a   4.62299013
_cell_length_b   6.31122398
_cell_length_c   6.31122398
_cell_angle_alpha   82.29109955
_cell_angle_beta   68.51538086
_cell_angle_gamma   68.51538086
_symmetry_Int_Tables_number   1
_chemical_formula_structural   TbCrCo11
_chemical_formula_sum   'Tb1 Cr1 Co11'
_cell_volume   159.44017753
_cell_formula_units_Z   1
loop_
 _symmetry_equiv_pos_site_id
 _symmetry_equiv_pos_as_xyz
  1  'x, y, z'
loop_
 _atom_site_type_symbol
 _atom_site_label
 _atom_site_symmetry_multiplicity
 _atom_site_fract_x
 _atom_site_fract_y
 _atom_site_fract_z
 _atom_site_occupancy
  Tb  Tb0  1  0.00000000  0.00000000  0.00000000  1
  Cr  Cr1  1  0.27327200  0.22672800  0.22672800  1
  Co  Co2  1  0.50000001  0.99999999  0.50000001  1
  Co  Co3  1  0.99999998  0.50000000  0.00000001  1
  Co  Co4  1  0.49999999  0.50000000  0.00000001  1
  Co  Co5  1  0.00000000  0.00000000  0.50000000  1
  Co  Co6  1  0.63798899  0.36201100  0.36201101  1
  Co  Co7  1  0.00000001  0.63798900  0.36201100  1
  Co  Co8  1  0.00000001  0.36201100  0.63798900  1
  Co  Co9  1  0.36201100  0.63798900  0.63798901  1
  Co  Co10  1  0.72672799  0.77327199  0.77327201  1
  Co  Co11  1  0.49999999  0.22672800  0.77327201  1
  Co  Co12  1  0.50000000  0.77327199  0.22672801  1
