# generated using pymatgen
data_NaCeBiS2
_symmetry_space_group_name_H-M   'P 1'
_cell_length_a   4.13763809
_cell_length_b   5.28384590
_cell_length_c   7.47006750
_cell_angle_alpha   110.71182251
_cell_angle_beta   106.07812500
_cell_angle_gamma   90.00000000
_symmetry_Int_Tables_number   1
_chemical_formula_structural   NaCeBiS2
_chemical_formula_sum   'Na1 Ce1 Bi1 S2'
_cell_volume   145.91105207
_cell_formula_units_Z   1
loop_
 _symmetry_equiv_pos_site_id
 _symmetry_equiv_pos_as_xyz
  1  'x, y, z'
loop_
 _atom_site_type_symbol
 _atom_site_label
 _atom_site_symmetry_multiplicity
 _atom_site_fract_x
 _atom_site_fract_y
 _atom_site_fract_z
 _atom_site_occupancy
  Na  Na0  1  0.66669998  0.16670000  0.33336667  1
  Ce  Ce1  1  0.33329998  0.83330001  0.66663334  1
  Bi  Bi2  1  0.00000000  0.00000000  0.00000000  1
  S  S3  1  0.29622399  0.29622400  0.59244801  1
  S  S4  1  0.70377597  0.70377601  0.40755200  1
