# generated using pymatgen
data_CaCl2
_symmetry_space_group_name_H-M   'P 1'
_cell_length_a   4.36597586
_cell_length_b   7.69174194
_cell_length_c   9.18739414
_cell_angle_alpha   90.00000000
_cell_angle_beta   90.00000000
_cell_angle_gamma   90.00000000
_symmetry_Int_Tables_number   1
_chemical_formula_structural   CaCl2
_chemical_formula_sum   'Ca4 Cl8'
_cell_volume   308.53069911
_cell_formula_units_Z   4
loop_
 _symmetry_equiv_pos_site_id
 _symmetry_equiv_pos_as_xyz
  1  'x, y, z'
loop_
 _atom_site_type_symbol
 _atom_site_label
 _atom_site_symmetry_multiplicity
 _atom_site_fract_x
 _atom_site_fract_y
 _atom_site_fract_z
 _atom_site_occupancy
  Ca  Ca0  1  0.25000001  0.25992000  0.36855499  1
  Ca  Ca1  1  0.25000001  0.75992001  0.13144500  1
  Ca  Ca2  1  0.75000002  0.74008001  0.63144499  1
  Ca  Ca3  1  0.75000002  0.24008000  0.86855499  1
  Cl  Cl4  1  0.25000001  0.45932300  0.67082399  1
  Cl  Cl5  1  0.25000001  0.95932301  0.82917599  1
  Cl  Cl6  1  0.75000002  0.54067700  0.32917599  1
  Cl  Cl7  1  0.75000002  0.04067700  0.17082400  1
  Cl  Cl8  1  0.25000001  0.86419401  0.44017999  1
  Cl  Cl9  1  0.25000001  0.36419400  0.05982000  1
  Cl  Cl10  1  0.75000002  0.13580600  0.55981999  1
  Cl  Cl11  1  0.75000002  0.63580600  0.94017999  1
