# generated using pymatgen
data_Rb2BaLaO6
_symmetry_space_group_name_H-M   'P 1'
_cell_length_a   6.81961679
_cell_length_b   6.81961679
_cell_length_c   6.81961679
_cell_angle_alpha   89.33745575
_cell_angle_beta   60.38177872
_cell_angle_gamma   119.61822510
_symmetry_Int_Tables_number   1
_chemical_formula_structural   Rb2BaLaO6
_chemical_formula_sum   'Rb2 Ba1 La1 O6'
_cell_volume   225.54456952
_cell_formula_units_Z   1
loop_
 _symmetry_equiv_pos_site_id
 _symmetry_equiv_pos_as_xyz
  1  'x, y, z'
loop_
 _atom_site_type_symbol
 _atom_site_label
 _atom_site_symmetry_multiplicity
 _atom_site_fract_x
 _atom_site_fract_y
 _atom_site_fract_z
 _atom_site_occupancy
  Rb  Rb0  1  0.50000004  0.25165402  0.24834597  1
  Rb  Rb1  1  0.50000011  0.75165405  0.74834591  1
  La  La2  1  0.00000000  0.01900200  0.98099799  1
  Ba  Ba3  1  0.00000007  0.48693304  0.51306694  1
  O  O4  1  0.00000003  0.21883002  0.78116997  1
  O  O5  1  0.42971203  0.21023702  0.78976297  1
  O  O6  1  0.00000012  0.78052506  0.78976290  1
  O  O7  1  0.00000003  0.21023702  0.21947497  1
  O  O8  1  0.57028812  0.78052506  0.21947491  1
  O  O9  1  0.00000012  0.79040206  0.20959790  1
