# generated using pymatgen
data_Ti3Si4
_symmetry_space_group_name_H-M   'P 1'
_cell_length_a   3.91682410
_cell_length_b   9.35456276
_cell_length_c   9.83857918
_cell_angle_alpha   102.65219879
_cell_angle_beta   101.48166656
_cell_angle_gamma   90.00000000
_symmetry_Int_Tables_number   1
_chemical_formula_structural   Ti3Si4
_chemical_formula_sum   'Ti6 Si8'
_cell_volume   344.33654376
_cell_formula_units_Z   2
loop_
 _symmetry_equiv_pos_site_id
 _symmetry_equiv_pos_as_xyz
  1  'x, y, z'
loop_
 _atom_site_type_symbol
 _atom_site_label
 _atom_site_symmetry_multiplicity
 _atom_site_fract_x
 _atom_site_fract_y
 _atom_site_fract_z
 _atom_site_occupancy
  Ti  Ti0  1  0.49999999  0.49999997  -0.00000001  1
  Ti  Ti1  1  0.71305998  0.33826198  0.42612000  1
  Ti  Ti2  1  0.64477898  0.90804695  0.28955799  1
  Ti  Ti3  1  0.35522099  0.09195299  0.71044200  1
  Ti  Ti4  1  0.28693999  0.66173796  0.57387999  1
  Ti  Ti5  1  0.00000000  0.00000000  0.00000000  1
  Si  Si6  1  0.83524598  0.52418397  0.67049200  1
  Si  Si7  1  0.93117298  0.21744499  0.86234600  1
  Si  Si8  1  0.06882700  0.78255496  0.13765398  1
  Si  Si9  1  0.58541599  0.12438199  0.17083200  1
  Si  Si10  1  0.41458399  0.87561795  0.82916799  1
  Si  Si11  1  0.76250598  0.84730395  0.52501199  1
  Si  Si12  1  0.23749399  0.15269599  0.47498800  1
  Si  Si13  1  0.16475400  0.47581597  0.32950799  1
