# generated using pymatgen
data_NbPb4W5
_symmetry_space_group_name_H-M   'P 1'
_cell_length_a   4.68837500
_cell_length_b   10.65268612
_cell_length_c   25.80630684
_cell_angle_alpha   90.00000000
_cell_angle_beta   90.00000000
_cell_angle_gamma   90.00000000
_symmetry_Int_Tables_number   1
_chemical_formula_structural   NbPb4W5
_chemical_formula_sum   'Nb1 Pb4 W5'
_cell_volume   1288.86469829
_cell_formula_units_Z   1
loop_
 _symmetry_equiv_pos_site_id
 _symmetry_equiv_pos_as_xyz
  1  'x, y, z'
loop_
 _atom_site_type_symbol
 _atom_site_label
 _atom_site_symmetry_multiplicity
 _atom_site_fract_x
 _atom_site_fract_y
 _atom_site_fract_z
 _atom_site_occupancy
  W  W0  1  0.66737400  0.85257999  0.47535698  1
  Pb  Pb1  1  0.16737400  0.64741999  0.52464298  1
  Nb  Nb2  1  0.16737400  0.35258000  0.52464298  1
  Pb  Pb3  1  0.66737400  0.14742000  0.47535698  1
  Pb  Pb4  1  0.98146400  0.71722699  0.45396499  1
  Pb  Pb5  1  0.48146400  0.78277299  0.54603498  1
  W  W6  1  0.48146400  0.21722700  0.54603498  1
  W  W7  1  0.98146400  0.28277300  0.45396499  1
  W  W8  1  0.91143400  0.00000000  0.51107498  1
  W  W9  1  0.41143400  0.49999999  0.48892498  1
