# generated using pymatgen
data_Ti5VSi3
_symmetry_space_group_name_H-M   'P 1'
_cell_length_a   5.89444208
_cell_length_b   5.89444208
_cell_length_c   5.89444208
_cell_angle_alpha   90.00000000
_cell_angle_beta   90.00000000
_cell_angle_gamma   90.00000000
_symmetry_Int_Tables_number   1
_chemical_formula_structural   Ti5VSi3
_chemical_formula_sum   'Ti5 V1 Si3'
_cell_volume   204.79913316
_cell_formula_units_Z   1
loop_
 _symmetry_equiv_pos_site_id
 _symmetry_equiv_pos_as_xyz
  1  'x, y, z'
loop_
 _atom_site_type_symbol
 _atom_site_label
 _atom_site_symmetry_multiplicity
 _atom_site_fract_x
 _atom_site_fract_y
 _atom_site_fract_z
 _atom_site_occupancy
  Ti  Ti0  1  0.49999999  0.49999999  0.49999999  1
  Ti  Ti1  1  0.00000000  0.00000000  0.00000000  1
  Ti  Ti2  1  -0.00000000  0.49999999  0.00000000  1
  Ti  Ti3  1  0.00000000  0.00000000  0.49999999  1
  Ti  Ti4  1  0.49999999  0.00000000  0.00000000  1
  V  V5  1  0.23389200  0.23389200  0.23389200  1
  Si  Si6  1  0.76610799  0.76610799  0.23389200  1
  Si  Si7  1  0.23389200  0.76610799  0.76610799  1
  Si  Si8  1  0.76610799  0.23389200  0.76610799  1
