# generated using pymatgen
data_LiF
_symmetry_space_group_name_H-M   'P 1'
_cell_length_a   3.34705591
_cell_length_b   3.34705544
_cell_length_c   5.00328302
_cell_angle_alpha   90.00000000
_cell_angle_beta   90.00000000
_cell_angle_gamma   120.00000763
_symmetry_Int_Tables_number   1
_chemical_formula_structural   LiF
_chemical_formula_sum   'Li2 F2'
_cell_volume   48.54131546
_cell_formula_units_Z   2
loop_
 _symmetry_equiv_pos_site_id
 _symmetry_equiv_pos_as_xyz
  1  'x, y, z'
loop_
 _atom_site_type_symbol
 _atom_site_label
 _atom_site_symmetry_multiplicity
 _atom_site_fract_x
 _atom_site_fract_y
 _atom_site_fract_z
 _atom_site_occupancy
  Li  Li0  1  0.66666671  0.33333336  0.99936800  1
  Li  Li1  1  0.33333338  0.66666671  0.49936800  1
  F  F2  1  0.66666671  0.33333336  0.59603200  1
  F  F3  1  0.33333338  0.66666671  0.09603200  1
