# generated using pymatgen
data_CdAg2TeO6
_symmetry_space_group_name_H-M   'P 1'
_cell_length_a   3.24247098
_cell_length_b   6.41693592
_cell_length_c   6.41693592
_cell_angle_alpha   107.53874969
_cell_angle_beta   90.00000000
_cell_angle_gamma   90.00000000
_symmetry_Int_Tables_number   1
_chemical_formula_structural   CdAg2TeO6
_chemical_formula_sum   'Cd1 Ag2 Te1 O6'
_cell_volume   127.30875947
_cell_formula_units_Z   1
loop_
 _symmetry_equiv_pos_site_id
 _symmetry_equiv_pos_as_xyz
  1  'x, y, z'
loop_
 _atom_site_type_symbol
 _atom_site_label
 _atom_site_symmetry_multiplicity
 _atom_site_fract_x
 _atom_site_fract_y
 _atom_site_fract_z
 _atom_site_occupancy
  Te  Te0  1  -0.00000000  0.50017400  0.49982601  1
  Ag  Ag1  1  -0.00000000  0.00801200  0.99198798  1
  Ag  Ag2  1  0.50000000  0.50294300  0.00069702  1
  Cd  Cd3  1  0.50000000  0.99930299  0.49705702  1
  O  O4  1  -0.00000000  0.44876500  0.19223901  1
  O  O5  1  -0.00000000  0.19383600  0.45049900  1
  O  O6  1  0.50000000  0.13854500  0.86145499  1
  O  O7  1  0.50000000  0.86234899  0.13765103  1
  O  O8  1  1.00000001  0.54950100  0.80616400  1
  O  O9  1  1.00000001  0.80776099  0.55123502  1
