# generated using pymatgen
data_Cu3GeS4
_symmetry_space_group_name_H-M   'P 1'
_cell_length_a   5.47099876
_cell_length_b   5.47818184
_cell_length_c   6.67178631
_cell_angle_alpha   114.23928833
_cell_angle_beta   114.20547485
_cell_angle_gamma   90.00000000
_symmetry_Int_Tables_number   1
_chemical_formula_structural   Cu3GeS4
_chemical_formula_sum   'Cu3 Ge1 S4'
_cell_volume   162.85977367
_cell_formula_units_Z   1
loop_
 _symmetry_equiv_pos_site_id
 _symmetry_equiv_pos_as_xyz
  1  'x, y, z'
loop_
 _atom_site_type_symbol
 _atom_site_label
 _atom_site_symmetry_multiplicity
 _atom_site_fract_x
 _atom_site_fract_y
 _atom_site_fract_z
 _atom_site_occupancy
  Cu  Cu0  1  0.24463104  0.74463003  0.48926100  1
  Cu  Cu1  1  0.50536905  0.50537002  0.01073903  1
  Cu  Cu2  1  0.73880005  0.23880101  0.47760102  1
  Ge  Ge3  1  0.01120000  0.01119900  0.02239900  1
  S  S4  1  0.11701502  0.62500002  0.74999999  1
  S  S5  1  0.63298504  0.12500000  0.75000000  1
  S  S6  1  0.37500003  0.37558401  0.25000001  1
  S  S7  1  0.87500008  0.87441603  0.25000004  1
