# generated using pymatgen
data_Nd3IrC2
_symmetry_space_group_name_H-M   'P 1'
_cell_length_a   4.32432604
_cell_length_b   4.87541676
_cell_length_c   7.27000523
_cell_angle_alpha   79.41186523
_cell_angle_beta   72.69796753
_cell_angle_gamma   63.67369843
_symmetry_Int_Tables_number   1
_chemical_formula_structural   Nd3IrC2
_chemical_formula_sum   'Nd3 Ir1 C2'
_cell_volume   130.91850924
_cell_formula_units_Z   1
loop_
 _symmetry_equiv_pos_site_id
 _symmetry_equiv_pos_as_xyz
  1  'x, y, z'
loop_
 _atom_site_type_symbol
 _atom_site_label
 _atom_site_symmetry_multiplicity
 _atom_site_fract_x
 _atom_site_fract_y
 _atom_site_fract_z
 _atom_site_occupancy
  Nd  Nd0  1  0.13406000  0.75000002  0.25000002  1
  Nd  Nd1  1  0.86594000  0.25000001  0.75000000  1
  Nd  Nd2  1  0.47116300  0.78912402  0.52844102  1
  Ir  Ir3  1  0.78872800  0.71087602  0.97155901  1
  C  C4  1  0.52883700  0.21087600  0.47155900  1
  C  C5  1  0.21127200  0.28912401  0.02844101  1
