# generated using pymatgen
data_KZrO3
_symmetry_space_group_name_H-M   'P 1'
_cell_length_a   5.74259377
_cell_length_b   5.82294035
_cell_length_c   5.74259377
_cell_angle_alpha   60.45540237
_cell_angle_beta   90.00000000
_cell_angle_gamma   119.54459381
_symmetry_Int_Tables_number   1
_chemical_formula_structural   KZrO3
_chemical_formula_sum   'K2 Zr2 O6'
_cell_volume   137.63048173
_cell_formula_units_Z   2
loop_
 _symmetry_equiv_pos_site_id
 _symmetry_equiv_pos_as_xyz
  1  'x, y, z'
loop_
 _atom_site_type_symbol
 _atom_site_label
 _atom_site_symmetry_multiplicity
 _atom_site_fract_x
 _atom_site_fract_y
 _atom_site_fract_z
 _atom_site_occupancy
  K  K0  1  0.75000000  0.50000000  0.75000003  1
  K  K1  1  0.24999998  0.50000000  0.25000001  1
  Zr  Zr2  1  0.00000000  0.00000000  0.00000000  1
  Zr  Zr3  1  0.50000002  0.00000000  0.50000002  1
  O  O4  1  0.30646701  0.00000000  0.80646703  1
  O  O5  1  0.80646703  0.00000000  0.69353303  1
  O  O6  1  0.19353295  1.00000000  0.30646702  1
  O  O7  1  0.69353297  1.00000000  0.19353301  1
  O  O8  1  0.24999998  0.50000000  0.75000003  1
  O  O9  1  0.75000000  0.50000000  0.25000001  1
