# generated using pymatgen
data_Nd3Cl5O2
_symmetry_space_group_name_H-M   'P 1'
_cell_length_a   6.58064508
_cell_length_b   6.59302616
_cell_length_c   9.32698822
_cell_angle_alpha   90.00000000
_cell_angle_beta   90.00000000
_cell_angle_gamma   90.00000000
_symmetry_Int_Tables_number   1
_chemical_formula_structural   Nd3Cl5O2
_chemical_formula_sum   'Nd6 Cl10 O4'
_cell_volume   404.66411713
_cell_formula_units_Z   2
loop_
 _symmetry_equiv_pos_site_id
 _symmetry_equiv_pos_as_xyz
  1  'x, y, z'
loop_
 _atom_site_type_symbol
 _atom_site_label
 _atom_site_symmetry_multiplicity
 _atom_site_fract_x
 _atom_site_fract_y
 _atom_site_fract_z
 _atom_site_occupancy
  Nd  Nd0  1  0.77279599  0.22715999  0.47912399  1
  Nd  Nd1  1  0.27279600  0.27283999  0.47912399  1
  Nd  Nd2  1  0.50333899  0.04095400  0.74999998  1
  Nd  Nd3  1  0.49666099  0.95904598  0.24999999  1
  Nd  Nd4  1  0.99666099  0.54095399  0.24999999  1
  Nd  Nd5  1  0.72720399  0.72715998  0.52087599  1
  Cl  Cl6  1  0.22720400  0.77283998  0.52087599  1
  Cl  Cl7  1  0.27279600  0.27283999  0.02087600  1
  Cl  Cl8  1  0.00333800  0.45904599  0.74999998  1
  Cl  Cl9  1  0.77279599  0.22715999  0.02087600  1
  Cl  Cl10  1  0.72720399  0.72715998  0.97912398  1
  Cl  Cl11  1  0.22720400  0.77283998  0.97912398  1
  Cl  Cl12  1  0.98772499  0.99768398  0.74999998  1
  Cl  Cl13  1  0.48772499  0.50231599  0.74999998  1
  Cl  Cl14  1  0.01227500  0.00231600  0.24999999  1
  Cl  Cl15  1  0.51227499  0.49768399  0.24999999  1
  O  O16  1  0.49999999  0.00000000  0.00000000  1
  O  O17  1  0.49999999  0.00000000  0.49999999  1
  O  O18  1  -0.00000000  0.49999999  0.49999999  1
  O  O19  1  -0.00000000  0.49999999  0.00000000  1
