# generated using pymatgen
data_CaTl2Bi5
_symmetry_space_group_name_H-M   'P 1'
_cell_length_a   4.61382818
_cell_length_b   7.99847078
_cell_length_c   8.00090313
_cell_angle_alpha   99.68288422
_cell_angle_beta   106.75810242
_cell_angle_gamma   90.00000000
_symmetry_Int_Tables_number   1
_chemical_formula_structural   CaTl2Bi5
_chemical_formula_sum   'Ca1 Tl2 Bi5'
_cell_volume   278.32647166
_cell_formula_units_Z   1
loop_
 _symmetry_equiv_pos_site_id
 _symmetry_equiv_pos_as_xyz
  1  'x, y, z'
loop_
 _atom_site_type_symbol
 _atom_site_label
 _atom_site_symmetry_multiplicity
 _atom_site_fract_x
 _atom_site_fract_y
 _atom_site_fract_z
 _atom_site_occupancy
  Bi  Bi0  1  0.00000000  0.00000000  0.00000000  1
  Ca  Ca1  1  0.37888398  0.12073700  0.75776795  1
  Tl  Tl2  1  0.12297300  0.36877000  0.24594600  1
  Tl  Tl3  1  0.87702696  0.63123000  0.75405397  1
  Bi  Bi4  1  0.62111598  0.87926300  0.24223201  1
  Bi  Bi5  1  0.75002496  0.24965600  0.50004996  1
  Bi  Bi6  1  0.49999998  0.50000000  0.00000001  1
  Bi  Bi7  1  0.24997500  0.75034400  0.49995000  1
