# generated using pymatgen
data_Sc5Ni2TeSe8
_symmetry_space_group_name_H-M   'P 1'
_cell_length_a   7.99975872
_cell_length_b   7.99975872
_cell_length_c   8.06348610
_cell_angle_alpha   109.56395721
_cell_angle_beta   109.51927185
_cell_angle_gamma   109.00725555
_symmetry_Int_Tables_number   1
_chemical_formula_structural   Sc5Ni2TeSe8
_chemical_formula_sum   'Sc5 Ni2 Te1 Se8'
_cell_volume   398.80939446
_cell_formula_units_Z   1
loop_
 _symmetry_equiv_pos_site_id
 _symmetry_equiv_pos_as_xyz
  1  'x, y, z'
loop_
 _atom_site_type_symbol
 _atom_site_label
 _atom_site_symmetry_multiplicity
 _atom_site_fract_x
 _atom_site_fract_y
 _atom_site_fract_z
 _atom_site_occupancy
  Sc  Sc0  1  1.00000001  0.00000000  0.50000003  1
  Sc  Sc1  1  0.49999996  0.49999997  0.49999997  1
  Sc  Sc2  1  0.15669193  0.66370696  0.82039896  1
  Sc  Sc3  1  0.84330798  0.33629298  0.17960099  1
  Ni  Ni4  1  0.84231894  0.66161196  0.50393096  1
  Sc  Sc5  1  0.15768097  0.33838798  0.49606898  1
  Se  Se6  1  0.81955499  0.15566399  0.66072001  1
  Se  Se7  1  0.18044492  0.84433595  0.33927993  1
  Te  Te8  1  0.50505592  0.84116495  0.66071994  1
  Ni  Ni9  1  0.49494399  0.15883499  0.33928000  1
  Se  Se10  1  0.66452692  0.81911895  0.15947793  1
  Se  Se11  1  0.33547299  0.18088099  0.84052201  1
  Se  Se12  1  0.65964096  0.50504897  0.84052198  1
  Se  Se13  1  0.34035895  0.49495097  0.15947796  1
  Se  Se14  1  0.99999996  0.49999997  -0.00000003  1
  Se  Se15  1  0.50000001  0.00000000  0.00000001  1
