# generated using pymatgen
data_KNbO3
_symmetry_space_group_name_H-M   'P 1'
_cell_length_a   4.09155273
_cell_length_b   4.09155273
_cell_length_c   4.09155226
_cell_angle_alpha   89.91297150
_cell_angle_beta   89.91297150
_cell_angle_gamma   89.91297913
_symmetry_Int_Tables_number   1
_chemical_formula_structural   KNbO3
_chemical_formula_sum   'K1 Nb1 O3'
_cell_volume   68.49563670
_cell_formula_units_Z   1
loop_
 _symmetry_equiv_pos_site_id
 _symmetry_equiv_pos_as_xyz
  1  'x, y, z'
loop_
 _atom_site_type_symbol
 _atom_site_label
 _atom_site_symmetry_multiplicity
 _atom_site_fract_x
 _atom_site_fract_y
 _atom_site_fract_z
 _atom_site_occupancy
  K  K0  1  0.02281100  0.02281100  0.02281100  1
  Nb  Nb1  1  0.51158500  0.51158503  0.51158495  1
  O  O2  1  0.03801898  0.53178203  0.53178198  1
  O  O3  1  0.53178200  0.53178203  0.03801893  1
  O  O4  1  0.53178203  0.03801900  0.53178198  1
