# generated using pymatgen
data_V3W(OF2)5
_symmetry_space_group_name_H-M   'P 1'
_cell_length_a   5.05919695
_cell_length_b   5.06841230
_cell_length_c   8.96281052
_cell_angle_alpha   89.70588684
_cell_angle_beta   79.66716003
_cell_angle_gamma   80.31647491
_symmetry_Int_Tables_number   1
_chemical_formula_structural   V3W(OF2)5
_chemical_formula_sum   'V3 W1 O5 F10'
_cell_volume   222.80226727
_cell_formula_units_Z   1
loop_
 _symmetry_equiv_pos_site_id
 _symmetry_equiv_pos_as_xyz
  1  'x, y, z'
loop_
 _atom_site_type_symbol
 _atom_site_label
 _atom_site_symmetry_multiplicity
 _atom_site_fract_x
 _atom_site_fract_y
 _atom_site_fract_z
 _atom_site_occupancy
  V  V0  1  0.90839100  0.18380400  0.35875704  1
  V  V1  1  0.57559298  0.75400401  0.29720705  1
  V  V2  1  0.73909598  0.95482201  0.68349106  1
  W  W3  1  0.44868499  0.46072501  0.93984204  1
  O  O4  1  0.24218299  0.43454701  0.58640103  1
  O  O5  1  0.00130400  0.00503900  0.99914401  1
  O  O6  1  0.92268799  0.49203901  0.27803805  1
  O  O7  1  0.25578998  0.95163501  0.31731304  1
  O  O8  1  0.70181398  0.92722701  0.46887906  1
  F  F9  1  0.59723298  0.71794501  0.78642005  1
  F  F10  1  0.53561999  0.57245601  0.09839904  1
  F  F11  1  0.41559099  0.27052900  0.71984103  1
  F  F12  1  0.80295000  0.16059300  0.87255004  1
  F  F13  1  0.08832698  0.67324901  0.95157103  1
  F  F14  1  0.79212100  0.01764200  0.17962603  1
  F  F15  1  0.97554599  0.26986800  0.56435705  1
  F  F16  1  0.11621098  0.75736001  0.64129804  1
  F  F17  1  0.47274199  0.43404801  0.41874503  1
  F  F18  1  0.26823200  0.15516900  0.01709201  1
