# generated using pymatgen
data_BaCaSnO3
_symmetry_space_group_name_H-M   'P 1'
_cell_length_a   4.00962210
_cell_length_b   7.05747414
_cell_length_c   7.62269926
_cell_angle_alpha   104.79756927
_cell_angle_beta   90.00000000
_cell_angle_gamma   106.50321960
_symmetry_Int_Tables_number   1
_chemical_formula_structural   BaCaSnO3
_chemical_formula_sum   'Ba2 Ca2 Sn2 O6'
_cell_volume   199.34669703
_cell_formula_units_Z   2
loop_
 _symmetry_equiv_pos_site_id
 _symmetry_equiv_pos_as_xyz
  1  'x, y, z'
loop_
 _atom_site_type_symbol
 _atom_site_label
 _atom_site_symmetry_multiplicity
 _atom_site_fract_x
 _atom_site_fract_y
 _atom_site_fract_z
 _atom_site_occupancy
  Ba  Ba0  1  0.64286400  0.28572801  0.56552703  1
  Ba  Ba1  1  0.35713604  0.71427203  0.43447305  1
  Ca  Ca2  1  0.34962804  0.69925603  0.91699807  1
  Ca  Ca3  1  0.65037201  0.30074401  0.08300202  1
  Sn  Sn4  1  0.99307504  0.98615004  0.22848807  1
  Sn  Sn5  1  0.00692500  0.01385000  0.77151102  1
  O  O6  1  0.15135702  0.30271401  0.28357103  1
  O  O7  1  0.16771002  0.33542001  0.86416904  1
  O  O8  1  0.49293206  0.98586404  0.18942407  1
  O  O9  1  0.83229003  0.66458003  0.13583104  1
  O  O10  1  0.50706799  0.01413600  0.81057602  1
  O  O11  1  0.84864303  0.69728603  0.71642906  1
