# generated using pymatgen
data_Be7HNO3
_symmetry_space_group_name_H-M   'P 1'
_cell_length_a   4.44823408
_cell_length_b   4.44823408
_cell_length_c   7.20322180
_cell_angle_alpha   90.00000000
_cell_angle_beta   90.00000000
_cell_angle_gamma   120.00000000
_symmetry_Int_Tables_number   1
_chemical_formula_structural   Be7HNO3
_chemical_formula_sum   'Be7 H1 N1 O3'
_cell_volume   123.43339825
_cell_formula_units_Z   1
loop_
 _symmetry_equiv_pos_site_id
 _symmetry_equiv_pos_as_xyz
  1  'x, y, z'
loop_
 _atom_site_type_symbol
 _atom_site_label
 _atom_site_symmetry_multiplicity
 _atom_site_fract_x
 _atom_site_fract_y
 _atom_site_fract_z
 _atom_site_occupancy
  Be  Be0  1  0.92416901  0.46208403  0.57689602  1
  Be  Be1  1  0.53791501  0.46208403  0.57689602  1
  Be  Be2  1  0.33333336  0.66666672  0.27136201  1
  Be  Be3  1  0.66666667  0.33333336  0.77136202  1
  Be  Be4  1  0.46208502  0.53791604  0.07689600  1
  Be  Be5  1  0.53791499  0.07583001  0.57689602  1
  H  H6  1  0.07583102  0.53791604  0.07689600  1
  N  N7  1  0.46208503  0.92417007  0.07689600  1
  Be  Be8  1  0.33333336  0.66666672  0.12534200  1
  O  O9  1  0.66666667  0.33333336  0.62534202  1
  O  O10  1  0.33333336  0.66666672  0.50240901  1
  O  O11  1  0.66666667  0.33333336  0.00240900  1
