# generated using pymatgen
data_Na2SrO4
_symmetry_space_group_name_H-M   'P 1'
_cell_length_a   5.02961636
_cell_length_b   5.02961636
_cell_length_c   5.02961636
_cell_angle_alpha   81.93727875
_cell_angle_beta   64.54059601
_cell_angle_gamma   115.45940399
_symmetry_Int_Tables_number   1
_chemical_formula_structural   Na2SrO4
_chemical_formula_sum   'Na2 Sr1 O4'
_cell_volume   95.12105449
_cell_formula_units_Z   1
loop_
 _symmetry_equiv_pos_site_id
 _symmetry_equiv_pos_as_xyz
  1  'x, y, z'
loop_
 _atom_site_type_symbol
 _atom_site_label
 _atom_site_symmetry_multiplicity
 _atom_site_fract_x
 _atom_site_fract_y
 _atom_site_fract_z
 _atom_site_occupancy
  Na  Na0  1  0.49999999  0.25000000  0.24999999  1
  Na  Na1  1  0.49999999  0.74999999  0.74999997  1
  Sr  Sr2  1  0.43542499  0.21771200  0.78228798  1
  O  O3  1  0.56457499  0.78228798  0.21771198  1
  O  O4  1  0.99999998  0.21771300  0.21771299  1
  O  O5  1  0.99999998  0.78228698  0.78228697  1
  O  O6  1  0.00000000  0.00000000  0.00000000  1
