# generated using pymatgen
data_LiNbO3
_symmetry_space_group_name_H-M   'P 1'
_cell_length_a   5.22299004
_cell_length_b   5.22299004
_cell_length_c   5.59239864
_cell_angle_alpha   62.16206741
_cell_angle_beta   62.16206741
_cell_angle_gamma   60.00000000
_symmetry_Int_Tables_number   1
_chemical_formula_structural   LiNbO3
_chemical_formula_sum   'Li2 Nb2 O6'
_cell_volume   111.26705970
_cell_formula_units_Z   2
loop_
 _symmetry_equiv_pos_site_id
 _symmetry_equiv_pos_as_xyz
  1  'x, y, z'
loop_
 _atom_site_type_symbol
 _atom_site_label
 _atom_site_symmetry_multiplicity
 _atom_site_fract_x
 _atom_site_fract_y
 _atom_site_fract_z
 _atom_site_occupancy
  Li  Li0  1  0.28283200  0.28283200  0.15150400  1
  Li  Li1  1  0.78283201  0.78283200  0.65150401  1
  Nb  Nb2  1  0.00076900  0.00076900  0.99769304  1
  Nb  Nb3  1  0.50076901  0.50076900  0.49769301  1
  O  O4  1  0.10963200  0.36031600  0.81000103  1
  O  O5  1  0.72005100  0.10963200  0.81000103  1
  O  O6  1  0.36031601  0.72005100  0.81000102  1
  O  O7  1  0.86031601  0.60963200  0.31000100  1
  O  O8  1  0.22005101  0.86031600  0.31000100  1
  O  O9  1  0.60963200  0.22005100  0.31000101  1
