# generated using pymatgen
data_Cs2PuO6
_symmetry_space_group_name_H-M   'P 1'
_cell_length_a   5.15238905
_cell_length_b   6.40038395
_cell_length_c   6.40038395
_cell_angle_alpha   60.41446686
_cell_angle_beta   88.27684021
_cell_angle_gamma   88.27684021
_symmetry_Int_Tables_number   1
_chemical_formula_structural   Cs2PuO6
_chemical_formula_sum   'Cs2 Pu1 O6'
_cell_volume   183.43701476
_cell_formula_units_Z   1
loop_
 _symmetry_equiv_pos_site_id
 _symmetry_equiv_pos_as_xyz
  1  'x, y, z'
loop_
 _atom_site_type_symbol
 _atom_site_label
 _atom_site_symmetry_multiplicity
 _atom_site_fract_x
 _atom_site_fract_y
 _atom_site_fract_z
 _atom_site_occupancy
  Cs  Cs0  1  0.68905401  0.66979798  0.66979804  1
  Cs  Cs1  1  0.31094600  0.33020199  0.33020202  1
  Pu  Pu2  1  0.00000000  0.00000000  0.00000000  1
  O  O3  1  0.20558303  0.86064897  0.86064901  1
  O  O4  1  0.79441699  0.13935100  0.13935104  1
  O  O5  1  0.21431203  0.85106597  0.29092603  1
  O  O6  1  0.21431201  0.29092599  0.85106600  1
  O  O7  1  0.78568799  0.14893399  0.70907403  1
  O  O8  1  0.78568801  0.70907398  0.14893405  1
