# generated using pymatgen
data_Si(PSe2)3
_symmetry_space_group_name_H-M   'P 1'
_cell_length_a   6.37766504
_cell_length_b   6.39130926
_cell_length_c   7.78219604
_cell_angle_alpha   95.10298157
_cell_angle_beta   106.33659363
_cell_angle_gamma   118.94557190
_symmetry_Int_Tables_number   1
_chemical_formula_structural   Si(PSe2)3
_chemical_formula_sum   'Si1 P3 Se6'
_cell_volume   256.63418944
_cell_formula_units_Z   1
loop_
 _symmetry_equiv_pos_site_id
 _symmetry_equiv_pos_as_xyz
  1  'x, y, z'
loop_
 _atom_site_type_symbol
 _atom_site_label
 _atom_site_symmetry_multiplicity
 _atom_site_fract_x
 _atom_site_fract_y
 _atom_site_fract_z
 _atom_site_occupancy
  Si  Si0  1  0.12659797  0.74741700  0.35363199  1
  P  P1  1  0.87340200  0.25258300  0.64636802  1
  P  P2  1  0.53994398  0.55792500  0.65589900  1
  P  P3  1  0.46005598  0.44207500  0.34410101  1
  Se  Se4  1  0.50662800  0.14750000  0.30212801  1
  Se  Se5  1  0.49337196  0.85250000  0.69787199  1
  Se  Se6  1  0.09461098  0.34854900  0.20429299  1
  Se  Se7  1  0.90538898  0.65145100  0.79570701  1
  Se  Se8  1  0.28498099  0.25867700  0.72139599  1
  Se  Se9  1  0.71501897  0.74132300  0.27860402  1
