# generated using pymatgen
data_CaAsO4
_symmetry_space_group_name_H-M   'P 1'
_cell_length_a   5.98986816
_cell_length_b   6.00604963
_cell_length_c   6.00791121
_cell_angle_alpha   63.35454941
_cell_angle_beta   73.95995331
_cell_angle_gamma   106.06928253
_symmetry_Int_Tables_number   1
_chemical_formula_structural   CaAsO4
_chemical_formula_sum   'Ca2 As2 O8'
_cell_volume   164.22334745
_cell_formula_units_Z   2
loop_
 _symmetry_equiv_pos_site_id
 _symmetry_equiv_pos_as_xyz
  1  'x, y, z'
loop_
 _atom_site_type_symbol
 _atom_site_label
 _atom_site_symmetry_multiplicity
 _atom_site_fract_x
 _atom_site_fract_y
 _atom_site_fract_z
 _atom_site_occupancy
  Ca  Ca0  1  0.25005398  0.87501997  0.87500902  1
  Ca  Ca1  1  0.75003900  0.12504700  0.12493700  1
  As  As2  1  0.24991599  0.37493099  0.37504201  1
  As  As3  1  0.75011398  0.62507798  0.62499701  1
  O  O4  1  0.43850298  0.73314198  0.19471001  1
  O  O5  1  0.57072098  0.80422998  0.63290402  1
  O  O6  1  0.92937998  0.79643298  0.26653201  1
  O  O7  1  0.06135799  0.36671899  0.20524201  1
  O  O8  1  0.43838399  0.20530399  0.36687401  1
  O  O9  1  0.57058799  0.26641399  0.79631801  1
  O  O10  1  0.92944398  0.63310698  0.80411501  1
  O  O11  1  0.06149800  0.19457399  0.73332301  1
