# generated using pymatgen
data_Zr5Ti3(Si2Mo)2
_symmetry_space_group_name_H-M   'P 1'
_cell_length_a   4.52226114
_cell_length_b   8.87795830
_cell_length_c   8.87795830
_cell_angle_alpha   120.00000000
_cell_angle_beta   90.00000000
_cell_angle_gamma   90.00000000
_symmetry_Int_Tables_number   1
_chemical_formula_structural   Zr5Ti3(Si2Mo)2
_chemical_formula_sum   'Zr5 Ti3 Si4 Mo2'
_cell_volume   308.68282815
_cell_formula_units_Z   1
loop_
 _symmetry_equiv_pos_site_id
 _symmetry_equiv_pos_as_xyz
  1  'x, y, z'
loop_
 _atom_site_type_symbol
 _atom_site_label
 _atom_site_symmetry_multiplicity
 _atom_site_fract_x
 _atom_site_fract_y
 _atom_site_fract_z
 _atom_site_occupancy
  Zr  Zr0  1  0.24999999  0.33333332  0.66666663  1
  Zr  Zr1  1  0.74999998  0.66666664  0.33333331  1
  Zr  Zr2  1  0.24999999  0.02552500  0.84084296  1
  Zr  Zr3  1  0.24999999  0.15915599  0.18468099  1
  Zr  Zr4  1  0.24999999  0.81531797  0.97447394  1
  Ti  Ti5  1  0.74999998  0.97447496  0.15915698  1
  Ti  Ti6  1  0.74999998  0.84084397  0.81531895  1
  Ti  Ti7  1  0.74999998  0.18468199  0.02552600  1
  Si  Si8  1  0.24999999  0.68376197  0.63419496  1
  Si  Si9  1  0.24999999  0.36580499  0.04956699  1
  Si  Si10  1  0.24999999  0.95043296  0.31623797  1
  Si  Si11  1  0.74999998  0.31623799  0.36580498  1
  Mo  Mo12  1  0.74999998  0.63419498  0.95043295  1
  Mo  Mo13  1  0.74999998  0.04956700  0.68376197  1
