# generated using pymatgen
data_LiLa2RuO6
_symmetry_space_group_name_H-M   'P 1'
_cell_length_a   5.83787394
_cell_length_b   5.83787394
_cell_length_c   10.30518341
_cell_angle_alpha   73.54576874
_cell_angle_beta   73.54576874
_cell_angle_gamma   60.00000000
_symmetry_Int_Tables_number   1
_chemical_formula_structural   LiLa2RuO6
_chemical_formula_sum   'Li2 La4 Ru2 O12'
_cell_volume   287.42724758
_cell_formula_units_Z   2
loop_
 _symmetry_equiv_pos_site_id
 _symmetry_equiv_pos_as_xyz
  1  'x, y, z'
loop_
 _atom_site_type_symbol
 _atom_site_label
 _atom_site_symmetry_multiplicity
 _atom_site_fract_x
 _atom_site_fract_y
 _atom_site_fract_z
 _atom_site_occupancy
  Li  Li0  1  0.13366799  0.13366800  0.59899602  1
  Li  Li1  1  0.86633195  0.86633200  0.40100407  1
  La  La2  1  0.49999997  0.50000000  0.50000005  1
  La  La3  1  0.00000000  0.00000000  0.00000000  1
  La  La4  1  0.37018698  0.37018700  0.88943904  1
  La  La5  1  0.62981297  0.62981300  0.11056105  1
  Ru  Ru6  1  0.25415399  0.25415400  0.23753802  1
  Ru  Ru7  1  0.74584596  0.74584600  0.76246207  1
  O  O8  1  0.24915097  0.57659500  0.15356804  1
  O  O9  1  0.02068599  0.24915100  0.15356801  1
  O  O10  1  0.57659499  0.02068600  0.15356802  1
  O  O11  1  0.75084897  0.42340500  0.84643206  1
  O  O12  1  0.97931396  0.75084900  0.84643208  1
  O  O13  1  0.42340496  0.97931400  0.84643207  1
  O  O14  1  0.76166299  0.07078700  0.61311004  1
  O  O15  1  0.55443996  0.76166300  0.61311006  1
  O  O16  1  0.07078698  0.55444000  0.61311003  1
  O  O17  1  0.23833696  0.92921300  0.38689005  1
  O  O18  1  0.44555998  0.23833700  0.38689003  1
  O  O19  1  0.92921297  0.44556000  0.38689006  1
