# generated using pymatgen
data_LiGd(FeO3)2
_symmetry_space_group_name_H-M   'P 1'
_cell_length_a   5.32758808
_cell_length_b   5.45750093
_cell_length_c   7.69178867
_cell_angle_alpha   90.00000000
_cell_angle_beta   90.03718567
_cell_angle_gamma   90.00000000
_symmetry_Int_Tables_number   1
_chemical_formula_structural   LiGd(FeO3)2
_chemical_formula_sum   'Li2 Gd2 Fe4 O12'
_cell_volume   223.64114636
_cell_formula_units_Z   2
loop_
 _symmetry_equiv_pos_site_id
 _symmetry_equiv_pos_as_xyz
  1  'x, y, z'
loop_
 _atom_site_type_symbol
 _atom_site_label
 _atom_site_symmetry_multiplicity
 _atom_site_fract_x
 _atom_site_fract_y
 _atom_site_fract_z
 _atom_site_occupancy
  Li  Li0  1  0.48391399  0.55040901  0.24748600  1
  Li  Li1  1  0.98391398  0.94959101  0.74748600  1
  Gd  Gd2  1  0.51608599  0.44959101  0.75251400  1
  Gd  Gd3  1  0.01608600  0.05040900  0.25251400  1
  Fe  Fe4  1  0.49999999  0.00000000  0.00000000  1
  Fe  Fe5  1  0.49999999  0.00000000  0.50000000  1
  Fe  Fe6  1  -0.00000000  0.50000001  0.50000000  1
  Fe  Fe7  1  0.99999998  0.50000001  0.00000001  1
  O  O8  1  0.30645500  0.29043200  0.43938300  1
  O  O9  1  0.29335300  0.30207800  0.05315800  1
  O  O10  1  0.79335299  0.19792200  0.55315800  1
  O  O11  1  0.20664700  0.80207801  0.44684200  1
  O  O12  1  0.19354500  0.79043201  0.06061700  1
  O  O13  1  0.60485399  0.95179301  0.25580600  1
  O  O14  1  0.80645499  0.20956800  0.93938300  1
  O  O15  1  0.39514599  0.04820700  0.74419400  1
  O  O16  1  0.10485400  0.54820701  0.75580600  1
  O  O17  1  0.70664699  0.69792201  0.94684200  1
  O  O18  1  0.89514599  0.45179301  0.24419400  1
  O  O19  1  0.69354499  0.70956801  0.56061700  1
