# generated using pymatgen
data_Mn5Co3P4
_symmetry_space_group_name_H-M   'P 1'
_cell_length_a   3.49161601
_cell_length_b   5.84784985
_cell_length_c   6.83813906
_cell_angle_alpha   90.00000000
_cell_angle_beta   90.00000000
_cell_angle_gamma   90.00000000
_symmetry_Int_Tables_number   1
_chemical_formula_structural   Mn5Co3P4
_chemical_formula_sum   'Mn5 Co3 P4'
_cell_volume   139.62417410
_cell_formula_units_Z   1
loop_
 _symmetry_equiv_pos_site_id
 _symmetry_equiv_pos_as_xyz
  1  'x, y, z'
loop_
 _atom_site_type_symbol
 _atom_site_label
 _atom_site_symmetry_multiplicity
 _atom_site_fract_x
 _atom_site_fract_y
 _atom_site_fract_z
 _atom_site_occupancy
  Mn  Mn0  1  0.75000000  0.47451201  0.66316499  1
  Mn  Mn1  1  0.75000000  0.97451203  0.83683499  1
  Mn  Mn2  1  0.25000000  0.52548801  0.33683500  1
  Mn  Mn3  1  0.25000000  0.02548800  0.16316500  1
  Mn  Mn4  1  0.75000000  0.35413601  0.06655500  1
  Co  Co5  1  0.75000000  0.85413602  0.43344500  1
  Co  Co6  1  0.25000000  0.64586402  0.93344499  1
  Co  Co7  1  0.25000000  0.14586400  0.56655500  1
  P  P8  1  0.75000000  0.73258702  0.12681600  1
  P  P9  1  0.75000000  0.23258701  0.37318400  1
  P  P10  1  0.25000000  0.26741301  0.87318399  1
  P  P11  1  0.25000000  0.76741302  0.62681599  1
