# generated using pymatgen
data_K2AgSnSe4
_symmetry_space_group_name_H-M   'P 1'
_cell_length_a   7.22249031
_cell_length_b   7.22249031
_cell_length_c   7.22249031
_cell_angle_alpha   95.22903442
_cell_angle_beta   117.02835083
_cell_angle_gamma   117.02835083
_symmetry_Int_Tables_number   1
_chemical_formula_structural   K2AgSnSe4
_chemical_formula_sum   'K2 Ag1 Sn1 Se4'
_cell_volume   277.12421931
_cell_formula_units_Z   1
loop_
 _symmetry_equiv_pos_site_id
 _symmetry_equiv_pos_as_xyz
  1  'x, y, z'
loop_
 _atom_site_type_symbol
 _atom_site_label
 _atom_site_symmetry_multiplicity
 _atom_site_fract_x
 _atom_site_fract_y
 _atom_site_fract_z
 _atom_site_occupancy
  K  K0  1  0.00000000  0.00000000  0.00000000  1
  K  K1  1  0.49999989  0.74999996  0.24999991  1
  Ag  Ag2  1  0.99999991  0.49999997  0.49999990  1
  Sn  Sn3  1  0.49999996  0.24999999  0.74999996  1
  Se  Se4  1  0.43057287  0.87499995  0.80557291  1
  Se  Se5  1  0.56942694  0.37499998  0.44442694  1
  Se  Se6  1  0.06942697  0.19442699  0.62499999  1
  Se  Se7  1  0.93057291  0.55557297  0.12499990  1
