# generated using pymatgen
data_VO3
_symmetry_space_group_name_H-M   'P 1'
_cell_length_a   5.16247511
_cell_length_b   5.24034929
_cell_length_c   9.09378052
_cell_angle_alpha   75.94821167
_cell_angle_beta   75.49501038
_cell_angle_gamma   61.36542892
_symmetry_Int_Tables_number   1
_chemical_formula_structural   VO3
_chemical_formula_sum   'V4 O12'
_cell_volume   206.85047203
_cell_formula_units_Z   4
loop_
 _symmetry_equiv_pos_site_id
 _symmetry_equiv_pos_as_xyz
  1  'x, y, z'
loop_
 _atom_site_type_symbol
 _atom_site_label
 _atom_site_symmetry_multiplicity
 _atom_site_fract_x
 _atom_site_fract_y
 _atom_site_fract_z
 _atom_site_occupancy
  V  V0  1  0.01561100  0.04032500  0.99224201  1
  V  V1  1  0.74724893  0.81005199  0.73946306  1
  V  V2  1  0.45344396  0.55430299  0.49463604  1
  V  V3  1  0.22042398  0.29592900  0.24319202  1
  O  O4  1  0.80644092  0.93526799  0.87814307  1
  O  O5  1  0.96011695  0.35442199  0.88201605  1
  O  O6  1  0.45618694  0.85260599  0.38178505  1
  O  O7  1  0.55486197  0.11176700  0.62716903  1
  O  O8  1  0.05626997  0.60135899  0.12856802  1
  O  O9  1  0.12379496  0.69348999  0.62421603  1
  O  O10  1  0.19949499  0.03852700  0.12918001  1
  O  O11  1  0.31290797  0.42965099  0.37343103  1
  O  O12  1  0.70825095  0.52974199  0.62928605  1
  O  O13  1  0.62966197  0.18310200  0.12708903  1
  O  O14  1  0.87870095  0.28593200  0.37673004  1
  O  O15  1  0.37658295  0.78352499  0.87285305  1
