# generated using pymatgen
data_SrS
_symmetry_space_group_name_H-M   'P 1'
_cell_length_a   4.68430185
_cell_length_b   4.68430233
_cell_length_c   7.67369509
_cell_angle_alpha   90.00000000
_cell_angle_beta   90.00000000
_cell_angle_gamma   120.00000000
_symmetry_Int_Tables_number   1
_chemical_formula_structural   SrS
_chemical_formula_sum   'Sr2 S2'
_cell_volume   145.82264130
_cell_formula_units_Z   2
loop_
 _symmetry_equiv_pos_site_id
 _symmetry_equiv_pos_as_xyz
  1  'x, y, z'
loop_
 _atom_site_type_symbol
 _atom_site_label
 _atom_site_symmetry_multiplicity
 _atom_site_fract_x
 _atom_site_fract_y
 _atom_site_fract_z
 _atom_site_occupancy
  Sr  Sr0  1  0.66666671  0.33333335  0.99990799  1
  Sr  Sr1  1  0.33333338  0.66666670  0.49990799  1
  S  S2  1  0.66666671  0.33333335  0.62509199  1
  S  S3  1  0.33333338  0.66666670  0.12509200  1
