# generated using pymatgen
data_LiNbVCrO6
_symmetry_space_group_name_H-M   'P 1'
_cell_length_a   5.14273787
_cell_length_b   5.14273787
_cell_length_c   5.53483248
_cell_angle_alpha   62.31700516
_cell_angle_beta   62.31700516
_cell_angle_gamma   60.00000381
_symmetry_Int_Tables_number   1
_chemical_formula_structural   LiNbVCrO6
_chemical_formula_sum   'Li1 Nb1 V1 Cr1 O6'
_cell_volume   106.98710653
_cell_formula_units_Z   1
loop_
 _symmetry_equiv_pos_site_id
 _symmetry_equiv_pos_as_xyz
  1  'x, y, z'
loop_
 _atom_site_type_symbol
 _atom_site_label
 _atom_site_symmetry_multiplicity
 _atom_site_fract_x
 _atom_site_fract_y
 _atom_site_fract_z
 _atom_site_occupancy
  Li  Li0  1  0.70258397  0.70258398  0.89224805  1
  V  V1  1  0.29741599  0.29741599  0.10775201  1
  Nb  Nb2  1  0.00000000  0.00000000  0.00000000  1
  Cr  Cr3  1  0.49999998  0.49999998  0.50000003  1
  O  O4  1  0.10829599  0.72903797  0.76812003  1
  O  O5  1  0.39454598  0.10829600  0.76812003  1
  O  O6  1  0.72903797  0.39454599  0.76812004  1
  O  O7  1  0.27096198  0.60545398  0.23188002  1
  O  O8  1  0.60545397  0.89170397  0.23188003  1
  O  O9  1  0.89170396  0.27096199  0.23188003  1
