# generated using pymatgen
data_Sr3NbO6
_symmetry_space_group_name_H-M   'P 1'
_cell_length_a   5.98407936
_cell_length_b   5.98407936
_cell_length_c   8.68068790
_cell_angle_alpha   90.00000000
_cell_angle_beta   90.00000000
_cell_angle_gamma   90.00000000
_symmetry_Int_Tables_number   1
_chemical_formula_structural   Sr3NbO6
_chemical_formula_sum   'Sr6 Nb2 O12'
_cell_volume   310.84853964
_cell_formula_units_Z   2
loop_
 _symmetry_equiv_pos_site_id
 _symmetry_equiv_pos_as_xyz
  1  'x, y, z'
loop_
 _atom_site_type_symbol
 _atom_site_label
 _atom_site_symmetry_multiplicity
 _atom_site_fract_x
 _atom_site_fract_y
 _atom_site_fract_z
 _atom_site_occupancy
  Sr  Sr0  1  0.49999999  0.00000000  0.25000001  1
  Sr  Sr1  1  -0.00000000  0.49999999  0.75000002  1
  Sr  Sr2  1  0.00000000  0.00000000  0.00000000  1
  Sr  Sr3  1  0.49999999  0.49999999  0.50000001  1
  Sr  Sr4  1  -0.00000000  0.49999999  0.25000001  1
  Sr  Sr5  1  0.49999999  0.00000000  0.75000002  1
  Nb  Nb6  1  0.00000000  0.00000000  0.50000001  1
  Nb  Nb7  1  0.49999999  0.49999999  0.00000000  1
  O  O8  1  0.00000000  0.00000000  0.26829685  1
  O  O9  1  0.49999999  0.49999999  0.23170317  1
  O  O10  1  0.00000000  0.00000000  0.73170318  1
  O  O11  1  0.49999999  0.49999999  0.76829686  1
  O  O12  1  0.34371441  0.20158483  0.99825964  1
  O  O13  1  0.65628557  0.79841515  0.99825964  1
  O  O14  1  0.79841515  0.34371441  0.00174038  1
  O  O15  1  0.20158483  0.65628557  0.00174038  1
  O  O16  1  0.84371440  0.29841516  0.49825963  1
  O  O17  1  0.15628558  0.70158481  0.49825963  1
  O  O18  1  0.29841516  0.15628558  0.50174039  1
  O  O19  1  0.70158481  0.84371440  0.50174039  1
