# generated using pymatgen
data_CaUO3
_symmetry_space_group_name_H-M   'P 1'
_cell_length_a   5.87072134
_cell_length_b   5.87072134
_cell_length_c   5.87072134
_cell_angle_alpha   89.53240204
_cell_angle_beta   60.25777054
_cell_angle_gamma   119.71857452
_symmetry_Int_Tables_number   1
_chemical_formula_structural   CaUO3
_chemical_formula_sum   'Ca2 U2 O6'
_cell_volume   143.65139692
_cell_formula_units_Z   2
loop_
 _symmetry_equiv_pos_site_id
 _symmetry_equiv_pos_as_xyz
  1  'x, y, z'
loop_
 _atom_site_type_symbol
 _atom_site_label
 _atom_site_symmetry_multiplicity
 _atom_site_fract_x
 _atom_site_fract_y
 _atom_site_fract_z
 _atom_site_occupancy
  Ca  Ca0  1  0.48741700  0.73741699  0.74999996  1
  Ca  Ca1  1  0.51258300  0.26258300  0.24999998  1
  U  U2  1  1.00000000  0.49999999  0.49999995  1
  U  U3  1  0.00000000  0.00000000  0.00000000  1
  O  O4  1  0.91379000  0.16379000  0.74999996  1
  O  O5  1  0.08621001  0.83620999  0.24999997  1
  O  O6  1  0.50000000  0.29805700  0.70194297  1
  O  O7  1  0.00000001  0.70194299  0.79805697  1
  O  O8  1  1.00000000  0.29805700  0.20194296  1
  O  O9  1  0.50000000  0.70194299  0.29805697  1
