# generated using pymatgen
data_ErN2
_symmetry_space_group_name_H-M   'P 1'
_cell_length_a   3.75708008
_cell_length_b   3.75708032
_cell_length_c   3.84102988
_cell_angle_alpha   90.00000000
_cell_angle_beta   90.00000000
_cell_angle_gamma   120.00000000
_symmetry_Int_Tables_number   1
_chemical_formula_structural   ErN2
_chemical_formula_sum   'Er1 N2'
_cell_volume   46.95471929
_cell_formula_units_Z   1
loop_
 _symmetry_equiv_pos_site_id
 _symmetry_equiv_pos_as_xyz
  1  'x, y, z'
loop_
 _atom_site_type_symbol
 _atom_site_label
 _atom_site_symmetry_multiplicity
 _atom_site_fract_x
 _atom_site_fract_y
 _atom_site_fract_z
 _atom_site_occupancy
  Er  Er0  1  0.00000000  0.00000000  0.00000000  1
  N  N1  1  0.66666667  0.33333333  1.00000003  1
  N  N2  1  0.33333335  0.66666667  0.50000002  1
