# generated using pymatgen
data_Ba3BiNCl2O
_symmetry_space_group_name_H-M   'P 1'
_cell_length_a   3.81794190
_cell_length_b   3.81794214
_cell_length_c   14.65963745
_cell_angle_alpha   90.00000000
_cell_angle_beta   90.00000000
_cell_angle_gamma   120.00000000
_symmetry_Int_Tables_number   1
_chemical_formula_structural   Ba3BiNCl2O
_chemical_formula_sum   'Ba3 Bi1 N1 Cl2 O1'
_cell_volume   185.05998386
_cell_formula_units_Z   1
loop_
 _symmetry_equiv_pos_site_id
 _symmetry_equiv_pos_as_xyz
  1  'x, y, z'
loop_
 _atom_site_type_symbol
 _atom_site_label
 _atom_site_symmetry_multiplicity
 _atom_site_fract_x
 _atom_site_fract_y
 _atom_site_fract_z
 _atom_site_occupancy
  Ba  Ba0  1  0.66666670  0.33333335  0.91791697  1
  Ba  Ba1  1  0.66666670  0.33333335  0.58208298  1
  Bi  Bi2  1  0.33333337  0.66666669  0.41791699  1
  Ba  Ba3  1  0.33333337  0.66666669  0.08208300  1
  Cl  Cl4  1  0.66666670  0.33333335  0.24999999  1
  Cl  Cl5  1  0.33333337  0.66666669  0.74999998  1
  N  N6  1  0.00000000  0.00000000  0.00000000  1
  O  O7  1  0.00000000  0.00000000  0.49999998  1
