# generated using pymatgen
data_VN
_symmetry_space_group_name_H-M   'P 1'
_cell_length_a   2.93098903
_cell_length_b   2.93098903
_cell_length_c   12.45607758
_cell_angle_alpha   90.00000000
_cell_angle_beta   90.00000000
_cell_angle_gamma   90.00000000
_symmetry_Int_Tables_number   1
_chemical_formula_structural   VN
_chemical_formula_sum   'V6 N6'
_cell_volume   107.00638423
_cell_formula_units_Z   6
loop_
 _symmetry_equiv_pos_site_id
 _symmetry_equiv_pos_as_xyz
  1  'x, y, z'
loop_
 _atom_site_type_symbol
 _atom_site_label
 _atom_site_symmetry_multiplicity
 _atom_site_fract_x
 _atom_site_fract_y
 _atom_site_fract_z
 _atom_site_occupancy
  V  V0  1  -0.00000000  0.50000000  0.25399401  1
  V  V1  1  0.50000000  0.00000000  0.41996101  1
  V  V2  1  -0.00000000  0.50000000  0.58003902  1
  V  V3  1  0.50000000  0.00000000  0.74600603  1
  V  V4  1  -0.00000000  0.50000000  0.91695203  1
  V  V5  1  0.50000000  0.00000000  0.08304800  1
  N  N6  1  0.50000000  0.00000000  0.91369803  1
  N  N7  1  -0.00000000  0.50000000  0.08630200  1
  N  N8  1  0.50000000  0.00000000  0.25848901  1
  N  N9  1  -0.00000000  0.50000000  0.41895801  1
  N  N10  1  0.50000000  0.00000000  0.58104202  1
  N  N11  1  -0.00000000  0.50000000  0.74151103  1
