# generated using pymatgen
data_La2HC4N
_symmetry_space_group_name_H-M   'P 1'
_cell_length_a   5.93108606
_cell_length_b   5.93108606
_cell_length_c   5.93108606
_cell_angle_alpha   83.88100433
_cell_angle_beta   63.46764374
_cell_angle_gamma   116.53235626
_symmetry_Int_Tables_number   1
_chemical_formula_structural   La2HC4N
_chemical_formula_sum   'La2 H1 C4 N1'
_cell_volume   154.31224389
_cell_formula_units_Z   1
loop_
 _symmetry_equiv_pos_site_id
 _symmetry_equiv_pos_as_xyz
  1  'x, y, z'
loop_
 _atom_site_type_symbol
 _atom_site_label
 _atom_site_symmetry_multiplicity
 _atom_site_fract_x
 _atom_site_fract_y
 _atom_site_fract_z
 _atom_site_occupancy
  La  La0  1  0.00000001  0.75000002  0.25000005  1
  La  La1  1  0.00000000  0.25000001  0.75000003  1
  H  H2  1  0.50000003  1.00000002  0.50000005  1
  C  C3  1  0.50000002  0.50000001  0.00000001  1
  C  C4  1  0.23847902  0.86923902  0.63076106  1
  C  C5  1  0.50000002  0.36924001  0.86924003  1
  N  N6  1  0.76152103  0.13076100  0.36923899  1
  C  C7  1  0.50000002  0.63076001  0.13076002  1
