# generated using pymatgen
data_Sr5YbS8
_symmetry_space_group_name_H-M   'P 1'
_cell_length_a   7.57115269
_cell_length_b   7.57115269
_cell_length_c   7.57115269
_cell_angle_alpha   109.58782959
_cell_angle_beta   109.41294861
_cell_angle_gamma   109.41294861
_symmetry_Int_Tables_number   1
_chemical_formula_structural   Sr5YbS8
_chemical_formula_sum   'Sr5 Yb1 S8'
_cell_volume   334.08945143
_cell_formula_units_Z   1
loop_
 _symmetry_equiv_pos_site_id
 _symmetry_equiv_pos_as_xyz
  1  'x, y, z'
loop_
 _atom_site_type_symbol
 _atom_site_label
 _atom_site_symmetry_multiplicity
 _atom_site_fract_x
 _atom_site_fract_y
 _atom_site_fract_z
 _atom_site_occupancy
  Yb  Yb0  1  0.11752400  0.12500000  0.74252398  1
  Sr  Sr1  1  0.38247600  0.25747600  0.37500000  1
  Sr  Sr2  1  0.88247601  0.62499999  0.00747603  1
  Sr  Sr3  1  0.61752403  0.99252399  0.87500000  1
  Sr  Sr4  1  1.00000000  0.50000000  0.50000001  1
  Sr  Sr5  1  0.50000002  0.74999999  0.25000001  1
  S  S6  1  0.90314198  0.01911300  0.26706001  1
  S  S7  1  0.40314201  0.51706000  0.76911300  1
  S  S8  1  0.24794703  0.88402899  0.98088699  1
  S  S9  1  0.75205301  0.73293999  0.63608201  1
  S  S10  1  0.59685800  0.36597100  0.11391801  1
  S  S11  1  0.74794699  0.23088700  0.63402900  1
  S  S12  1  0.25205303  0.88608199  0.48294000  1
  S  S13  1  0.09685801  0.36391800  0.11597100  1
