# generated using pymatgen
data_CaBiO3
_symmetry_space_group_name_H-M   'P 1'
_cell_length_a   6.03017712
_cell_length_b   6.21450186
_cell_length_c   8.73191166
_cell_angle_alpha   90.00000000
_cell_angle_beta   90.00000000
_cell_angle_gamma   90.00000000
_symmetry_Int_Tables_number   1
_chemical_formula_structural   CaBiO3
_chemical_formula_sum   'Ca4 Bi4 O12'
_cell_volume   327.22443293
_cell_formula_units_Z   4
loop_
 _symmetry_equiv_pos_site_id
 _symmetry_equiv_pos_as_xyz
  1  'x, y, z'
loop_
 _atom_site_type_symbol
 _atom_site_label
 _atom_site_symmetry_multiplicity
 _atom_site_fract_x
 _atom_site_fract_y
 _atom_site_fract_z
 _atom_site_occupancy
  Ca  Ca0  1  0.49184699  0.04166400  0.48346502  1
  Ca  Ca1  1  0.99184698  0.45833601  0.98346504  1
  Ca  Ca2  1  0.00815300  0.54166401  0.48346502  1
  Ca  Ca3  1  0.50815299  0.95833602  0.98346504  1
  Bi  Bi4  1  0.99996498  0.00592900  0.74002403  1
  Bi  Bi5  1  0.49996499  0.49407101  0.24002401  1
  Bi  Bi6  1  0.50003499  0.50592901  0.74002403  1
  Bi  Bi7  1  0.00003500  0.99407102  0.24002401  1
  O  O8  1  0.13688000  0.07563600  0.99326904  1
  O  O9  1  0.66725299  0.16178300  0.18313001  1
  O  O10  1  0.69192799  0.20218800  0.82391303  1
  O  O11  1  0.19192800  0.29781201  0.32391301  1
  O  O12  1  0.16725300  0.33821701  0.68313003  1
  O  O13  1  0.63687999  0.42436401  0.49326902  1
  O  O14  1  0.36311999  0.57563601  0.99326904  1
  O  O15  1  0.83274698  0.66178302  0.18313001  1
  O  O16  1  0.80807198  0.70218802  0.82391303  1
  O  O17  1  0.30807199  0.79781202  0.32391301  1
  O  O18  1  0.33274699  0.83821702  0.68313003  1
  O  O19  1  0.86311998  0.92436402  0.49326902  1
