# generated using pymatgen
data_SrInAu
_symmetry_space_group_name_H-M   'P 1'
_cell_length_a   4.99073505
_cell_length_b   8.08762360
_cell_length_c   9.24130344
_cell_angle_alpha   90.46311188
_cell_angle_beta   90.00000000
_cell_angle_gamma   90.00000000
_symmetry_Int_Tables_number   1
_chemical_formula_structural   SrInAu
_chemical_formula_sum   'Sr4 In4 Au4'
_cell_volume   372.99627055
_cell_formula_units_Z   4
loop_
 _symmetry_equiv_pos_site_id
 _symmetry_equiv_pos_as_xyz
  1  'x, y, z'
loop_
 _atom_site_type_symbol
 _atom_site_label
 _atom_site_symmetry_multiplicity
 _atom_site_fract_x
 _atom_site_fract_y
 _atom_site_fract_z
 _atom_site_occupancy
  Sr  Sr0  1  0.74999999  0.47678501  0.82329305  1
  Sr  Sr1  1  0.74999999  0.97857402  0.68283707  1
  Sr  Sr2  1  0.25000000  0.52420701  0.17367503  1
  Sr  Sr3  1  0.25000000  0.01706900  0.32060401  1
  In  In4  1  0.74999999  0.34815101  0.42392403  1
  In  In5  1  0.74999999  0.85388602  0.07236904  1
  In  In6  1  0.25000000  0.65017302  0.57571005  1
  In  In7  1  0.25000000  0.14664600  0.92656504  1
  Au  Au8  1  0.74999999  0.23082201  0.09663901  1
  Au  Au9  1  0.74999999  0.74257502  0.39434405  1
  Au  Au10  1  0.25000000  0.76639802  0.89590307  1
  Au  Au11  1  0.25000000  0.26471401  0.61413503  1
