# generated using pymatgen
data_V3H2C3O8
_symmetry_space_group_name_H-M   'P 1'
_cell_length_a   5.41807985
_cell_length_b   6.91631317
_cell_length_c   6.91631317
_cell_angle_alpha   81.17483521
_cell_angle_beta   66.94039917
_cell_angle_gamma   66.94039917
_symmetry_Int_Tables_number   1
_chemical_formula_structural   V3H2C3O8
_chemical_formula_sum   'V3 H2 C3 O8'
_cell_volume   219.41321701
_cell_formula_units_Z   1
loop_
 _symmetry_equiv_pos_site_id
 _symmetry_equiv_pos_as_xyz
  1  'x, y, z'
loop_
 _atom_site_type_symbol
 _atom_site_label
 _atom_site_symmetry_multiplicity
 _atom_site_fract_x
 _atom_site_fract_y
 _atom_site_fract_z
 _atom_site_occupancy
  V  V0  1  0.07831400  0.29668600  0.79668599  1
  V  V1  1  0.12500001  0.79668600  0.70331399  1
  V  V2  1  0.62500002  0.20331400  0.29668600  1
  H  H3  1  0.17168601  0.70331400  0.20331399  1
  H  H4  1  0.55386002  0.82114000  0.32113998  1
  C  C5  1  0.12500001  0.32114000  0.17885999  1
  C  C6  1  0.69614002  0.17886000  0.67886000  1
  C  C7  1  0.62500002  0.67886000  0.82113999  1
  O  O8  1  0.88935703  0.61614900  0.76565699  1
  O  O9  1  0.49449402  0.23434300  0.61614899  1
  O  O10  1  0.27116301  0.38385100  0.23434299  1
  O  O11  1  0.34498601  0.76565700  0.38385099  1
  O  O12  1  0.36064301  0.73434300  0.88385099  1
  O  O13  1  0.75550603  0.88385100  0.26565698  1
  O  O14  1  0.90501403  0.11614900  0.73434300  1
  O  O15  1  0.97883703  0.26565700  0.11614899  1
