# generated using pymatgen
data_Li6Mn3CoO10
_symmetry_space_group_name_H-M   'P 1'
_cell_length_a   5.04578018
_cell_length_b   5.15624237
_cell_length_c   7.66526413
_cell_angle_alpha   103.97265625
_cell_angle_beta   107.38040924
_cell_angle_gamma   100.55386353
_symmetry_Int_Tables_number   1
_chemical_formula_structural   Li6Mn3CoO10
_chemical_formula_sum   'Li6 Mn3 Co1 O10'
_cell_volume   177.53660275
_cell_formula_units_Z   1
loop_
 _symmetry_equiv_pos_site_id
 _symmetry_equiv_pos_as_xyz
  1  'x, y, z'
loop_
 _atom_site_type_symbol
 _atom_site_label
 _atom_site_symmetry_multiplicity
 _atom_site_fract_x
 _atom_site_fract_y
 _atom_site_fract_z
 _atom_site_occupancy
  Li  Li0  1  0.20093402  0.49750600  0.90031301  1
  Li  Li1  1  0.80834798  0.51136800  0.11187698  1
  Li  Li2  1  0.39786001  0.50247600  0.30476300  1
  Li  Li3  1  0.00356003  0.49208400  0.49435701  1
  Li  Li4  1  0.58434699  0.49382600  0.68875599  1
  Li  Li5  1  0.19963904  0.99963301  0.40010102  1
  Mn  Mn6  1  0.00374400  0.00143100  0.00571500  1
  Mn  Mn7  1  0.80097596  0.00158500  0.59323397  1
  Mn  Mn8  1  0.39644298  0.00293500  0.79507698  1
  Co  Co9  1  0.61143302  0.99375001  0.20741000  1
  O  O10  1  0.99325499  0.78103300  0.75102398  1
  O  O11  1  0.62965801  0.77270200  0.96910900  1
  O  O12  1  0.20451003  0.78559000  0.13581101  1
  O  O13  1  0.78921400  0.75917200  0.36148299  1
  O  O14  1  0.42345902  0.77205700  0.56792100  1
  O  O15  1  0.37743899  0.22651500  0.03650599  1
  O  O16  1  0.98196696  0.23256300  0.23176496  1
  O  O17  1  0.61874398  0.21618500  0.44988898  1
  O  O18  1  0.17274000  0.23802400  0.64642100  1
  O  O19  1  0.80172997  0.21956600  0.84846897  1
