# generated using pymatgen
data_K2CuPdI4
_symmetry_space_group_name_H-M   'P 1'
_cell_length_a   7.24391460
_cell_length_b   7.24391460
_cell_length_c   7.24391460
_cell_angle_alpha   105.25631714
_cell_angle_beta   105.25631714
_cell_angle_gamma   118.27635956
_symmetry_Int_Tables_number   1
_chemical_formula_structural   K2CuPdI4
_chemical_formula_sum   'K2 Cu1 Pd1 I4'
_cell_volume   287.36097449
_cell_formula_units_Z   1
loop_
 _symmetry_equiv_pos_site_id
 _symmetry_equiv_pos_as_xyz
  1  'x, y, z'
loop_
 _atom_site_type_symbol
 _atom_site_label
 _atom_site_symmetry_multiplicity
 _atom_site_fract_x
 _atom_site_fract_y
 _atom_site_fract_z
 _atom_site_occupancy
  K  K0  1  0.25000000  0.25000000  1.00000000  1
  K  K1  1  0.74999999  0.74999999  0.00000007  1
  Cu  Cu2  1  0.74999999  0.25000000  0.50000003  1
  Pd  Pd3  1  0.25000000  0.74999999  0.50000003  1
  I  I4  1  0.82480299  0.32480300  0.14960605  1
  I  I5  1  0.67519699  0.82480199  0.50000005  1
  I  I6  1  0.32480300  0.17519800  0.50000001  1
  I  I7  1  0.17519700  0.67519699  0.85039402  1
