# generated using pymatgen
data_Sr2CaCuO8
_symmetry_space_group_name_H-M   'P 1'
_cell_length_a   3.95510006
_cell_length_b   3.95510006
_cell_length_c   9.72038460
_cell_angle_alpha   101.73840332
_cell_angle_beta   101.73840332
_cell_angle_gamma   90.00000000
_symmetry_Int_Tables_number   1
_chemical_formula_structural   Sr2CaCuO8
_chemical_formula_sum   'Sr2 Ca1 Cu1 O8'
_cell_volume   145.62485012
_cell_formula_units_Z   1
loop_
 _symmetry_equiv_pos_site_id
 _symmetry_equiv_pos_as_xyz
  1  'x, y, z'
loop_
 _atom_site_type_symbol
 _atom_site_label
 _atom_site_symmetry_multiplicity
 _atom_site_fract_x
 _atom_site_fract_y
 _atom_site_fract_z
 _atom_site_occupancy
  Sr  Sr0  1  0.74999999  0.25000000  0.49999998  1
  Sr  Sr1  1  0.24999999  0.74999999  0.49999998  1
  Ca  Ca2  1  0.00000000  0.00000000  0.00000000  1
  Cu  Cu3  1  0.61146999  0.61146999  0.22293999  1
  O  O4  1  0.38852999  0.38852999  0.77705997  1
  O  O5  1  0.59964599  0.09964600  0.19929199  1
  O  O6  1  0.28618799  0.28618799  0.57237598  1
  O  O7  1  0.90035398  0.40035399  0.80070797  1
  O  O8  1  0.40035399  0.90035398  0.80070797  1
  O  O9  1  0.71381198  0.71381199  0.42762398  1
  O  O10  1  0.09964599  0.59964599  0.19929199  1
  O  O11  1  0.49999999  0.49999999  -0.00000001  1
