# generated using pymatgen
data_Mn2S3
_symmetry_space_group_name_H-M   'P 1'
_cell_length_a   5.89331818
_cell_length_b   5.89331818
_cell_length_c   6.10858154
_cell_angle_alpha   61.15902710
_cell_angle_beta   61.15902710
_cell_angle_gamma   60.00000000
_symmetry_Int_Tables_number   1
_chemical_formula_structural   Mn2S3
_chemical_formula_sum   'Mn4 S6'
_cell_volume   152.59324587
_cell_formula_units_Z   2
loop_
 _symmetry_equiv_pos_site_id
 _symmetry_equiv_pos_as_xyz
  1  'x, y, z'
loop_
 _atom_site_type_symbol
 _atom_site_label
 _atom_site_symmetry_multiplicity
 _atom_site_fract_x
 _atom_site_fract_y
 _atom_site_fract_z
 _atom_site_occupancy
  Mn  Mn0  1  0.85482899  0.85482898  0.43551301  1
  Mn  Mn1  1  0.14517100  0.14517100  0.56448699  1
  Mn  Mn2  1  0.64122399  0.64122398  0.07632801  1
  Mn  Mn3  1  0.35877599  0.35877599  0.92367199  1
  S  S4  1  0.21625900  0.98064597  0.25629100  1
  S  S5  1  0.98064598  0.54680399  0.25629101  1
  S  S6  1  0.54680399  0.21625899  0.25629100  1
  S  S7  1  0.45319600  0.78374098  0.74370900  1
  S  S8  1  0.01935400  0.45319599  0.74370899  1
  S  S9  1  0.78374098  0.01935400  0.74370900  1
