# generated using pymatgen
data_Eu2NiIr3S
_symmetry_space_group_name_H-M   'P 1'
_cell_length_a   5.45008993
_cell_length_b   6.06981277
_cell_length_c   6.06981277
_cell_angle_alpha   90.00000000
_cell_angle_beta   90.00000000
_cell_angle_gamma   90.00000000
_symmetry_Int_Tables_number   1
_chemical_formula_structural   Eu2NiIr3S
_chemical_formula_sum   'Eu2 Ni1 Ir3 S1'
_cell_volume   200.79563111
_cell_formula_units_Z   1
loop_
 _symmetry_equiv_pos_site_id
 _symmetry_equiv_pos_as_xyz
  1  'x, y, z'
loop_
 _atom_site_type_symbol
 _atom_site_label
 _atom_site_symmetry_multiplicity
 _atom_site_fract_x
 _atom_site_fract_y
 _atom_site_fract_z
 _atom_site_occupancy
  Eu  Eu0  1  1.00000001  0.50000002  0.00000000  1
  Eu  Eu1  1  1.00000001  1.00000004  0.50000002  1
  Ni  Ni2  1  0.00000000  0.00000000  0.00000000  1
  Ir  Ir3  1  0.22984500  0.21312001  0.21312001  1
  S  S4  1  0.77015501  0.78688003  0.21312001  1
  Ir  Ir5  1  0.77015501  0.21312001  0.78688003  1
  Ir  Ir6  1  0.22984500  0.78688003  0.78688003  1
