# generated using pymatgen
data_Sc5Ti(CoSb6)2
_symmetry_space_group_name_H-M   'P 1'
_cell_length_a   6.95269394
_cell_length_b   6.95269442
_cell_length_c   12.32368755
_cell_angle_alpha   90.00000000
_cell_angle_beta   90.00000000
_cell_angle_gamma   120.00000000
_symmetry_Int_Tables_number   1
_chemical_formula_structural   Sc5Ti(CoSb6)2
_chemical_formula_sum   'Sc5 Ti1 Co2 Sb12'
_cell_volume   515.91429841
_cell_formula_units_Z   1
loop_
 _symmetry_equiv_pos_site_id
 _symmetry_equiv_pos_as_xyz
  1  'x, y, z'
loop_
 _atom_site_type_symbol
 _atom_site_label
 _atom_site_symmetry_multiplicity
 _atom_site_fract_x
 _atom_site_fract_y
 _atom_site_fract_z
 _atom_site_occupancy
  Sc  Sc0  1  0.33333336  0.66666667  0.95911803  1
  Sc  Sc1  1  0.66666668  0.33333333  0.45911802  1
  Sc  Sc2  1  0.66666668  0.33333333  0.04088200  1
  Sc  Sc3  1  0.33333336  0.66666667  0.54088202  1
  Ti  Ti4  1  0.00000000  0.00000000  0.75000003  1
  Sc  Sc5  1  0.00000000  0.00000000  0.25000001  1
  Co  Co6  1  0.66666668  0.33333333  0.75000003  1
  Co  Co7  1  0.33333336  0.66666667  0.25000001  1
  Sb  Sb8  1  0.68150303  0.62829400  0.86827703  1
  Sb  Sb9  1  0.37170600  0.05320900  0.86827703  1
  Sb  Sb10  1  0.94679102  0.31849700  0.86827703  1
  Sb  Sb11  1  0.62829403  0.68150300  0.36827701  1
  Sb  Sb12  1  0.31849703  0.94679100  0.36827701  1
  Sb  Sb13  1  0.05320901  0.37170600  0.36827701  1
  Sb  Sb14  1  0.31849701  0.37170600  0.13172300  1
  Sb  Sb15  1  0.62829403  0.94679100  0.13172300  1
  Sb  Sb16  1  0.05320902  0.68150300  0.13172300  1
  Sb  Sb17  1  0.37170601  0.31849700  0.63172302  1
  Sb  Sb18  1  0.68150301  0.05320900  0.63172302  1
  Sb  Sb19  1  0.94679103  0.62829400  0.63172302  1
