# generated using pymatgen
data_LiLa
_symmetry_space_group_name_H-M   'P 1'
_cell_length_a   4.23066616
_cell_length_b   4.23066616
_cell_length_c   4.37516403
_cell_angle_alpha   61.08664322
_cell_angle_beta   61.08664322
_cell_angle_gamma   59.99999619
_symmetry_Int_Tables_number   1
_chemical_formula_structural   LiLa
_chemical_formula_sum   'Li1 La1'
_cell_volume   56.26496098
_cell_formula_units_Z   1
loop_
 _symmetry_equiv_pos_site_id
 _symmetry_equiv_pos_as_xyz
  1  'x, y, z'
loop_
 _atom_site_type_symbol
 _atom_site_label
 _atom_site_symmetry_multiplicity
 _atom_site_fract_x
 _atom_site_fract_y
 _atom_site_fract_z
 _atom_site_occupancy
  La  La0  1  0.99505994  0.99506000  0.01482008  1
  Li  Li1  1  0.52593997  0.52594000  0.42218003  1
