# generated using pymatgen
data_Sr2Ca2MnFeO8
_symmetry_space_group_name_H-M   'P 1'
_cell_length_a   3.74191594
_cell_length_b   3.74191594
_cell_length_c   12.91215801
_cell_angle_alpha   90.00000000
_cell_angle_beta   90.00000000
_cell_angle_gamma   90.00000000
_symmetry_Int_Tables_number   1
_chemical_formula_structural   Sr2Ca2MnFeO8
_chemical_formula_sum   'Sr2 Ca2 Mn1 Fe1 O8'
_cell_volume   180.79519605
_cell_formula_units_Z   1
loop_
 _symmetry_equiv_pos_site_id
 _symmetry_equiv_pos_as_xyz
  1  'x, y, z'
loop_
 _atom_site_type_symbol
 _atom_site_label
 _atom_site_symmetry_multiplicity
 _atom_site_fract_x
 _atom_site_fract_y
 _atom_site_fract_z
 _atom_site_occupancy
  Sr  Sr0  1  0.50000001  0.00000000  0.58319700  1
  Sr  Sr1  1  -0.00000000  0.50000001  0.41680300  1
  Ca  Ca2  1  -0.00000000  0.50000001  0.10575200  1
  Ca  Ca3  1  0.50000001  0.00000000  0.89424800  1
  Fe  Fe4  1  0.50000001  0.00000000  0.26648500  1
  Mn  Mn5  1  -0.00000000  0.50000001  0.73351500  1
  O  O6  1  -0.00000000  0.50000001  0.93357900  1
  O  O7  1  0.50000001  0.00000000  0.06642100  1
  O  O8  1  -0.00000000  0.50000001  0.59642100  1
  O  O9  1  0.50000001  0.00000000  0.40357900  1
  O  O10  1  0.00000000  0.00000000  0.22828000  1
  O  O11  1  0.50000001  0.50000001  0.22828000  1
  O  O12  1  0.00000000  0.00000000  0.77172000  1
  O  O13  1  0.50000001  0.50000001  0.77172000  1
