# generated using pymatgen
data_Sr(CuSe2)2
_symmetry_space_group_name_H-M   'P 1'
_cell_length_a   6.26102781
_cell_length_b   6.37864351
_cell_length_c   11.14119053
_cell_angle_alpha   90.00000000
_cell_angle_beta   90.00000000
_cell_angle_gamma   119.39189911
_symmetry_Int_Tables_number   1
_chemical_formula_structural   Sr(CuSe2)2
_chemical_formula_sum   'Sr2 Cu4 Se8'
_cell_volume   387.67242465
_cell_formula_units_Z   2
loop_
 _symmetry_equiv_pos_site_id
 _symmetry_equiv_pos_as_xyz
  1  'x, y, z'
loop_
 _atom_site_type_symbol
 _atom_site_label
 _atom_site_symmetry_multiplicity
 _atom_site_fract_x
 _atom_site_fract_y
 _atom_site_fract_z
 _atom_site_occupancy
  Sr  Sr0  1  0.50000006  1.00000000  0.75000003  1
  Sr  Sr1  1  0.50000006  1.00000000  0.25000001  1
  Cu  Cu2  1  0.75818605  0.51871300  1.00000004  1
  Cu  Cu3  1  0.24181403  0.48128700  0.00000000  1
  Cu  Cu4  1  0.23947303  0.48128700  0.50000002  1
  Cu  Cu5  1  0.76052705  0.51871300  0.50000002  1
  Se  Se6  1  0.00000002  0.50000000  0.66616803  1
  Se  Se7  1  0.00000002  0.50000000  0.33383201  1
  Se  Se8  1  0.50000004  0.50000000  0.16616801  1
  Se  Se9  1  0.35006102  0.16905700  0.50000002  1
  Se  Se10  1  0.64993906  0.83094300  0.50000002  1
  Se  Se11  1  0.18100405  0.83094300  1.00000004  1
  Se  Se12  1  0.81899603  0.16905700  0.00000000  1
  Se  Se13  1  0.50000004  0.50000000  0.83383204  1
