# generated using pymatgen
data_Sr2LaTeO6
_symmetry_space_group_name_H-M   'P 1'
_cell_length_a   6.02406788
_cell_length_b   6.02406788
_cell_length_c   6.02406788
_cell_angle_alpha   60.99923325
_cell_angle_beta   60.99923325
_cell_angle_gamma   60.99923706
_symmetry_Int_Tables_number   1
_chemical_formula_structural   Sr2LaTeO6
_chemical_formula_sum   'Sr2 La1 Te1 O6'
_cell_volume   158.05970986
_cell_formula_units_Z   1
loop_
 _symmetry_equiv_pos_site_id
 _symmetry_equiv_pos_as_xyz
  1  'x, y, z'
loop_
 _atom_site_type_symbol
 _atom_site_label
 _atom_site_symmetry_multiplicity
 _atom_site_fract_x
 _atom_site_fract_y
 _atom_site_fract_z
 _atom_site_occupancy
  Sr  Sr0  1  0.25023701  0.25023700  0.25023700  1
  Sr  Sr1  1  0.73975103  0.73975101  0.73975099  1
  La  La2  1  0.99928104  0.99928101  0.99928099  1
  Te  Te3  1  0.49946102  0.49946101  0.49946099  1
  O  O4  1  0.72311402  0.18850200  0.35280300  1
  O  O5  1  0.35280302  0.72311401  0.18850199  1
  O  O6  1  0.18850201  0.35280300  0.72311400  1
  O  O7  1  0.28108102  0.79287901  0.67289099  1
  O  O8  1  0.67289102  0.28108100  0.79287900  1
  O  O9  1  0.79287903  0.67289101  0.28108099  1
