# generated using pymatgen
data_LiAgF3
_symmetry_space_group_name_H-M   'P 1'
_cell_length_a   4.76759815
_cell_length_b   4.76759815
_cell_length_c   7.16093302
_cell_angle_alpha   90.00000000
_cell_angle_beta   90.00000000
_cell_angle_gamma   99.11627960
_symmetry_Int_Tables_number   1
_chemical_formula_structural   LiAgF3
_chemical_formula_sum   'Li2 Ag2 F6'
_cell_volume   160.71200139
_cell_formula_units_Z   2
loop_
 _symmetry_equiv_pos_site_id
 _symmetry_equiv_pos_as_xyz
  1  'x, y, z'
loop_
 _atom_site_type_symbol
 _atom_site_label
 _atom_site_symmetry_multiplicity
 _atom_site_fract_x
 _atom_site_fract_y
 _atom_site_fract_z
 _atom_site_occupancy
  Li  Li0  1  0.53343900  0.46656099  1.00000000  1
  Li  Li1  1  0.53516900  0.46483099  0.50000000  1
  Ag  Ag2  1  0.12017503  0.87982499  0.26123000  1
  Ag  Ag3  1  0.12017503  0.87982499  0.73877000  1
  F  F4  1  0.39455599  0.05652900  0.50000000  1
  F  F5  1  0.94347100  0.60544399  0.50000000  1
  F  F6  1  0.43881799  0.08553800  1.00000000  1
  F  F7  1  0.91446200  0.56118199  1.00000000  1
  F  F8  1  0.41836801  0.58163199  0.23858000  1
  F  F9  1  0.41836801  0.58163199  0.76142000  1
