# generated using pymatgen
data_Li2VF6
_symmetry_space_group_name_H-M   'P 1'
_cell_length_a   4.82596111
_cell_length_b   4.82596111
_cell_length_c   9.55441380
_cell_angle_alpha   90.00000000
_cell_angle_beta   90.00000000
_cell_angle_gamma   90.00000000
_symmetry_Int_Tables_number   1
_chemical_formula_structural   Li2VF6
_chemical_formula_sum   'Li4 V2 F12'
_cell_volume   222.52134820
_cell_formula_units_Z   2
loop_
 _symmetry_equiv_pos_site_id
 _symmetry_equiv_pos_as_xyz
  1  'x, y, z'
loop_
 _atom_site_type_symbol
 _atom_site_label
 _atom_site_symmetry_multiplicity
 _atom_site_fract_x
 _atom_site_fract_y
 _atom_site_fract_z
 _atom_site_occupancy
  Li  Li0  1  0.49999999  0.49999999  0.83374102  1
  Li  Li1  1  0.00000000  0.00000000  0.33374101  1
  Li  Li2  1  0.49999999  0.49999999  0.50070001  1
  Li  Li3  1  0.00000000  0.00000000  0.00070000  1
  V  V4  1  0.49999999  0.49999999  0.16597800  1
  V  V5  1  0.00000000  0.00000000  0.66597801  1
  F  F6  1  0.18955800  0.81044198  0.50767001  1
  F  F7  1  0.81044198  0.18955800  0.50767001  1
  F  F8  1  0.68955798  0.68955798  0.00767000  1
  F  F9  1  0.31044199  0.31044199  0.00767000  1
  F  F10  1  0.19365000  0.80634998  0.82178302  1
  F  F11  1  0.80634998  0.19365000  0.82178302  1
  F  F12  1  0.69364998  0.69364998  0.32178301  1
  F  F13  1  0.30634999  0.30634999  0.32178301  1
  F  F14  1  0.78924498  0.21075500  0.16838800  1
  F  F15  1  0.21075500  0.78924498  0.16838800  1
  F  F16  1  0.28924499  0.28924499  0.66838801  1
  F  F17  1  0.71075498  0.71075498  0.66838801  1
