# generated using pymatgen
data_LiAl3O4
_symmetry_space_group_name_H-M   'P 1'
_cell_length_a   3.26998210
_cell_length_b   5.30466413
_cell_length_c   5.62373877
_cell_angle_alpha   90.00000000
_cell_angle_beta   90.00000000
_cell_angle_gamma   90.00000000
_symmetry_Int_Tables_number   1
_chemical_formula_structural   LiAl3O4
_chemical_formula_sum   'Li1 Al3 O4'
_cell_volume   97.55025424
_cell_formula_units_Z   1
loop_
 _symmetry_equiv_pos_site_id
 _symmetry_equiv_pos_as_xyz
  1  'x, y, z'
loop_
 _atom_site_type_symbol
 _atom_site_label
 _atom_site_symmetry_multiplicity
 _atom_site_fract_x
 _atom_site_fract_y
 _atom_site_fract_z
 _atom_site_occupancy
  Al  Al0  1  0.49999998  0.48996599  0.82158003  1
  Li  Li1  1  0.49999998  0.98996597  0.17842001  1
  Al  Al2  1  -0.00000000  0.00751500  0.65209703  1
  Al  Al3  1  -0.00000000  0.50751499  0.34790301  1
  O  O4  1  -0.00000000  0.36654799  0.66059103  1
  O  O5  1  -0.00000000  0.86654798  0.33940901  1
  O  O6  1  0.49999998  0.88996698  0.82157303  1
  O  O7  1  0.49999998  0.38996699  0.17842701  1
