# generated using pymatgen
data_Zr6P8O
_symmetry_space_group_name_H-M   'P 1'
_cell_length_a   3.89321494
_cell_length_b   7.86217308
_cell_length_c   9.67314148
_cell_angle_alpha   101.52669525
_cell_angle_beta   101.59532166
_cell_angle_gamma   90.20632172
_symmetry_Int_Tables_number   1
_chemical_formula_structural   Zr6P8O
_chemical_formula_sum   'Zr6 P8 O1'
_cell_volume   283.89854110
_cell_formula_units_Z   1
loop_
 _symmetry_equiv_pos_site_id
 _symmetry_equiv_pos_as_xyz
  1  'x, y, z'
loop_
 _atom_site_type_symbol
 _atom_site_label
 _atom_site_symmetry_multiplicity
 _atom_site_fract_x
 _atom_site_fract_y
 _atom_site_fract_z
 _atom_site_occupancy
  Zr  Zr0  1  0.81066399  0.41546800  0.64413802  1
  Zr  Zr1  1  0.80830995  0.91962000  0.63325603  1
  Zr  Zr2  1  0.16806696  0.59315500  0.36075002  1
  Zr  Zr3  1  0.17235400  0.10615000  0.36204900  1
  Zr  Zr4  1  0.49254696  0.65347600  0.00023903  1
  Zr  Zr5  1  0.83209101  0.16195800  0.99982900  1
  P  P6  1  0.59956699  0.30744000  0.22490402  1
  P  P7  1  0.59779995  0.82775400  0.22059003  1
  P  P8  1  0.37891096  0.71727000  0.77897302  1
  P  P9  1  0.37545000  0.19002400  0.77675100  1
  P  P10  1  0.98613499  0.48795500  0.99745502  1
  P  P11  1  0.24394098  0.38490600  0.50733501  1
  O  O12  1  0.23752394  0.87927800  0.49443102  1
  P  P13  1  0.73940797  0.63088200  0.49956603  1
  P  P14  1  0.74123101  0.13266400  0.49973201  1
