# generated using pymatgen
data_MgV4HO12
_symmetry_space_group_name_H-M   'P 1'
_cell_length_a   5.67884922
_cell_length_b   5.67881536
_cell_length_c   7.69028139
_cell_angle_alpha   68.75607300
_cell_angle_beta   68.75605774
_cell_angle_gamma   68.36386871
_symmetry_Int_Tables_number   1
_chemical_formula_structural   MgV4HO12
_chemical_formula_sum   'Mg1 V4 H1 O12'
_cell_volume   207.24201650
_cell_formula_units_Z   1
loop_
 _symmetry_equiv_pos_site_id
 _symmetry_equiv_pos_as_xyz
  1  'x, y, z'
loop_
 _atom_site_type_symbol
 _atom_site_label
 _atom_site_symmetry_multiplicity
 _atom_site_fract_x
 _atom_site_fract_y
 _atom_site_fract_z
 _atom_site_occupancy
  Mg  Mg0  1  0.50080501  0.49919400  0.50000102  1
  V  V1  1  0.50250304  0.99693901  0.00000101  1
  V  V2  1  0.00305403  0.49750400  0.99999503  1
  V  V3  1  0.92252702  0.91965101  0.28299702  1
  V  V4  1  0.08034700  0.07747400  0.71700202  1
  H  H5  1  0.50284001  0.49715900  0.00000201  1
  O  O6  1  0.32223801  0.31675900  0.21999801  1
  O  O7  1  0.68324802  0.67776001  0.78000203  1
  O  O8  1  0.64850101  0.64258500  0.92148103  1
  O  O9  1  0.35741601  0.35149900  0.07851901  1
  O  O10  1  0.17099900  0.16741700  0.88848302  1
  O  O11  1  0.83258002  0.82900001  0.11151701  1
  O  O12  1  0.23690101  0.23672100  0.48314302  1
  O  O13  1  0.76327902  0.76310101  0.51685802  1
  O  O14  1  0.73178598  0.18475100  0.74395803  1
  O  O15  1  0.18860504  0.72887901  0.74370002  1
  O  O16  1  0.27112004  0.81139501  0.25629901  1
  O  O17  1  0.81525099  0.26821400  0.25604302  1
