# generated using pymatgen
data_LaBCN
_symmetry_space_group_name_H-M   'P 1'
_cell_length_a   3.67377496
_cell_length_b   3.67377496
_cell_length_c   5.40860367
_cell_angle_alpha   73.50337219
_cell_angle_beta   73.50337219
_cell_angle_gamma   60.84954453
_symmetry_Int_Tables_number   1
_chemical_formula_structural   LaBCN
_chemical_formula_sum   'La1 B1 C1 N1'
_cell_volume   60.19633998
_cell_formula_units_Z   1
loop_
 _symmetry_equiv_pos_site_id
 _symmetry_equiv_pos_as_xyz
  1  'x, y, z'
loop_
 _atom_site_type_symbol
 _atom_site_label
 _atom_site_symmetry_multiplicity
 _atom_site_fract_x
 _atom_site_fract_y
 _atom_site_fract_z
 _atom_site_occupancy
  La  La0  1  0.00000000  0.00000000  0.00000000  1
  B  B1  1  0.59245398  0.59245400  0.27043600  1
  N  N2  1  0.40754599  0.40754600  0.72956397  1
  C  C3  1  0.49999998  0.50000000  0.49999999  1
