# generated using pymatgen
data_Na2O2
_symmetry_space_group_name_H-M   'P 1'
_cell_length_a   6.47875595
_cell_length_b   6.79923487
_cell_length_c   6.47875595
_cell_angle_alpha   61.54732513
_cell_angle_beta   90.00000000
_cell_angle_gamma   118.45267487
_symmetry_Int_Tables_number   1
_chemical_formula_structural   Na2O2
_chemical_formula_sum   'Na5 O5'
_cell_volume   210.88663046
_cell_formula_units_Z   2
loop_
 _symmetry_equiv_pos_site_id
 _symmetry_equiv_pos_as_xyz
  1  'x, y, z'
loop_
 _atom_site_type_symbol
 _atom_site_label
 _atom_site_symmetry_multiplicity
 _atom_site_fract_x
 _atom_site_fract_y
 _atom_site_fract_z
 _atom_site_occupancy
  Na  Na0  1  0.37500000  0.24999999  0.87500001  1
  Na  Na1  1  0.87499999  0.74999998  0.37500002  1
  Na  Na2  1  0.87499999  0.74999998  0.87500003  1
  Na  Na3  1  0.87500000  0.24999999  0.87500001  1
  Na  Na4  1  0.70524499  0.41048999  0.29475501  1
  O  O5  1  0.45524498  0.91048998  0.04475502  1
  O  O6  1  0.29475499  0.58950999  0.70524502  1
  O  O7  1  0.04475500  0.08951000  0.45524501  1
  O  O8  1  0.00000000  0.00000000  0.00000000  1
  O  O9  1  0.74999999  0.49999999  0.75000002  1
