# generated using pymatgen
data_Ba(As2P)2
_symmetry_space_group_name_H-M   'P 1'
_cell_length_a   5.57542372
_cell_length_b   5.57542372
_cell_length_c   11.74529648
_cell_angle_alpha   99.44970703
_cell_angle_beta   99.44970703
_cell_angle_gamma   107.95456696
_symmetry_Int_Tables_number   1
_chemical_formula_structural   Ba(As2P)2
_chemical_formula_sum   'Ba2 As8 P4'
_cell_volume   333.51725721
_cell_formula_units_Z   2
loop_
 _symmetry_equiv_pos_site_id
 _symmetry_equiv_pos_as_xyz
  1  'x, y, z'
loop_
 _atom_site_type_symbol
 _atom_site_label
 _atom_site_symmetry_multiplicity
 _atom_site_fract_x
 _atom_site_fract_y
 _atom_site_fract_z
 _atom_site_occupancy
  Ba  Ba0  1  0.00000000  0.00000000  0.00000000  1
  Ba  Ba1  1  0.24999999  0.75000001  0.50000000  1
  P  P2  1  0.65264701  0.38090601  0.65787400  1
  P  P3  1  0.72303200  0.99477302  0.34212599  1
  P  P4  1  0.61909401  0.34735301  0.34212600  1
  P  P5  1  0.00522699  0.27696800  0.65787401  1
  As  As6  1  0.59735301  0.36909401  0.84212601  1
  As  As7  1  0.52696800  0.75522701  0.15787399  1
  As  As8  1  0.63090601  0.40264701  0.15787400  1
  As  As9  1  0.24477300  0.47303201  0.84212601  1
  As  As10  1  0.83683600  0.83683601  0.67367200  1
  As  As11  1  0.16316400  0.16316400  0.32632800  1
  As  As12  1  0.41316399  0.91316402  0.82632800  1
  As  As13  1  0.08683599  0.58683601  0.17367200  1
