# generated using pymatgen
data_Co8BC5
_symmetry_space_group_name_H-M   'P 1'
_cell_length_a   3.56454802
_cell_length_b   3.56454802
_cell_length_c   16.16081429
_cell_angle_alpha   90.00000000
_cell_angle_beta   90.00000000
_cell_angle_gamma   120.00000000
_symmetry_Int_Tables_number   1
_chemical_formula_structural   Co8BC5
_chemical_formula_sum   'Co8 B1 C5'
_cell_volume   177.82909142
_cell_formula_units_Z   1
loop_
 _symmetry_equiv_pos_site_id
 _symmetry_equiv_pos_as_xyz
  1  'x, y, z'
loop_
 _atom_site_type_symbol
 _atom_site_label
 _atom_site_symmetry_multiplicity
 _atom_site_fract_x
 _atom_site_fract_y
 _atom_site_fract_z
 _atom_site_occupancy
  Co  Co0  1  0.66666666  0.33333332  0.62249703  1
  Co  Co1  1  0.33333332  0.66666664  0.12249701  1
  Co  Co2  1  0.33333332  0.66666664  0.37750302  1
  Co  Co3  1  0.66666666  0.33333332  0.87750304  1
  Co  Co4  1  0.00000000  0.00000000  0.25000001  1
  Co  Co5  1  0.00000000  0.00000000  0.75000003  1
  Co  Co6  1  0.00000000  0.00000000  0.50000002  1
  Co  Co7  1  0.00000000  0.00000000  0.00000000  1
  C  C8  1  0.00000000  0.00000000  0.58336903  1
  B  B9  1  0.00000000  0.00000000  0.08336900  1
  C  C10  1  0.00000000  0.00000000  0.41663102  1
  C  C11  1  0.00000000  0.00000000  0.91663104  1
  C  C12  1  0.66666666  0.33333332  0.75000003  1
  C  C13  1  0.33333332  0.66666664  0.25000001  1
