# generated using pymatgen
data_ScTi3SnC2O
_symmetry_space_group_name_H-M   'P 1'
_cell_length_a   3.77891994
_cell_length_b   3.77892017
_cell_length_c   11.51509380
_cell_angle_alpha   90.00000000
_cell_angle_beta   90.00000000
_cell_angle_gamma   120.00000000
_symmetry_Int_Tables_number   1
_chemical_formula_structural   ScTi3SnC2O
_chemical_formula_sum   'Sc1 Ti3 Sn1 C2 O1'
_cell_volume   142.40771574
_cell_formula_units_Z   1
loop_
 _symmetry_equiv_pos_site_id
 _symmetry_equiv_pos_as_xyz
  1  'x, y, z'
loop_
 _atom_site_type_symbol
 _atom_site_label
 _atom_site_symmetry_multiplicity
 _atom_site_fract_x
 _atom_site_fract_y
 _atom_site_fract_z
 _atom_site_occupancy
  Sc  Sc0  1  0.66666669  0.33333335  0.72813601  1
  Ti  Ti1  1  0.33333337  0.66666669  0.22813600  1
  Ti  Ti2  1  0.00000000  0.00000000  0.49943801  1
  Ti  Ti3  1  0.00000000  0.00000000  0.99943802  1
  Sn  Sn4  1  0.33333337  0.66666669  0.91745102  1
  C  C5  1  0.66666669  0.33333335  0.41745101  1
  C  C6  1  0.00000000  0.00000000  0.16728400  1
  O  O7  1  0.00000000  0.00000000  0.66728401  1
