# generated using pymatgen
data_Ca2BiCl3
_symmetry_space_group_name_H-M   'P 1'
_cell_length_a   4.19540882
_cell_length_b   5.34844494
_cell_length_c   10.66682529
_cell_angle_alpha   90.00000000
_cell_angle_beta   90.00000000
_cell_angle_gamma   90.00000000
_symmetry_Int_Tables_number   1
_chemical_formula_structural   Ca2BiCl3
_chemical_formula_sum   'Ca2 Bi1 Cl3'
_cell_volume   239.35196557
_cell_formula_units_Z   1
loop_
 _symmetry_equiv_pos_site_id
 _symmetry_equiv_pos_as_xyz
  1  'x, y, z'
loop_
 _atom_site_type_symbol
 _atom_site_label
 _atom_site_symmetry_multiplicity
 _atom_site_fract_x
 _atom_site_fract_y
 _atom_site_fract_z
 _atom_site_occupancy
  Ca  Ca0  1  0.00000000  0.00000000  0.10729400  1
  Ca  Ca1  1  0.50000002  0.50000001  0.89270598  1
  Bi  Bi2  1  0.50000002  0.00000000  0.94185597  1
  Cl  Cl3  1  -0.00000000  0.50000001  0.05814400  1
  Cl  Cl4  1  -0.00000000  0.50000001  0.68412998  1
  Cl  Cl5  1  0.50000002  0.00000000  0.31586999  1
