# generated using pymatgen
data_Ni11Mo
_symmetry_space_group_name_H-M   'P 1'
_cell_length_a   6.18736506
_cell_length_b   6.25492954
_cell_length_c   6.26743174
_cell_angle_alpha   111.65911102
_cell_angle_beta   90.00000000
_cell_angle_gamma   90.00000000
_symmetry_Int_Tables_number   1
_chemical_formula_structural   Ni11Mo
_chemical_formula_sum   'Ni11 Mo1'
_cell_volume   225.43361160
_cell_formula_units_Z   1
loop_
 _symmetry_equiv_pos_site_id
 _symmetry_equiv_pos_as_xyz
  1  'x, y, z'
loop_
 _atom_site_type_symbol
 _atom_site_label
 _atom_site_symmetry_multiplicity
 _atom_site_fract_x
 _atom_site_fract_y
 _atom_site_fract_z
 _atom_site_occupancy
  Ni  Ni0  1  0.12904600  0.85092703  0.12967900  1
  Ni  Ni1  1  0.62904599  0.14907301  0.37032099  1
  Ni  Ni2  1  0.87095399  0.14907301  0.87032097  1
  Ni  Ni3  1  0.37095400  0.85092703  0.62967899  1
  Ni  Ni4  1  0.51290700  0.70360903  0.19745900  1
  Ni  Ni5  1  0.01290700  0.29639101  0.30254099  1
  Ni  Ni6  1  0.48709300  0.29639101  0.80254098  1
  Ni  Ni7  1  0.98709299  0.70360903  0.69745898  1
  Mo  Mo8  1  0.86650399  0.64736803  0.32126099  1
  Ni  Ni9  1  0.36650400  0.35263201  0.17873900  1
  Ni  Ni10  1  0.13349600  0.35263201  0.67873898  1
  Ni  Ni11  1  0.63349599  0.64736803  0.82126098  1
