# generated using pymatgen
data_LiVMoO5
_symmetry_space_group_name_H-M   'P 1'
_cell_length_a   5.11942196
_cell_length_b   5.78778696
_cell_length_c   7.30221176
_cell_angle_alpha   109.09450531
_cell_angle_beta   90.00000000
_cell_angle_gamma   116.24821472
_symmetry_Int_Tables_number   1
_chemical_formula_structural   LiVMoO5
_chemical_formula_sum   'Li2 V2 Mo2 O10'
_cell_volume   180.68692828
_cell_formula_units_Z   2
loop_
 _symmetry_equiv_pos_site_id
 _symmetry_equiv_pos_as_xyz
  1  'x, y, z'
loop_
 _atom_site_type_symbol
 _atom_site_label
 _atom_site_symmetry_multiplicity
 _atom_site_fract_x
 _atom_site_fract_y
 _atom_site_fract_z
 _atom_site_occupancy
  Li  Li0  1  0.34614700  0.71625100  0.75572201  1
  Li  Li1  1  0.37010400  0.71625100  0.25572202  1
  V  V2  1  0.62989600  0.28374900  0.74427800  1
  V  V3  1  0.65385300  0.28374900  0.24427801  1
  Mo  Mo4  1  0.00000000  0.00000000  0.00000000  1
  Mo  Mo5  1  0.00000000  0.00000000  0.49999999  1
  O  O6  1  0.18568300  0.00000000  0.25000000  1
  O  O7  1  0.23808600  0.83240100  0.54446502  1
  O  O8  1  0.02923400  0.35938200  0.14752601  1
  O  O9  1  0.33014800  0.35938200  0.64752600  1
  O  O10  1  0.59431500  0.83240100  0.04446503  1
  O  O11  1  0.81431700  1.00000000  0.75000002  1
  O  O12  1  0.40568500  0.16759900  0.95553499  1
  O  O13  1  0.66985200  0.64061800  0.35247402  1
  O  O14  1  0.97076600  0.64061800  0.85247401  1
  O  O15  1  0.76191401  0.16759900  0.45553500  1
