# generated using pymatgen
data_Sc3TiSb6
_symmetry_space_group_name_H-M   'P 1'
_cell_length_a   7.00569391
_cell_length_b   7.00569391
_cell_length_c   12.59734821
_cell_angle_alpha   90.00000000
_cell_angle_beta   90.00000000
_cell_angle_gamma   120.00000000
_symmetry_Int_Tables_number   1
_chemical_formula_structural   Sc3TiSb6
_chemical_formula_sum   'Sc6 Ti2 Sb12'
_cell_volume   535.44156696
_cell_formula_units_Z   2
loop_
 _symmetry_equiv_pos_site_id
 _symmetry_equiv_pos_as_xyz
  1  'x, y, z'
loop_
 _atom_site_type_symbol
 _atom_site_label
 _atom_site_symmetry_multiplicity
 _atom_site_fract_x
 _atom_site_fract_y
 _atom_site_fract_z
 _atom_site_occupancy
  Sc  Sc0  1  0.66666668  0.33333334  0.95892598  1
  Sc  Sc1  1  0.66666668  0.33333334  0.54107399  1
  Sc  Sc2  1  0.00000000  0.00000000  0.25000000  1
  Sc  Sc3  1  0.00000000  0.00000000  0.74999999  1
  Sc  Sc4  1  0.33333334  0.66666668  0.04107400  1
  Ti  Ti5  1  0.33333334  0.66666668  0.45892599  1
  Sc  Sc6  1  0.66666668  0.33333334  0.25000000  1
  Ti  Ti7  1  0.33333334  0.66666668  0.74999999  1
  Sb  Sb8  1  0.63473701  0.68261701  0.87080299  1
  Sb  Sb9  1  0.04788000  0.36526401  0.87080299  1
  Sb  Sb10  1  0.31738401  0.95212102  0.87080299  1
  Sb  Sb11  1  0.36526300  0.04787900  0.37080299  1
  Sb  Sb12  1  0.68261601  0.63473601  0.37080299  1
  Sb  Sb13  1  0.36526301  0.31738301  0.12919700  1
  Sb  Sb14  1  0.68261601  0.04787900  0.12919700  1
  Sb  Sb15  1  0.95212001  0.63473601  0.12919700  1
  Sb  Sb16  1  0.63473701  0.95212102  0.62919699  1
  Sb  Sb17  1  0.04788000  0.68261701  0.62919699  1
  Sb  Sb18  1  0.95212001  0.31738301  0.37080299  1
  Sb  Sb19  1  0.31738400  0.36526401  0.62919699  1
