# generated using pymatgen
data_CaPaSe2
_symmetry_space_group_name_H-M   'P 1'
_cell_length_a   4.65426302
_cell_length_b   7.09623623
_cell_length_c   7.09623623
_cell_angle_alpha   90.00000000
_cell_angle_beta   90.00000000
_cell_angle_gamma   90.00000000
_symmetry_Int_Tables_number   1
_chemical_formula_structural   CaPaSe2
_chemical_formula_sum   'Ca2 Pa2 Se4'
_cell_volume   234.37271511
_cell_formula_units_Z   2
loop_
 _symmetry_equiv_pos_site_id
 _symmetry_equiv_pos_as_xyz
  1  'x, y, z'
loop_
 _atom_site_type_symbol
 _atom_site_label
 _atom_site_symmetry_multiplicity
 _atom_site_fract_x
 _atom_site_fract_y
 _atom_site_fract_z
 _atom_site_occupancy
  Ca  Ca0  1  0.80121000  0.00000000  0.49999998  1
  Ca  Ca1  1  0.19879000  0.49999998  0.00000000  1
  Pa  Pa2  1  1.00000000  0.49999998  0.49999998  1
  Pa  Pa3  1  0.00000000  0.00000000  0.00000000  1
  Se  Se4  1  0.28807800  0.20184999  0.29814999  1
  Se  Se5  1  0.71192200  0.29814999  0.79814997  1
  Se  Se6  1  0.28807800  0.79814997  0.70184998  1
  Se  Se7  1  0.71192200  0.70184998  0.20184999  1
