# generated using pymatgen
data_Li3LuTa3FeO12
_symmetry_space_group_name_H-M   'P 1'
_cell_length_a   5.31039476
_cell_length_b   5.52733088
_cell_length_c   7.61137390
_cell_angle_alpha   90.00000000
_cell_angle_beta   90.00000000
_cell_angle_gamma   90.00000000
_symmetry_Int_Tables_number   1
_chemical_formula_structural   Li3LuTa3FeO12
_chemical_formula_sum   'Li3 Lu1 Ta3 Fe1 O12'
_cell_volume   223.41139821
_cell_formula_units_Z   1
loop_
 _symmetry_equiv_pos_site_id
 _symmetry_equiv_pos_as_xyz
  1  'x, y, z'
loop_
 _atom_site_type_symbol
 _atom_site_label
 _atom_site_symmetry_multiplicity
 _atom_site_fract_x
 _atom_site_fract_y
 _atom_site_fract_z
 _atom_site_occupancy
  Li  Li0  1  0.49383202  0.71387302  0.50000001  1
  Li  Li1  1  0.99383204  0.28612701  0.00000000  1
  Li  Li2  1  0.01874100  0.17850900  0.50000001  1
  Lu  Lu3  1  0.51874102  0.82149102  0.00000000  1
  Ta  Ta4  1  0.51215802  0.26388301  0.75281001  1
  Ta  Ta5  1  0.01215800  0.73611702  0.25281000  1
  Fe  Fe6  1  0.51215802  0.26388301  0.24719000  1
  Ta  Ta7  1  0.01215800  0.73611702  0.74719001  1
  O  O8  1  0.18912601  0.44415001  0.69546601  1
  O  O9  1  0.27843601  0.96426702  0.29238800  1
  O  O10  1  0.77843603  0.03573300  0.20761200  1
  O  O11  1  0.68912603  0.55585001  0.80453401  1
  O  O12  1  0.77843603  0.03573300  0.79238801  1
  O  O13  1  0.68912603  0.55585001  0.19546600  1
  O  O14  1  0.18912601  0.44415001  0.30453400  1
  O  O15  1  0.27843601  0.96426702  0.70761201  1
  O  O16  1  0.92113904  0.77758002  0.50000001  1
  O  O17  1  0.60684803  0.27523701  0.50000001  1
  O  O18  1  0.10684800  0.72476302  0.00000000  1
  O  O19  1  0.42113902  0.22242001  0.00000000  1
