# generated using pymatgen
data_NiF2
_symmetry_space_group_name_H-M   'P 1'
_cell_length_a   4.63224983
_cell_length_b   5.03009415
_cell_length_c   5.03009367
_cell_angle_alpha   120.00000000
_cell_angle_beta   90.00000000
_cell_angle_gamma   90.00000000
_symmetry_Int_Tables_number   1
_chemical_formula_structural   NiF2
_chemical_formula_sum   'Ni3 F6'
_cell_volume   101.50204498
_cell_formula_units_Z   3
loop_
 _symmetry_equiv_pos_site_id
 _symmetry_equiv_pos_as_xyz
  1  'x, y, z'
loop_
 _atom_site_type_symbol
 _atom_site_label
 _atom_site_symmetry_multiplicity
 _atom_site_fract_x
 _atom_site_fract_y
 _atom_site_fract_z
 _atom_site_occupancy
  Ni  Ni0  1  0.50000002  0.33333332  0.66666668  1
  Ni  Ni1  1  0.50000002  0.66666664  0.33333333  1
  Ni  Ni2  1  0.00000000  0.00000000  0.00000000  1
  F  F3  1  0.74713703  0.67479197  1.00000002  1
  F  F4  1  0.25286301  0.32520799  1.00000003  1
  F  F5  1  0.74713703  0.32520799  0.32520800  1
  F  F6  1  0.25286301  0.67479197  0.67479201  1
  F  F7  1  0.74713703  0.00000000  0.67479202  1
  F  F8  1  0.25286301  0.99999996  0.32520799  1
