# generated using pymatgen
data_Ni11Mo
_symmetry_space_group_name_H-M   'P 1'
_cell_length_a   6.37581396
_cell_length_b   6.45422077
_cell_length_c   6.49828243
_cell_angle_alpha   112.91481781
_cell_angle_beta   90.00000000
_cell_angle_gamma   90.00000000
_symmetry_Int_Tables_number   1
_chemical_formula_structural   Ni11Mo
_chemical_formula_sum   'Ni11 Mo1'
_cell_volume   246.30749260
_cell_formula_units_Z   1
loop_
 _symmetry_equiv_pos_site_id
 _symmetry_equiv_pos_as_xyz
  1  'x, y, z'
loop_
 _atom_site_type_symbol
 _atom_site_label
 _atom_site_symmetry_multiplicity
 _atom_site_fract_x
 _atom_site_fract_y
 _atom_site_fract_z
 _atom_site_occupancy
  Ni  Ni0  1  0.13538400  0.85603503  0.12064705  1
  Ni  Ni1  1  0.63538400  0.14396501  0.37935301  1
  Ni  Ni2  1  0.86461601  0.14396501  0.87935302  1
  Ni  Ni3  1  0.36461600  0.85603503  0.62064705  1
  Ni  Ni4  1  0.50459600  0.71317603  0.19982404  1
  Ni  Ni5  1  0.00459600  0.28682401  0.30017602  1
  Ni  Ni6  1  0.49540400  0.28682401  0.80017602  1
  Ni  Ni7  1  0.99540401  0.71317603  0.69982404  1
  Mo  Mo8  1  0.86550401  0.65047103  0.31778604  1
  Ni  Ni9  1  0.36550400  0.34952901  0.18221402  1
  Ni  Ni10  1  0.13449600  0.34952901  0.68221402  1
  Ni  Ni11  1  0.63449600  0.65047103  0.81778604  1
