# generated using pymatgen
data_ThRu
_symmetry_space_group_name_H-M   'P 1'
_cell_length_a   3.80556011
_cell_length_b   5.79216909
_cell_length_c   6.34530544
_cell_angle_alpha   90.00000000
_cell_angle_beta   107.44992065
_cell_angle_gamma   90.00000000
_symmetry_Int_Tables_number   1
_chemical_formula_structural   ThRu
_chemical_formula_sum   'Th2 Ru2'
_cell_volume   133.42934554
_cell_formula_units_Z   2
loop_
 _symmetry_equiv_pos_site_id
 _symmetry_equiv_pos_as_xyz
  1  'x, y, z'
loop_
 _atom_site_type_symbol
 _atom_site_label
 _atom_site_symmetry_multiplicity
 _atom_site_fract_x
 _atom_site_fract_y
 _atom_site_fract_z
 _atom_site_occupancy
  Th  Th0  1  0.84189298  0.25000000  0.68378603  1
  Th  Th1  1  0.15810700  0.74999999  0.31621401  1
  Ru  Ru2  1  0.19431799  0.25000000  0.38863601  1
  Ru  Ru3  1  0.80568198  0.74999999  0.61136402  1
