# generated using pymatgen
data_LiMnCo3SiO6
_symmetry_space_group_name_H-M   'P 1'
_cell_length_a   5.52806616
_cell_length_b   5.55730295
_cell_length_c   5.61275959
_cell_angle_alpha   90.00000000
_cell_angle_beta   62.63488770
_cell_angle_gamma   90.00000000
_symmetry_Int_Tables_number   1
_chemical_formula_structural   LiMnCo3SiO6
_chemical_formula_sum   'Li1 Mn1 Co3 Si1 O6'
_cell_volume   153.13461979
_cell_formula_units_Z   1
loop_
 _symmetry_equiv_pos_site_id
 _symmetry_equiv_pos_as_xyz
  1  'x, y, z'
loop_
 _atom_site_type_symbol
 _atom_site_label
 _atom_site_symmetry_multiplicity
 _atom_site_fract_x
 _atom_site_fract_y
 _atom_site_fract_z
 _atom_site_occupancy
  Li  Li0  1  0.49999998  0.62647201  0.25000000  1
  Co  Co1  1  0.49999998  0.37352800  0.74999998  1
  Co  Co2  1  0.00000000  0.14842700  0.24999999  1
  Mn  Mn3  1  -0.00000000  0.85157301  0.74999997  1
  Co  Co4  1  0.28010599  0.63615801  0.67548598  1
  Si  Si5  1  0.28010599  0.36384200  0.17548600  1
  O  O6  1  0.71989398  0.36384200  0.32451400  1
  O  O7  1  0.80992497  0.11852100  0.65291399  1
  O  O8  1  0.19007499  0.88147901  0.34708599  1
  O  O9  1  0.19007499  0.11852100  0.84708597  1
  O  O10  1  0.71989398  0.63615801  0.82451398  1
  O  O11  1  0.80992497  0.88147901  0.15291400  1
