# generated using pymatgen
data_Li2Al2SiWO2
_symmetry_space_group_name_H-M   'P 1'
_cell_length_a   3.26319408
_cell_length_b   3.26319408
_cell_length_c   10.23639774
_cell_angle_alpha   90.00000000
_cell_angle_beta   90.00000000
_cell_angle_gamma   120.00000000
_symmetry_Int_Tables_number   1
_chemical_formula_structural   Li2Al2SiWO2
_chemical_formula_sum   'Li2 Al2 Si1 W1 O2'
_cell_volume   94.39817411
_cell_formula_units_Z   1
loop_
 _symmetry_equiv_pos_site_id
 _symmetry_equiv_pos_as_xyz
  1  'x, y, z'
loop_
 _atom_site_type_symbol
 _atom_site_label
 _atom_site_symmetry_multiplicity
 _atom_site_fract_x
 _atom_site_fract_y
 _atom_site_fract_z
 _atom_site_occupancy
  Li  Li0  1  0.33333334  0.66666667  0.19586100  1
  Li  Li1  1  0.66666666  0.33333334  0.69586102  1
  Al  Al2  1  0.00000000  0.00000000  0.47998801  1
  Al  Al3  1  0.00000000  0.00000000  0.97998802  1
  W  W4  1  0.66666666  0.33333334  0.05808600  1
  Si  Si5  1  0.33333334  0.66666667  0.55808601  1
  O  O6  1  0.00000000  0.00000000  0.30274601  1
  O  O7  1  0.00000000  0.00000000  0.80274602  1
