# generated using pymatgen
data_B3CN
_symmetry_space_group_name_H-M   'P 1'
_cell_length_a   3.17353940
_cell_length_b   5.55920029
_cell_length_c   5.61292505
_cell_angle_alpha   115.58481598
_cell_angle_beta   90.92543793
_cell_angle_gamma   95.81392670
_symmetry_Int_Tables_number   1
_chemical_formula_structural   B3CN
_chemical_formula_sum   'B6 C2 N2'
_cell_volume   88.65781789
_cell_formula_units_Z   2
loop_
 _symmetry_equiv_pos_site_id
 _symmetry_equiv_pos_as_xyz
  1  'x, y, z'
loop_
 _atom_site_type_symbol
 _atom_site_label
 _atom_site_symmetry_multiplicity
 _atom_site_fract_x
 _atom_site_fract_y
 _atom_site_fract_z
 _atom_site_occupancy
  B  B0  1  0.01774300  0.97568701  0.94584202  1
  B  B1  1  0.51779802  0.97591101  0.44596200  1
  B  B2  1  0.46305501  0.57175401  0.61380701  1
  B  B3  1  0.96164603  0.57190201  0.11407099  1
  B  B4  1  0.09239300  0.38050400  0.75955401  1
  B  B5  1  0.59022802  0.38039000  0.25893900  1
  N  N6  1  0.47898802  0.76665001  0.69312901  1
  C  C7  1  0.97862403  0.76683001  0.19312399  1
  C  C8  1  0.05892800  0.18640100  0.69623701  1
  N  N9  1  0.55843702  0.18636400  0.19607900  1
