# generated using pymatgen
data_BaLaThTiSe3
_symmetry_space_group_name_H-M   'P 1'
_cell_length_a   6.80592585
_cell_length_b   6.99506760
_cell_length_c   6.99506760
_cell_angle_alpha   76.31031799
_cell_angle_beta   60.89049149
_cell_angle_gamma   60.89049149
_symmetry_Int_Tables_number   1
_chemical_formula_structural   BaLaThTiSe3
_chemical_formula_sum   'Ba1 La1 Th1 Ti1 Se3'
_cell_volume   254.20686021
_cell_formula_units_Z   1
loop_
 _symmetry_equiv_pos_site_id
 _symmetry_equiv_pos_as_xyz
  1  'x, y, z'
loop_
 _atom_site_type_symbol
 _atom_site_label
 _atom_site_symmetry_multiplicity
 _atom_site_fract_x
 _atom_site_fract_y
 _atom_site_fract_z
 _atom_site_occupancy
  Ba  Ba0  1  0.00000000  0.00000000  0.00000000  1
  La  La1  1  0.50000002  0.49999999  0.49999996  1
  Ti  Ti2  1  0.00000000  0.49999999  0.49999997  1
  Th  Th3  1  0.58126202  0.49999999  0.83747595  1
  Se  Se4  1  0.41873701  0.16252500  0.49999998  1
  Se  Se5  1  0.08126301  0.83747498  0.49999996  1
  Se  Se6  1  0.91873803  0.49999999  0.16252397  1
