# generated using pymatgen
data_Er3Tm(CuS4)2
_symmetry_space_group_name_H-M   'P 1'
_cell_length_a   7.37469530
_cell_length_b   7.37469530
_cell_length_c   7.37469530
_cell_angle_alpha   60.00000000
_cell_angle_beta   60.00000000
_cell_angle_gamma   60.00000000
_symmetry_Int_Tables_number   1
_chemical_formula_structural   Er3Tm(CuS4)2
_chemical_formula_sum   'Er3 Tm1 Cu2 S8'
_cell_volume   283.60719611
_cell_formula_units_Z   1
loop_
 _symmetry_equiv_pos_site_id
 _symmetry_equiv_pos_as_xyz
  1  'x, y, z'
loop_
 _atom_site_type_symbol
 _atom_site_label
 _atom_site_symmetry_multiplicity
 _atom_site_fract_x
 _atom_site_fract_y
 _atom_site_fract_z
 _atom_site_occupancy
  Tm  Tm0  1  0.87499999  0.37500000  0.87499999  1
  Er  Er1  1  0.87499999  0.87499999  0.87499999  1
  Er  Er2  1  0.37500000  0.87499999  0.87499999  1
  Er  Er3  1  0.87499999  0.87499999  0.37500000  1
  Cu  Cu4  1  0.49999999  0.49999999  0.49999999  1
  Cu  Cu5  1  0.25000000  0.25000000  0.25000000  1
  S  S6  1  0.12180400  0.12180400  0.63458799  1
  S  S7  1  0.11541200  0.62819599  0.62819599  1
  S  S8  1  0.63458799  0.12180400  0.12180400  1
  S  S9  1  0.62819599  0.62819599  0.11541200  1
  S  S10  1  0.62819599  0.62819599  0.62819599  1
  S  S11  1  0.62819599  0.11541200  0.62819599  1
  S  S12  1  0.12180400  0.12180400  0.12180400  1
  S  S13  1  0.12180400  0.63458799  0.12180400  1
