# generated using pymatgen
data_ThZr2N8
_symmetry_space_group_name_H-M   'P 1'
_cell_length_a   4.16068888
_cell_length_b   6.83896589
_cell_length_c   6.83896589
_cell_angle_alpha   120.00000000
_cell_angle_beta   90.00000000
_cell_angle_gamma   90.00000000
_symmetry_Int_Tables_number   1
_chemical_formula_structural   ThZr2N8
_chemical_formula_sum   'Th1 Zr2 N8'
_cell_volume   168.52981701
_cell_formula_units_Z   1
loop_
 _symmetry_equiv_pos_site_id
 _symmetry_equiv_pos_as_xyz
  1  'x, y, z'
loop_
 _atom_site_type_symbol
 _atom_site_label
 _atom_site_symmetry_multiplicity
 _atom_site_fract_x
 _atom_site_fract_y
 _atom_site_fract_z
 _atom_site_occupancy
  Th  Th0  1  1.00000003  1.00000000  0.35120697  1
  Zr  Zr1  1  1.00000003  0.35120700  -0.00000001  1
  Zr  Zr2  1  0.00000000  0.64879300  0.64879297  1
  N  N3  1  0.50000001  1.00000000  0.35773097  1
  N  N4  1  0.50000001  0.35773100  0.99999997  1
  N  N5  1  0.50000001  0.64226900  0.64226897  1
  N  N6  1  1.00000003  0.66666667  0.33333331  1
  N  N7  1  0.00000000  0.33333333  0.66666664  1
  N  N8  1  0.00000000  0.25171400  0.25171399  1
  N  N9  1  0.00000000  0.74828600  -0.00000002  1
  N  N10  1  1.00000003  1.00000000  0.74828596  1
