# generated using pymatgen
data_KCl
_symmetry_space_group_name_H-M   'P 1'
_cell_length_a   4.75247097
_cell_length_b   4.75247097
_cell_length_c   7.93297720
_cell_angle_alpha   90.00000000
_cell_angle_beta   90.00000000
_cell_angle_gamma   90.00000000
_symmetry_Int_Tables_number   1
_chemical_formula_structural   KCl
_chemical_formula_sum   'K3 Cl3'
_cell_volume   179.17406693
_cell_formula_units_Z   3
loop_
 _symmetry_equiv_pos_site_id
 _symmetry_equiv_pos_as_xyz
  1  'x, y, z'
loop_
 _atom_site_type_symbol
 _atom_site_label
 _atom_site_symmetry_multiplicity
 _atom_site_fract_x
 _atom_site_fract_y
 _atom_site_fract_z
 _atom_site_occupancy
  K  K0  1  0.50000000  0.00000000  0.82897498  1
  K  K1  1  -0.00000000  0.50000000  0.17102500  1
  K  K2  1  0.50000000  0.50000000  -0.00000000  1
  Cl  Cl3  1  0.00000000  0.00000000  0.00000000  1
  Cl  Cl4  1  -0.00000000  0.50000000  0.66156698  1
  Cl  Cl5  1  0.50000000  0.00000000  0.33843299  1
