# generated using pymatgen
data_K5TlN8
_symmetry_space_group_name_H-M   'P 1'
_cell_length_a   6.33734179
_cell_length_b   6.33820200
_cell_length_c   8.11328506
_cell_angle_alpha   67.00776672
_cell_angle_beta   90.00000000
_cell_angle_gamma   90.00000000
_symmetry_Int_Tables_number   1
_chemical_formula_structural   K5TlN8
_chemical_formula_sum   'K5 Tl1 N8'
_cell_volume   299.99983013
_cell_formula_units_Z   1
loop_
 _symmetry_equiv_pos_site_id
 _symmetry_equiv_pos_as_xyz
  1  'x, y, z'
loop_
 _atom_site_type_symbol
 _atom_site_label
 _atom_site_symmetry_multiplicity
 _atom_site_fract_x
 _atom_site_fract_y
 _atom_site_fract_z
 _atom_site_occupancy
  K  K0  1  0.50000002  0.12340400  0.75319202  1
  K  K1  1  0.00000000  0.62340399  0.75319204  1
  K  K2  1  0.50000002  0.87659599  0.24680803  1
  K  K3  1  1.00000003  0.37659599  0.24680802  1
  Tl  Tl4  1  0.00000000  0.00000000  0.00000000  1
  K  K5  1  0.50000002  0.49999999  1.00000004  1
  N  N6  1  0.00000000  0.15615700  0.68768602  1
  N  N7  1  1.00000003  0.84384299  0.31231404  1
  N  N8  1  0.50000002  0.65615699  0.68768604  1
  N  N9  1  0.50000002  0.34384299  0.31231402  1
  N  N10  1  0.78580303  0.78583499  1.00000005  1
  N  N11  1  0.21419701  0.21416500  1.00000003  1
  N  N12  1  0.71419702  0.28583500  0.00000001  1
  N  N13  1  0.28580301  0.71416499  1.00000005  1
