# generated using pymatgen
data_Tb3EuF6
_symmetry_space_group_name_H-M   'P 1'
_cell_length_a   5.51405191
_cell_length_b   5.51428604
_cell_length_c   6.76058197
_cell_angle_alpha   90.00000000
_cell_angle_beta   114.06727600
_cell_angle_gamma   90.00000000
_symmetry_Int_Tables_number   1
_chemical_formula_structural   Tb3EuF6
_chemical_formula_sum   'Tb3 Eu1 F6'
_cell_volume   187.69252905
_cell_formula_units_Z   1
loop_
 _symmetry_equiv_pos_site_id
 _symmetry_equiv_pos_as_xyz
  1  'x, y, z'
loop_
 _atom_site_type_symbol
 _atom_site_label
 _atom_site_symmetry_multiplicity
 _atom_site_fract_x
 _atom_site_fract_y
 _atom_site_fract_z
 _atom_site_occupancy
  Eu  Eu0  1  0.69880703  0.50000000  0.39761403  1
  Tb  Tb1  1  0.15295801  0.00000000  0.30591600  1
  Tb  Tb2  1  0.83973404  0.00000000  0.67946803  1
  Tb  Tb3  1  0.34312501  0.50000000  0.68625001  1
  F  F4  1  0.49325102  0.00000000  0.98650201  1
  F  F5  1  0.98346904  0.50000000  0.96693804  1
  F  F6  1  0.49377602  0.75236599  0.49432702  1
  F  F7  1  0.00055100  0.24763400  0.49432699  1
  F  F8  1  0.00055100  0.75236599  0.49432699  1
  F  F9  1  0.49377602  0.24763400  0.49432702  1
