# generated using pymatgen
data_GdFeO3
_symmetry_space_group_name_H-M   'P 1'
_cell_length_a   5.44908619
_cell_length_b   5.68044090
_cell_length_c   7.81482220
_cell_angle_alpha   90.00000000
_cell_angle_beta   90.00000000
_cell_angle_gamma   90.00000000
_symmetry_Int_Tables_number   1
_chemical_formula_structural   GdFeO3
_chemical_formula_sum   'Gd4 Fe4 O12'
_cell_volume   241.89384877
_cell_formula_units_Z   4
loop_
 _symmetry_equiv_pos_site_id
 _symmetry_equiv_pos_as_xyz
  1  'x, y, z'
loop_
 _atom_site_type_symbol
 _atom_site_label
 _atom_site_symmetry_multiplicity
 _atom_site_fract_x
 _atom_site_fract_y
 _atom_site_fract_z
 _atom_site_occupancy
  Gd  Gd0  1  0.51530798  0.56049601  0.24999999  1
  Gd  Gd1  1  0.98469197  0.06049600  0.24999999  1
  Gd  Gd2  1  0.48469198  0.43950401  0.74999998  1
  Gd  Gd3  1  0.01530800  0.93950402  0.74999998  1
  Fe  Fe4  1  0.49999998  0.00000000  0.00000000  1
  Fe  Fe5  1  -0.00000000  0.50000001  0.49999999  1
  Fe  Fe6  1  0.49999998  0.00000000  0.49999999  1
  Fe  Fe7  1  -0.00000000  0.50000001  0.00000000  1
  O  O8  1  0.39745999  0.96630102  0.24999999  1
  O  O9  1  0.10254000  0.46630101  0.24999999  1
  O  O10  1  0.60253998  0.03369900  0.74999998  1
  O  O11  1  0.89745997  0.53369901  0.74999998  1
  O  O12  1  0.80227997  0.80097801  0.05360700  1
  O  O13  1  0.69771998  0.30097801  0.44639299  1
  O  O14  1  0.19771999  0.19902200  0.55360699  1
  O  O15  1  0.30227999  0.69902201  0.94639298  1
  O  O16  1  0.19771999  0.19902200  0.94639298  1
  O  O17  1  0.30227999  0.69902201  0.55360699  1
  O  O18  1  0.80227997  0.80097801  0.44639299  1
  O  O19  1  0.69771998  0.30097801  0.05360700  1
