# generated using pymatgen
data_NaCuO3
_symmetry_space_group_name_H-M   'P 1'
_cell_length_a   5.56772804
_cell_length_b   5.57946062
_cell_length_c   5.56772804
_cell_angle_alpha   119.93046570
_cell_angle_beta   90.00000000
_cell_angle_gamma   119.93046570
_symmetry_Int_Tables_number   1
_chemical_formula_structural   NaCuO3
_chemical_formula_sum   'Na2 Cu2 O6'
_cell_volume   122.55854359
_cell_formula_units_Z   2
loop_
 _symmetry_equiv_pos_site_id
 _symmetry_equiv_pos_as_xyz
  1  'x, y, z'
loop_
 _atom_site_type_symbol
 _atom_site_label
 _atom_site_symmetry_multiplicity
 _atom_site_fract_x
 _atom_site_fract_y
 _atom_site_fract_z
 _atom_site_occupancy
  Na  Na0  1  0.25000002  0.50000000  0.75000001  1
  Na  Na1  1  0.75000001  0.50000000  0.25000002  1
  Cu  Cu2  1  0.00000000  0.00000000  0.00000000  1
  Cu  Cu3  1  0.50000000  0.00000000  0.50000000  1
  O  O4  1  0.22906700  0.00000100  0.27093400  1
  O  O5  1  0.72906699  0.00000000  0.22906700  1
  O  O6  1  0.27093300  0.00000000  0.77093299  1
  O  O7  1  0.77093303  0.99999900  0.72906603  1
  O  O8  1  0.25000002  0.50000000  0.25000002  1
  O  O9  1  0.75000001  0.50000000  0.75000001  1
