# generated using pymatgen
data_Ba2SrCaUCdF14
_symmetry_space_group_name_H-M   'P 1'
_cell_length_a   7.32050037
_cell_length_b   7.57595539
_cell_length_c   7.57595539
_cell_angle_alpha   78.37096405
_cell_angle_beta   62.86364746
_cell_angle_gamma   62.86364746
_symmetry_Int_Tables_number   1
_chemical_formula_structural   Ba2SrCaUCdF14
_chemical_formula_sum   'Ba2 Sr1 Ca1 U1 Cd1 F14'
_cell_volume   332.74119505
_cell_formula_units_Z   1
loop_
 _symmetry_equiv_pos_site_id
 _symmetry_equiv_pos_as_xyz
  1  'x, y, z'
loop_
 _atom_site_type_symbol
 _atom_site_label
 _atom_site_symmetry_multiplicity
 _atom_site_fract_x
 _atom_site_fract_y
 _atom_site_fract_z
 _atom_site_occupancy
  Ba  Ba0  1  0.55477899  0.73966100  0.49893202  1
  Sr  Sr1  1  0.05477900  0.49893200  0.73966101  1
  Ba  Ba2  1  0.89013597  0.15449700  0.50128502  1
  Ca  Ca3  1  0.39013599  0.50128500  0.15449701  1
  Cd  Cd4  1  0.00765500  0.02856100  0.97431100  1
  U  U5  1  0.50765499  0.97431099  0.02856102  1
  F  F6  1  0.37569199  0.08411000  0.26896901  1
  F  F7  1  0.87569197  0.26896900  0.08411002  1
  F  F8  1  0.26156700  0.92480799  0.04981501  1
  F  F9  1  0.76156697  0.04981500  0.92480801  1
  F  F10  1  0.66118398  0.71994500  0.08421402  1
  F  F11  1  0.16118399  0.08421400  0.71994500  1
  F  F12  1  0.65391899  0.90041999  0.72466102  1
  F  F13  1  0.15391900  0.72466100  0.90042001  1
  F  F14  1  0.00190101  0.47826400  0.40459200  1
  F  F15  1  0.50190099  0.40459200  0.47826401  1
  F  F16  1  0.85820498  0.91889799  0.25093202  1
  F  F17  1  0.35820499  0.25093200  0.91889801  1
  F  F18  1  0.67396098  0.47610100  0.77222502  1
  F  F19  1  0.17396100  0.77222500  0.47610101  1
