# generated using pymatgen
data_Li2NiF6
_symmetry_space_group_name_H-M   'P 1'
_cell_length_a   4.75115824
_cell_length_b   4.75115824
_cell_length_c   9.42056274
_cell_angle_alpha   90.00000000
_cell_angle_beta   90.00000000
_cell_angle_gamma   90.00000000
_symmetry_Int_Tables_number   1
_chemical_formula_structural   Li2NiF6
_chemical_formula_sum   'Li4 Ni2 F12'
_cell_volume   212.65511641
_cell_formula_units_Z   2
loop_
 _symmetry_equiv_pos_site_id
 _symmetry_equiv_pos_as_xyz
  1  'x, y, z'
loop_
 _atom_site_type_symbol
 _atom_site_label
 _atom_site_symmetry_multiplicity
 _atom_site_fract_x
 _atom_site_fract_y
 _atom_site_fract_z
 _atom_site_occupancy
  Li  Li0  1  0.00000000  0.00000000  0.00000000  1
  Li  Li1  1  0.49999998  0.49999998  0.50000001  1
  Li  Li2  1  0.49999998  0.49999998  0.83218202  1
  Li  Li3  1  0.00000000  0.00000000  0.33218201  1
  Ni  Ni4  1  0.49999998  0.49999998  0.16781800  1
  Ni  Ni5  1  0.00000000  0.00000000  0.66781802  1
  F  F6  1  0.69857797  0.69857797  0.67291302  1
  F  F7  1  0.30142198  0.30142198  0.67291302  1
  F  F8  1  0.69857797  0.69857797  0.32708701  1
  F  F9  1  0.19857799  0.80142196  0.17291300  1
  F  F10  1  0.80142196  0.19857799  0.17291300  1
  F  F11  1  0.80142196  0.19857799  0.82708702  1
  F  F12  1  0.31163798  0.31163798  0.00000000  1
  F  F13  1  0.18836199  0.81163796  0.50000001  1
  F  F14  1  0.81163796  0.18836199  0.50000001  1
  F  F15  1  0.68836197  0.68836197  0.00000000  1
  F  F16  1  0.30142198  0.30142198  0.32708701  1
  F  F17  1  0.19857799  0.80142196  0.82708702  1
