# generated using pymatgen
data_LiCd3S4
_symmetry_space_group_name_H-M   'P 1'
_cell_length_a   6.04400587
_cell_length_b   6.04400587
_cell_length_c   7.33068419
_cell_angle_alpha   114.34564209
_cell_angle_beta   114.34564209
_cell_angle_gamma   90.00000000
_symmetry_Int_Tables_number   1
_chemical_formula_structural   LiCd3S4
_chemical_formula_sum   'Li1 Cd3 S4'
_cell_volume   217.57268725
_cell_formula_units_Z   1
loop_
 _symmetry_equiv_pos_site_id
 _symmetry_equiv_pos_as_xyz
  1  'x, y, z'
loop_
 _atom_site_type_symbol
 _atom_site_label
 _atom_site_symmetry_multiplicity
 _atom_site_fract_x
 _atom_site_fract_y
 _atom_site_fract_z
 _atom_site_occupancy
  Cd  Cd0  1  0.75000002  0.25000001  0.50000000  1
  Li  Li1  1  0.50000002  0.50000001  0.99999999  1
  Cd  Cd2  1  0.00000000  0.00000000  0.00000000  1
  Cd  Cd3  1  0.25000001  0.75000002  0.50000000  1
  S  S4  1  0.11700901  0.64555202  0.76372999  1
  S  S5  1  0.64672102  0.11817800  0.76372999  1
  S  S6  1  0.35444801  0.35327801  0.23626900  1
  S  S7  1  0.88182203  0.88299202  0.23627101  1
