# generated using pymatgen
data_Sr2LiZrWO5
_symmetry_space_group_name_H-M   'P 1'
_cell_length_a   6.62330723
_cell_length_b   6.72933102
_cell_length_c   6.64513206
_cell_angle_alpha   102.56075287
_cell_angle_beta   104.97317505
_cell_angle_gamma   103.23313904
_symmetry_Int_Tables_number   1
_chemical_formula_structural   Sr2LiZrWO5
_chemical_formula_sum   'Sr2 Li1 Zr1 W1 O5'
_cell_volume   266.20065226
_cell_formula_units_Z   1
loop_
 _symmetry_equiv_pos_site_id
 _symmetry_equiv_pos_as_xyz
  1  'x, y, z'
loop_
 _atom_site_type_symbol
 _atom_site_label
 _atom_site_symmetry_multiplicity
 _atom_site_fract_x
 _atom_site_fract_y
 _atom_site_fract_z
 _atom_site_occupancy
  Li  Li0  1  0.00000001  0.50000000  0.00000000  1
  Sr  Sr1  1  0.50000002  1.00000001  0.99999998  1
  Sr  Sr2  1  0.00000000  0.00000000  0.49999999  1
  Zr  Zr3  1  0.00000000  0.00000000  0.00000000  1
  O  O4  1  0.05357802  0.77702401  0.77640899  1
  O  O5  1  0.94642200  0.22297600  0.22359099  1
  W  W6  1  0.77862501  0.77860701  0.06340200  1
  O  O7  1  0.22137500  0.22139300  0.93659798  1
  O  O8  1  0.77071199  0.06169000  0.77306898  1
  O  O9  1  0.22928802  0.93831001  0.22693100  1
