# generated using pymatgen
data_Cs2Pt2Se3
_symmetry_space_group_name_H-M   'P 1'
_cell_length_a   4.45169878
_cell_length_b   7.54063511
_cell_length_c   7.54063511
_cell_angle_alpha   90.00000000
_cell_angle_beta   90.00000000
_cell_angle_gamma   90.00000000
_symmetry_Int_Tables_number   1
_chemical_formula_structural   Cs2Pt2Se3
_chemical_formula_sum   'Cs2 Pt2 Se3'
_cell_volume   253.12883605
_cell_formula_units_Z   1
loop_
 _symmetry_equiv_pos_site_id
 _symmetry_equiv_pos_as_xyz
  1  'x, y, z'
loop_
 _atom_site_type_symbol
 _atom_site_label
 _atom_site_symmetry_multiplicity
 _atom_site_fract_x
 _atom_site_fract_y
 _atom_site_fract_z
 _atom_site_occupancy
  Cs  Cs0  1  0.50000002  0.49999999  0.00000000  1
  Cs  Cs1  1  0.50000002  0.99999999  0.49999999  1
  Pt  Pt2  1  0.00000000  0.00000000  0.00000000  1
  Pt  Pt3  1  -0.00000000  0.76766399  0.76766399  1
  Se  Se4  1  -0.00000000  0.23233600  0.23233600  1
  Se  Se5  1  -0.00000000  0.23233600  0.76766399  1
  Se  Se6  1  -0.00000000  0.76766399  0.23233600  1
