# generated using pymatgen
data_KPb2Se(ClO3)3
_symmetry_space_group_name_H-M   'P 1'
_cell_length_a   5.85106611
_cell_length_b   7.21102571
_cell_length_c   7.63110399
_cell_angle_alpha   114.15242767
_cell_angle_beta   90.00000000
_cell_angle_gamma   113.93517303
_symmetry_Int_Tables_number   1
_chemical_formula_structural   KPb2Se(ClO3)3
_chemical_formula_sum   'K1 Pb2 Se1 Cl3 O9'
_cell_volume   263.15038890
_cell_formula_units_Z   1
loop_
 _symmetry_equiv_pos_site_id
 _symmetry_equiv_pos_as_xyz
  1  'x, y, z'
loop_
 _atom_site_type_symbol
 _atom_site_label
 _atom_site_symmetry_multiplicity
 _atom_site_fract_x
 _atom_site_fract_y
 _atom_site_fract_z
 _atom_site_occupancy
  K  K0  1  0.67043299  0.34086600  0.66165600  1
  Cl  Cl1  1  0.32956699  0.65913400  0.33834401  1
  Pb  Pb2  1  0.54573499  0.09147000  0.39083900  1
  Cl  Cl3  1  0.45426499  0.90853000  0.60916101  1
  Pb  Pb4  1  0.94060098  0.88120200  0.73916001  1
  Se  Se5  1  0.05939900  0.11879800  0.26084000  1
  Cl  Cl6  1  0.34813099  0.69626200  0.93727101  1
  O  O7  1  0.65186899  0.30373800  0.06272901  1
  O  O8  1  0.59039999  0.18080000  0.73180300  1
  O  O9  1  0.40959999  0.81920000  0.26819701  1
  O  O10  1  0.63195799  0.26391600  0.45655300  1
  O  O11  1  0.36804199  0.73608400  0.54344701  1
  O  O12  1  0.78440199  0.56880400  0.78722601  1
  O  O13  1  0.21559800  0.43119600  0.21277401  1
  O  O14  1  0.25286600  0.00000000  0.99999999  1
  O  O15  1  0.74713399  0.00000000  0.99999999  1
