# generated using pymatgen
data_CuS
_symmetry_space_group_name_H-M   'P 1'
_cell_length_a   3.83820605
_cell_length_b   3.83820605
_cell_length_c   12.47683716
_cell_angle_alpha   90.00000000
_cell_angle_beta   90.00000000
_cell_angle_gamma   120.00000000
_symmetry_Int_Tables_number   1
_chemical_formula_structural   CuS
_chemical_formula_sum   'Cu4 S4'
_cell_volume   159.18117662
_cell_formula_units_Z   4
loop_
 _symmetry_equiv_pos_site_id
 _symmetry_equiv_pos_as_xyz
  1  'x, y, z'
loop_
 _atom_site_type_symbol
 _atom_site_label
 _atom_site_symmetry_multiplicity
 _atom_site_fract_x
 _atom_site_fract_y
 _atom_site_fract_z
 _atom_site_occupancy
  Cu  Cu0  1  0.00000000  0.00000000  0.00000000  1
  Cu  Cu1  1  0.00000000  0.00000000  0.49999999  1
  Cu  Cu2  1  0.66666666  0.33333334  0.74999999  1
  Cu  Cu3  1  0.33333334  0.66666668  0.25000000  1
  S  S4  1  0.66666666  0.33333334  0.91616899  1
  S  S5  1  0.66666666  0.33333334  0.58383099  1
  S  S6  1  0.33333334  0.66666668  0.41616899  1
  S  S7  1  0.33333334  0.66666668  0.08383100  1
