# generated using pymatgen
data_Li3MnO4
_symmetry_space_group_name_H-M   'P 1'
_cell_length_a   5.89929581
_cell_length_b   6.27966213
_cell_length_c   6.04792786
_cell_angle_alpha   118.78660583
_cell_angle_beta   90.00000000
_cell_angle_gamma   118.01576233
_symmetry_Int_Tables_number   1
_chemical_formula_structural   Li3MnO4
_chemical_formula_sum   'Li6 Mn2 O8'
_cell_volume   165.77797105
_cell_formula_units_Z   2
loop_
 _symmetry_equiv_pos_site_id
 _symmetry_equiv_pos_as_xyz
  1  'x, y, z'
loop_
 _atom_site_type_symbol
 _atom_site_label
 _atom_site_symmetry_multiplicity
 _atom_site_fract_x
 _atom_site_fract_y
 _atom_site_fract_z
 _atom_site_occupancy
  Li  Li0  1  0.00000000  0.00000000  0.00000000  1
  Li  Li1  1  0.50000002  0.50000001  1.00000001  1
  Li  Li2  1  1.00000005  1.00000002  0.49999999  1
  Li  Li3  1  1.00000004  0.50000001  -0.00000001  1
  Li  Li4  1  1.00000004  0.50000001  0.50000000  1
  Li  Li5  1  0.50000002  0.50000001  0.50000000  1
  Mn  Mn6  1  0.50000002  0.00000000  0.00000000  1
  Mn  Mn7  1  0.50000002  0.00000000  0.50000001  1
  O  O8  1  0.76430603  0.03994900  0.76997502  1
  O  O9  1  0.27379902  0.54759801  0.29874599  1
  O  O10  1  0.27564201  0.03994800  0.76997402  1
  O  O11  1  0.27380002  0.54759901  0.74885200  1
  O  O12  1  0.72620003  0.45240101  0.25114799  1
  O  O13  1  0.72435804  0.96005202  0.23002598  1
  O  O14  1  0.72620103  0.45240201  0.70125401  1
  O  O15  1  0.23569402  0.96005102  0.23002498  1
