# generated using pymatgen
data_Ag2SBr
_symmetry_space_group_name_H-M   'P 1'
_cell_length_a   4.39881992
_cell_length_b   4.39881992
_cell_length_c   9.73009777
_cell_angle_alpha   90.00000000
_cell_angle_beta   90.00000000
_cell_angle_gamma   90.00000000
_symmetry_Int_Tables_number   1
_chemical_formula_structural   Ag2SBr
_chemical_formula_sum   'Ag4 S2 Br2'
_cell_volume   188.27366250
_cell_formula_units_Z   2
loop_
 _symmetry_equiv_pos_site_id
 _symmetry_equiv_pos_as_xyz
  1  'x, y, z'
loop_
 _atom_site_type_symbol
 _atom_site_label
 _atom_site_symmetry_multiplicity
 _atom_site_fract_x
 _atom_site_fract_y
 _atom_site_fract_z
 _atom_site_occupancy
  Ag  Ag0  1  -0.00000000  0.50000001  0.86395502  1
  Ag  Ag1  1  0.50000001  0.00000000  0.13604500  1
  Ag  Ag2  1  0.50000001  0.50000001  0.50000001  1
  Ag  Ag3  1  0.00000000  0.00000000  0.50000001  1
  Br  Br4  1  -0.00000000  0.50000001  0.30208001  1
  Br  Br5  1  0.50000001  0.00000000  0.69792002  1
  S  S6  1  0.50000001  0.50000001  0.00000000  1
  S  S7  1  0.00000000  0.00000000  0.00000000  1
