# generated using pymatgen
data_BaSr2O2
_symmetry_space_group_name_H-M   'P 1'
_cell_length_a   6.66721201
_cell_length_b   6.67746973
_cell_length_c   6.67746973
_cell_angle_alpha   60.08837891
_cell_angle_beta   60.05080414
_cell_angle_gamma   60.05080414
_symmetry_Int_Tables_number   1
_chemical_formula_structural   BaSr2O2
_chemical_formula_sum   'Ba2 Sr4 O4'
_cell_volume   210.51152390
_cell_formula_units_Z   2
loop_
 _symmetry_equiv_pos_site_id
 _symmetry_equiv_pos_as_xyz
  1  'x, y, z'
loop_
 _atom_site_type_symbol
 _atom_site_label
 _atom_site_symmetry_multiplicity
 _atom_site_fract_x
 _atom_site_fract_y
 _atom_site_fract_z
 _atom_site_occupancy
  Sr  Sr0  1  0.25000000  0.28374801  0.21625200  1
  Sr  Sr1  1  0.75000000  0.71625202  0.78374802  1
  Ba  Ba2  1  0.76730900  0.23269101  0.73269102  1
  Ba  Ba3  1  0.73269100  0.76730902  0.26730900  1
  Sr  Sr4  1  0.23269100  0.76730902  0.26730900  1
  Sr  Sr5  1  0.26730900  0.23269101  0.73269102  1
  O  O6  1  0.75000000  0.24868801  0.25131201  1
  O  O7  1  0.25000000  0.75131202  0.74868801  1
  O  O8  1  0.50000000  1.00000002  1.00000002  1
  O  O9  1  0.00000000  0.50000001  0.50000001  1
