# generated using pymatgen
data_Sr2CdInTe4
_symmetry_space_group_name_H-M   'P 1'
_cell_length_a   7.13660383
_cell_length_b   7.13660383
_cell_length_c   7.13660383
_cell_angle_alpha   105.17151642
_cell_angle_beta   105.17151642
_cell_angle_gamma   118.46235657
_symmetry_Int_Tables_number   1
_chemical_formula_structural   Sr2CdInTe4
_chemical_formula_sum   'Sr2 Cd1 In1 Te4'
_cell_volume   274.56282117
_cell_formula_units_Z   1
loop_
 _symmetry_equiv_pos_site_id
 _symmetry_equiv_pos_as_xyz
  1  'x, y, z'
loop_
 _atom_site_type_symbol
 _atom_site_label
 _atom_site_symmetry_multiplicity
 _atom_site_fract_x
 _atom_site_fract_y
 _atom_site_fract_z
 _atom_site_occupancy
  Sr  Sr0  1  0.00000005  0.50000004  0.50000004  1
  Sr  Sr1  1  0.50000011  1.00000008  0.50000009  1
  Cd  Cd2  1  0.50000006  0.50000004  1.00000007  1
  In  In3  1  0.00000000  0.00000000  0.00000000  1
  Te  Te4  1  0.94044012  0.94044008  0.36049309  1
  Te  Te5  1  0.42005302  0.05955900  1.00000004  1
  Te  Te6  1  0.05956004  0.42005404  1.00000005  1
  Te  Te7  1  0.57994707  0.57994705  0.63950706  1
