# generated using pymatgen
data_Na2P2O3
_symmetry_space_group_name_H-M   'P 1'
_cell_length_a   5.04755545
_cell_length_b   5.04755545
_cell_length_c   8.57559872
_cell_angle_alpha   78.79360199
_cell_angle_beta   78.79360199
_cell_angle_gamma   63.68291473
_symmetry_Int_Tables_number   1
_chemical_formula_structural   Na2P2O3
_chemical_formula_sum   'Na4 P4 O6'
_cell_volume   190.64852328
_cell_formula_units_Z   2
loop_
 _symmetry_equiv_pos_site_id
 _symmetry_equiv_pos_as_xyz
  1  'x, y, z'
loop_
 _atom_site_type_symbol
 _atom_site_label
 _atom_site_symmetry_multiplicity
 _atom_site_fract_x
 _atom_site_fract_y
 _atom_site_fract_z
 _atom_site_occupancy
  Na  Na0  1  0.62576002  0.62576002  0.12468300  1
  Na  Na1  1  0.12421000  0.12421000  0.62530001  1
  Na  Na2  1  0.87579003  0.87579003  0.37470000  1
  Na  Na3  1  0.37424001  0.37424001  0.87531701  1
  P  P4  1  0.39043401  0.82917503  0.39037900  1
  P  P5  1  0.88985903  0.33010701  0.88984801  1
  O  O6  1  0.11014100  0.66989302  0.11015200  1
  P  P7  1  0.60956602  0.17082501  0.60962101  1
  P  P8  1  0.82917503  0.39043401  0.39037900  1
  O  O9  1  0.33010701  0.88985903  0.88984801  1
  O  O10  1  0.66989302  0.11014100  0.11015200  1
  O  O11  1  0.17082501  0.60956602  0.60962101  1
  O  O12  1  0.50000002  0.50000002  0.50000001  1
  O  O13  1  0.00000000  0.00000000  0.00000000  1
