# generated using pymatgen
data_LiBi3O8
_symmetry_space_group_name_H-M   'P 1'
_cell_length_a   3.80467796
_cell_length_b   3.80467796
_cell_length_c   10.85243893
_cell_angle_alpha   90.00000000
_cell_angle_beta   90.00000000
_cell_angle_gamma   90.00000000
_symmetry_Int_Tables_number   1
_chemical_formula_structural   LiBi3O8
_chemical_formula_sum   'Li1 Bi3 O8'
_cell_volume   157.09528715
_cell_formula_units_Z   1
loop_
 _symmetry_equiv_pos_site_id
 _symmetry_equiv_pos_as_xyz
  1  'x, y, z'
loop_
 _atom_site_type_symbol
 _atom_site_label
 _atom_site_symmetry_multiplicity
 _atom_site_fract_x
 _atom_site_fract_y
 _atom_site_fract_z
 _atom_site_occupancy
  Li  Li0  1  0.50000000  0.50000000  0.25494000  1
  Bi  Bi1  1  0.50000000  0.50000000  0.74506001  1
  Bi  Bi2  1  0.00000000  0.00000000  0.00000000  1
  Bi  Bi3  1  0.00000000  0.00000000  0.50000000  1
  O  O4  1  -0.00000000  0.50000000  0.37197700  1
  O  O5  1  -0.00000000  0.50000000  0.86472201  1
  O  O6  1  0.50000000  0.00000000  0.39477800  1
  O  O7  1  0.50000000  0.00000000  0.88033101  1
  O  O8  1  0.50000000  0.00000000  0.13527800  1
  O  O9  1  0.50000000  0.00000000  0.62802300  1
  O  O10  1  -0.00000000  0.50000000  0.11966900  1
  O  O11  1  -0.00000000  0.50000000  0.60522200  1
