# generated using pymatgen
data_TiAl3O4
_symmetry_space_group_name_H-M   'P 1'
_cell_length_a   3.26946855
_cell_length_b   5.28898001
_cell_length_c   5.64627171
_cell_angle_alpha   89.99935913
_cell_angle_beta   90.00000000
_cell_angle_gamma   89.99997711
_symmetry_Int_Tables_number   1
_chemical_formula_structural   TiAl3O4
_chemical_formula_sum   'Ti1 Al3 O4'
_cell_volume   97.63619857
_cell_formula_units_Z   1
loop_
 _symmetry_equiv_pos_site_id
 _symmetry_equiv_pos_as_xyz
  1  'x, y, z'
loop_
 _atom_site_type_symbol
 _atom_site_label
 _atom_site_symmetry_multiplicity
 _atom_site_fract_x
 _atom_site_fract_y
 _atom_site_fract_z
 _atom_site_occupancy
  Ti  Ti0  1  -0.00000000  0.99845400  0.33376098  1
  Al  Al1  1  0.00000100  0.49845400  0.66623397  1
  Al  Al2  1  0.49999800  0.99851400  0.83369195  1
  Al  Al3  1  0.50000000  0.49851700  0.16630598  1
  O  O4  1  0.50000200  0.37658700  0.83391895  1
  O  O5  1  0.00000200  0.37644500  0.33393799  1
  O  O6  1  0.99999501  0.87644900  0.66605694  1
  O  O7  1  0.50000000  0.87658000  0.16609297  1
