# generated using pymatgen
data_BaNaNb2O7
_symmetry_space_group_name_H-M   'P 1'
_cell_length_a   3.91942811
_cell_length_b   3.91942811
_cell_length_c   10.69014740
_cell_angle_alpha   100.56317902
_cell_angle_beta   100.56317902
_cell_angle_gamma   90.00000000
_symmetry_Int_Tables_number   1
_chemical_formula_structural   BaNaNb2O7
_chemical_formula_sum   'Ba1 Na1 Nb2 O7'
_cell_volume   158.60633658
_cell_formula_units_Z   1
loop_
 _symmetry_equiv_pos_site_id
 _symmetry_equiv_pos_as_xyz
  1  'x, y, z'
loop_
 _atom_site_type_symbol
 _atom_site_label
 _atom_site_symmetry_multiplicity
 _atom_site_fract_x
 _atom_site_fract_y
 _atom_site_fract_z
 _atom_site_occupancy
  Na  Na0  1  0.74999998  0.24999999  0.50000000  1
  Ba  Ba1  1  0.00000000  0.00000000  0.00000000  1
  Nb  Nb2  1  0.61133998  0.61133998  0.22268000  1
  Nb  Nb3  1  0.38865999  0.38865999  0.77732000  1
  O  O4  1  0.91008797  0.41008799  0.82017600  1
  O  O5  1  0.49999998  0.49999998  -0.00000000  1
  O  O6  1  0.58991198  0.08991200  0.17982400  1
  O  O7  1  0.69913898  0.69913898  0.39827800  1
  O  O8  1  0.41117298  0.91117297  0.82234600  1
  O  O9  1  0.30086099  0.30086099  0.60172200  1
  O  O10  1  0.08882700  0.58882698  0.17765400  1
