# generated using pymatgen
data_SrBiO3
_symmetry_space_group_name_H-M   'P 1'
_cell_length_a   5.76153898
_cell_length_b   5.98232889
_cell_length_c   8.37781525
_cell_angle_alpha   90.00000000
_cell_angle_beta   89.54831696
_cell_angle_gamma   90.00000000
_symmetry_Int_Tables_number   1
_chemical_formula_structural   SrBiO3
_chemical_formula_sum   'Sr4 Bi4 O12'
_cell_volume   288.75271330
_cell_formula_units_Z   4
loop_
 _symmetry_equiv_pos_site_id
 _symmetry_equiv_pos_as_xyz
  1  'x, y, z'
loop_
 _atom_site_type_symbol
 _atom_site_label
 _atom_site_symmetry_multiplicity
 _atom_site_fract_x
 _atom_site_fract_y
 _atom_site_fract_z
 _atom_site_occupancy
  Sr  Sr0  1  0.75002800  0.47807001  0.74974703  1
  Sr  Sr1  1  0.24997200  0.97807002  0.25025301  1
  Sr  Sr2  1  0.74142300  0.92776402  0.99362403  1
  Sr  Sr3  1  0.25857700  0.42776401  0.00637601  1
  Bi  Bi4  1  0.23225200  0.53178801  0.49176201  1
  Bi  Bi5  1  0.76774800  0.03178800  0.50823803  1
  Bi  Bi6  1  0.74428900  0.47670801  0.25146103  1
  Bi  Bi7  1  0.25571100  0.97670802  0.74853902  1
  O  O8  1  0.38109000  0.91122002  0.51679702  1
  O  O9  1  0.61891000  0.41122001  0.48320302  1
  O  O10  1  0.44380000  0.64889801  0.19690702  1
  O  O11  1  0.55620000  0.14889800  0.80309303  1
  O  O12  1  0.92024200  0.76579801  0.32778503  1
  O  O13  1  0.07975800  0.26579800  0.67221501  1
  O  O14  1  0.87296100  0.54616901  0.01838203  1
  O  O15  1  0.12703900  0.04616900  0.98161801  1
  O  O16  1  0.96212300  0.79654701  0.68997504  1
  O  O17  1  0.03787700  0.29654701  0.31002500  1
  O  O18  1  0.42498000  0.68793801  0.82927702  1
  O  O19  1  0.57502000  0.18793800  0.17072302  1
