# generated using pymatgen
data_Ba7SeS12
_symmetry_space_group_name_H-M   'P 1'
_cell_length_a   7.03928089
_cell_length_b   7.61631393
_cell_length_c   12.81756592
_cell_angle_alpha   90.00000000
_cell_angle_beta   81.97908020
_cell_angle_gamma   90.00000000
_symmetry_Int_Tables_number   1
_chemical_formula_structural   Ba7SeS12
_chemical_formula_sum   'Ba7 Se1 S12'
_cell_volume   680.47026489
_cell_formula_units_Z   1
loop_
 _symmetry_equiv_pos_site_id
 _symmetry_equiv_pos_as_xyz
  1  'x, y, z'
loop_
 _atom_site_type_symbol
 _atom_site_label
 _atom_site_symmetry_multiplicity
 _atom_site_fract_x
 _atom_site_fract_y
 _atom_site_fract_z
 _atom_site_occupancy
  Ba  Ba0  1  0.93135102  0.63800101  0.64828297  1
  Ba  Ba1  1  0.06864900  0.63800101  0.85171699  1
  Ba  Ba2  1  0.06864900  0.36199900  0.35171699  1
  Ba  Ba3  1  0.93135102  0.36199900  0.14828297  1
  Ba  Ba4  1  0.17817900  0.90759901  0.69474199  1
  Ba  Ba5  1  0.82182102  0.90759901  0.80525797  1
  Ba  Ba6  1  0.82182102  0.09240100  0.30525797  1
  Se  Se7  1  0.17817900  0.09240100  0.19474199  1
  S  S8  1  0.14409000  0.33048500  0.95722998  1
  S  S9  1  0.85591002  0.33048500  0.54276997  1
  S  S10  1  0.85591002  0.66951501  0.04276998  1
  S  S11  1  0.14409000  0.66951501  0.45722999  1
  S  S12  1  0.64844901  0.23143800  0.06868498  1
  S  S13  1  0.35155101  0.23143800  0.43131498  1
  S  S14  1  0.35155101  0.76856201  0.93131498  1
  S  S15  1  0.64844901  0.76856201  0.56868497  1
  S  S16  1  0.76101702  0.54990200  0.30303697  1
  S  S17  1  0.23898301  0.54990200  0.19696299  1
  S  S18  1  0.23898301  0.45009800  0.69696298  1
  S  S19  1  0.76101702  0.45009800  0.80303697  1
