# generated using pymatgen
data_CaLaSmSn2O11
_symmetry_space_group_name_H-M   'P 1'
_cell_length_a   5.60102701
_cell_length_b   6.90255308
_cell_length_c   6.90255308
_cell_angle_alpha   112.20768738
_cell_angle_beta   90.00000000
_cell_angle_gamma   90.00000000
_symmetry_Int_Tables_number   1
_chemical_formula_structural   CaLaSmSn2O11
_chemical_formula_sum   'Ca1 La1 Sm1 Sn2 O11'
_cell_volume   247.06639601
_cell_formula_units_Z   1
loop_
 _symmetry_equiv_pos_site_id
 _symmetry_equiv_pos_as_xyz
  1  'x, y, z'
loop_
 _atom_site_type_symbol
 _atom_site_label
 _atom_site_symmetry_multiplicity
 _atom_site_fract_x
 _atom_site_fract_y
 _atom_site_fract_z
 _atom_site_occupancy
  Ca  Ca0  1  0.55444300  0.75000001  0.25000004  1
  La  La1  1  0.44555700  0.25000000  0.75000001  1
  Sm  Sm2  1  -0.00000000  0.75000001  0.75000004  1
  Sn  Sn3  1  -0.00000000  0.25000000  0.25000001  1
  Sn  Sn4  1  0.75237600  0.93066202  0.68275205  1
  O  O5  1  0.24762400  0.06933800  0.31724800  1
  O  O6  1  0.75237600  0.56933801  0.81724803  1
  O  O7  1  0.24762400  0.81724801  0.56933804  1
  O  O8  1  0.24762400  0.43066201  0.18275202  1
  O  O9  1  0.75237600  0.18275200  0.43066201  1
  O  O10  1  0.24762400  0.68275201  0.93066203  1
  O  O11  1  0.75237600  0.31724801  0.06933802  1
  O  O12  1  0.85224700  0.56987101  0.43012903  1
  O  O13  1  0.14775300  0.43012901  0.56987102  1
  O  O14  1  0.85224700  0.93012902  0.06987105  1
  O  O15  1  0.14775300  0.06987100  0.93012900  1
