# generated using pymatgen
data_Li4MnV3O12
_symmetry_space_group_name_H-M   'P 1'
_cell_length_a   4.99932623
_cell_length_b   5.26451445
_cell_length_c   8.60058784
_cell_angle_alpha   89.96622467
_cell_angle_beta   89.73426819
_cell_angle_gamma   89.97557831
_symmetry_Int_Tables_number   1
_chemical_formula_structural   Li4MnV3O12
_chemical_formula_sum   'Li4 Mn1 V3 O12'
_cell_volume   226.35659371
_cell_formula_units_Z   1
loop_
 _symmetry_equiv_pos_site_id
 _symmetry_equiv_pos_as_xyz
  1  'x, y, z'
loop_
 _atom_site_type_symbol
 _atom_site_label
 _atom_site_symmetry_multiplicity
 _atom_site_fract_x
 _atom_site_fract_y
 _atom_site_fract_z
 _atom_site_occupancy
  Li  Li0  1  0.49852399  0.99801101  0.31215103  1
  Li  Li1  1  0.99991895  0.00283600  0.33081504  1
  Li  Li2  1  0.49160698  0.51627600  0.83216703  1
  Li  Li3  1  0.99624096  0.49730600  0.80174005  1
  V  V4  1  0.00130601  0.99885501  0.65146201  1
  V  V5  1  0.00169901  0.99954101  0.00475200  1
  Mn  Mn6  1  0.50098198  0.49855500  0.50403903  1
  V  V7  1  0.50149098  0.49808600  0.15131002  1
  O  O8  1  0.22242500  0.86032701  0.16703001  1
  O  O9  1  0.22188300  0.85519001  0.49044902  1
  O  O10  1  0.18225100  0.82057801  0.82716202  1
  O  O11  1  0.68189398  0.67412900  0.32818303  1
  O  O12  1  0.71965197  0.64896100  0.99145204  1
  O  O13  1  0.72230797  0.64073300  0.66561704  1
  O  O14  1  0.27823599  0.35856800  0.66625102  1
  O  O15  1  0.28249499  0.35150700  0.99176803  1
  O  O16  1  0.31854299  0.32427100  0.32845202  1
  O  O17  1  0.82220496  0.17210800  0.82777804  1
  O  O18  1  0.77958997  0.14468800  0.49219704  1
  O  O19  1  0.77669497  0.13967700  0.16736803  1
