# generated using pymatgen
data_NaPrAgS4
_symmetry_space_group_name_H-M   'P 1'
_cell_length_a   6.76854563
_cell_length_b   6.76854563
_cell_length_c   6.76854563
_cell_angle_alpha   105.38185120
_cell_angle_beta   105.38185120
_cell_angle_gamma   118.00175476
_symmetry_Int_Tables_number   1
_chemical_formula_structural   NaPrAgS4
_chemical_formula_sum   'Na1 Pr1 Ag1 S4'
_cell_volume   234.68401779
_cell_formula_units_Z   1
loop_
 _symmetry_equiv_pos_site_id
 _symmetry_equiv_pos_as_xyz
  1  'x, y, z'
loop_
 _atom_site_type_symbol
 _atom_site_label
 _atom_site_symmetry_multiplicity
 _atom_site_fract_x
 _atom_site_fract_y
 _atom_site_fract_z
 _atom_site_occupancy
  Pr  Pr0  1  0.25000004  0.75000004  0.50000005  1
  Na  Na1  1  0.75000004  0.25000001  0.50000004  1
  Ag  Ag2  1  0.82212206  0.67382404  0.49594606  1
  S  S3  1  0.17787802  0.32617602  0.50405403  1
  S  S4  1  0.32617604  0.82212205  0.14829804  1
  S  S5  1  0.67382403  0.17787801  0.85170205  1
  S  S6  1  0.00000000  0.00000000  0.00000000  1
