# generated using pymatgen
data_CrCu3(SN)2
_symmetry_space_group_name_H-M   'P 1'
_cell_length_a   5.37049818
_cell_length_b   5.37049818
_cell_length_c   5.81178093
_cell_angle_alpha   62.48147202
_cell_angle_beta   62.48147202
_cell_angle_gamma   59.99999619
_symmetry_Int_Tables_number   1
_chemical_formula_structural   CrCu3(SN)2
_chemical_formula_sum   'Cr1 Cu3 S2 N2'
_cell_volume   122.78141930
_cell_formula_units_Z   1
loop_
 _symmetry_equiv_pos_site_id
 _symmetry_equiv_pos_as_xyz
  1  'x, y, z'
loop_
 _atom_site_type_symbol
 _atom_site_label
 _atom_site_symmetry_multiplicity
 _atom_site_fract_x
 _atom_site_fract_y
 _atom_site_fract_z
 _atom_site_occupancy
  Cu  Cu0  1  0.50000003  0.50000002  0.49999998  1
  Cu  Cu1  1  0.00000000  0.00000000  0.00000000  1
  Cu  Cu2  1  0.36822502  0.08389900  0.76856199  1
  Cr  Cr3  1  0.08389902  0.77931402  0.76856198  1
  N  N4  1  0.22068602  0.63177502  0.23143798  1
  N  N5  1  0.91610104  0.22068601  0.23143798  1
  S  S6  1  0.63177504  0.91610103  0.23143797  1
  S  S7  1  0.77931404  0.36822501  0.76856198  1
