# generated using pymatgen
data_K2Cu3S4
_symmetry_space_group_name_H-M   'P 1'
_cell_length_a   5.81026220
_cell_length_b   8.72099495
_cell_length_c   8.72099495
_cell_angle_alpha   71.39545441
_cell_angle_beta   70.54179382
_cell_angle_gamma   70.54179382
_symmetry_Int_Tables_number   1
_chemical_formula_structural   K2Cu3S4
_chemical_formula_sum   'K4 Cu6 S8'
_cell_volume   381.95571792
_cell_formula_units_Z   2
loop_
 _symmetry_equiv_pos_site_id
 _symmetry_equiv_pos_as_xyz
  1  'x, y, z'
loop_
 _atom_site_type_symbol
 _atom_site_label
 _atom_site_symmetry_multiplicity
 _atom_site_fract_x
 _atom_site_fract_y
 _atom_site_fract_z
 _atom_site_occupancy
  K  K0  1  0.26015402  0.62594699  0.37405301  1
  K  K1  1  0.73984598  0.37405300  0.62594703  1
  K  K2  1  0.23984699  0.12594600  0.87405301  1
  K  K3  1  0.76015301  0.87405399  0.12594703  1
  Cu  Cu4  1  0.25000000  0.25000000  0.25000001  1
  Cu  Cu5  1  0.75000000  0.74999999  0.75000003  1
  Cu  Cu6  1  0.74999999  0.46740700  0.03259303  1
  Cu  Cu7  1  0.74999996  0.03259300  0.46740703  1
  Cu  Cu8  1  0.25000002  0.53259300  0.96740701  1
  Cu  Cu9  1  0.25000004  0.96740699  0.53259301  1
  S  S10  1  0.41241502  0.72915599  0.99294702  1
  S  S11  1  0.86548201  0.99294699  0.72915603  1
  S  S12  1  0.08758502  0.50705300  0.77084401  1
  S  S13  1  0.63451801  0.77084399  0.50705303  1
  S  S14  1  0.58758498  0.27084400  0.00705302  1
  S  S15  1  0.13451799  0.00705300  0.27084401  1
  S  S16  1  0.91241498  0.49294700  0.22915603  1
  S  S17  1  0.36548199  0.22915600  0.49294702  1
