# generated using pymatgen
data_Ca2GaH5
_symmetry_space_group_name_H-M   'P 1'
_cell_length_a   5.58425856
_cell_length_b   5.58425856
_cell_length_c   5.58425856
_cell_angle_alpha   60.00000000
_cell_angle_beta   60.00000000
_cell_angle_gamma   60.00000000
_symmetry_Int_Tables_number   1
_chemical_formula_structural   Ca2GaH5
_chemical_formula_sum   'Ca2 Ga1 H5'
_cell_volume   123.13501202
_cell_formula_units_Z   1
loop_
 _symmetry_equiv_pos_site_id
 _symmetry_equiv_pos_as_xyz
  1  'x, y, z'
loop_
 _atom_site_type_symbol
 _atom_site_label
 _atom_site_symmetry_multiplicity
 _atom_site_fract_x
 _atom_site_fract_y
 _atom_site_fract_z
 _atom_site_occupancy
  Ca  Ca0  1  0.49999999  0.49999999  0.49999999  1
  Ca  Ca1  1  0.00000000  0.00000000  0.00000000  1
  Ga  Ga2  1  0.79288998  0.79288998  0.20710999  1
  H  H3  1  0.79288998  0.20710999  0.20710999  1
  H  H4  1  0.20710999  0.20710999  0.79288998  1
  H  H5  1  0.79288998  0.20710999  0.79288998  1
  H  H6  1  0.20710999  0.79288998  0.20710999  1
  H  H7  1  0.20710999  0.79288998  0.79288998  1
