# generated using pymatgen
data_Rb2BeBN4
_symmetry_space_group_name_H-M   'P 1'
_cell_length_a   5.69871759
_cell_length_b   5.69871759
_cell_length_c   5.69871759
_cell_angle_alpha   60.00000000
_cell_angle_beta   60.00000000
_cell_angle_gamma   60.00000000
_symmetry_Int_Tables_number   1
_chemical_formula_structural   Rb2BeBN4
_chemical_formula_sum   'Rb2 Be1 B1 N4'
_cell_volume   130.86286042
_cell_formula_units_Z   1
loop_
 _symmetry_equiv_pos_site_id
 _symmetry_equiv_pos_as_xyz
  1  'x, y, z'
loop_
 _atom_site_type_symbol
 _atom_site_label
 _atom_site_symmetry_multiplicity
 _atom_site_fract_x
 _atom_site_fract_y
 _atom_site_fract_z
 _atom_site_occupancy
  Rb  Rb0  1  0.75000003  0.75000003  0.75000003  1
  Rb  Rb1  1  0.00000000  0.00000000  0.00000000  1
  Be  Be2  1  0.50000002  0.50000002  0.50000002  1
  B  B3  1  0.25000001  0.25000001  0.25000001  1
  N  N4  1  0.37500001  0.37500001  0.87500003  1
  N  N5  1  0.37500001  0.37500001  0.37500001  1
  N  N6  1  0.37500001  0.87500003  0.37500001  1
  N  N7  1  0.87500003  0.37500001  0.37500001  1
