# generated using pymatgen
data_KNaBeB5PH8
_symmetry_space_group_name_H-M   'P 1'
_cell_length_a   6.86533594
_cell_length_b   6.89184761
_cell_length_c   6.89184761
_cell_angle_alpha   85.43724823
_cell_angle_beta   89.17140961
_cell_angle_gamma   90.82859039
_symmetry_Int_Tables_number   1
_chemical_formula_structural   KNaBeB5PH8
_chemical_formula_sum   'K1 Na1 Be1 B5 P1 H8'
_cell_volume   324.97943760
_cell_formula_units_Z   1
loop_
 _symmetry_equiv_pos_site_id
 _symmetry_equiv_pos_as_xyz
  1  'x, y, z'
loop_
 _atom_site_type_symbol
 _atom_site_label
 _atom_site_symmetry_multiplicity
 _atom_site_fract_x
 _atom_site_fract_y
 _atom_site_fract_z
 _atom_site_occupancy
  K  K0  1  0.40927402  0.47849799  0.52150201  1
  Na  Na1  1  0.48783500  0.00821800  0.99178197  1
  B  B2  1  0.02031804  0.97724198  0.49354506  1
  Be  Be3  1  0.02031802  0.50645499  0.02275803  1
  H  H4  1  0.93489001  0.04847500  0.95152496  1
  B  B5  1  0.57880000  0.06356400  0.16278298  1
  B  B6  1  0.57880004  0.83721699  0.93643602  1
  P  P7  1  0.51900601  0.15876600  0.84123398  1
  H  H8  1  0.28591604  0.97238298  0.02761705  1
  H  H9  1  0.12415600  0.10169800  0.61761699  1
  H  H10  1  0.12225403  0.80684799  0.47682204  1
  H  H11  1  0.00181400  0.08196500  0.30763100  1
  B  B12  1  0.83418104  0.94126898  0.58052802  1
  H  H13  1  0.12225402  0.52317799  0.19315203  1
  H  H14  1  0.12415602  0.38238299  0.89830201  1
  H  H15  1  0.00181403  0.69236899  0.91803503  1
  B  B16  1  0.83418102  0.41947199  0.05873099  1
