# generated using pymatgen
data_SrCu3O4
_symmetry_space_group_name_H-M   'P 1'
_cell_length_a   3.13061810
_cell_length_b   5.72708321
_cell_length_c   5.94205236
_cell_angle_alpha   90.00000000
_cell_angle_beta   105.27362823
_cell_angle_gamma   90.00000000
_symmetry_Int_Tables_number   1
_chemical_formula_structural   SrCu3O4
_chemical_formula_sum   'Sr1 Cu3 O4'
_cell_volume   102.77388642
_cell_formula_units_Z   1
loop_
 _symmetry_equiv_pos_site_id
 _symmetry_equiv_pos_as_xyz
  1  'x, y, z'
loop_
 _atom_site_type_symbol
 _atom_site_label
 _atom_site_symmetry_multiplicity
 _atom_site_fract_x
 _atom_site_fract_y
 _atom_site_fract_z
 _atom_site_occupancy
  Sr  Sr0  1  0.89359299  0.24999999  0.78718605  1
  Cu  Cu1  1  0.10640700  0.74999997  0.21281401  1
  Cu  Cu2  1  0.63042799  0.24999999  0.26085603  1
  Cu  Cu3  1  0.36957199  0.74999997  0.73914403  1
  O  O4  1  0.69798099  0.74999997  0.39596203  1
  O  O5  1  0.30201900  0.24999999  0.60403802  1
  O  O6  1  0.00000000  0.00000000  0.00000000  1
  O  O7  1  0.00000000  0.49999998  0.00000000  1
