# generated using pymatgen
data_Li3Cu5S4
_symmetry_space_group_name_H-M   'P 1'
_cell_length_a   6.07262516
_cell_length_b   6.07670879
_cell_length_c   6.96750593
_cell_angle_alpha   115.51248932
_cell_angle_beta   115.74433899
_cell_angle_gamma   90.22812653
_symmetry_Int_Tables_number   1
_chemical_formula_structural   Li3Cu5S4
_chemical_formula_sum   'Li3 Cu5 S4'
_cell_volume   203.15419883
_cell_formula_units_Z   1
loop_
 _symmetry_equiv_pos_site_id
 _symmetry_equiv_pos_as_xyz
  1  'x, y, z'
loop_
 _atom_site_type_symbol
 _atom_site_label
 _atom_site_symmetry_multiplicity
 _atom_site_fract_x
 _atom_site_fract_y
 _atom_site_fract_z
 _atom_site_occupancy
  Li  Li0  1  0.73380112  0.48518843  0.97209818  1
  Li  Li1  1  0.98663246  0.23443376  0.47385708  1
  Li  Li2  1  0.02214621  0.76716724  0.53412331  1
  Cu  Cu3  1  0.26317059  0.51660379  0.03447139  1
  Cu  Cu4  1  0.49433414  0.99645401  0.49697162  1
  Cu  Cu5  1  0.00593095  0.00185068  0.00306752  1
  Cu  Cu6  1  0.50145122  0.50919714  0.50422012  1
  Cu  Cu7  1  0.50732019  0.99849308  0.00208475  1
  S  S8  1  0.89980497  0.60486575  0.75343069  1
  S  S9  1  0.35460844  0.15011214  0.75426722  1
  S  S10  1  0.10207590  0.39981195  0.25401761  1
  S  S11  1  0.65004448  0.84932782  0.25296652  1
