# generated using pymatgen
data_Li2SmGd(TeO6)2
_symmetry_space_group_name_H-M   'P 1'
_cell_length_a   4.97794724
_cell_length_b   4.97794724
_cell_length_c   10.05393791
_cell_angle_alpha   90.00000000
_cell_angle_beta   90.00000000
_cell_angle_gamma   90.00000000
_symmetry_Int_Tables_number   1
_chemical_formula_structural   Li2SmGd(TeO6)2
_chemical_formula_sum   'Li2 Sm1 Gd1 Te2 O12'
_cell_volume   249.13616599
_cell_formula_units_Z   1
loop_
 _symmetry_equiv_pos_site_id
 _symmetry_equiv_pos_as_xyz
  1  'x, y, z'
loop_
 _atom_site_type_symbol
 _atom_site_label
 _atom_site_symmetry_multiplicity
 _atom_site_fract_x
 _atom_site_fract_y
 _atom_site_fract_z
 _atom_site_occupancy
  Li  Li0  1  0.49999998  0.49999998  0.33451100  1
  Li  Li1  1  0.49999998  0.49999998  0.66548901  1
  Sm  Sm2  1  0.00000000  0.00000000  0.16548900  1
  Gd  Gd3  1  0.00000000  0.00000000  0.83451101  1
  Te  Te4  1  0.49999998  0.49999998  0.00000000  1
  Te  Te5  1  0.00000000  0.00000000  0.50000000  1
  O  O6  1  0.68351897  0.68351897  0.14651100  1
  O  O7  1  0.68351897  0.68351897  0.85348901  1
  O  O8  1  0.72130097  0.72130097  0.50000000  1
  O  O9  1  0.77869896  0.22130099  0.00000000  1
  O  O10  1  0.81648096  0.18351899  0.35348900  1
  O  O11  1  0.81648096  0.18351899  0.64651101  1
  O  O12  1  0.18351899  0.81648096  0.35348900  1
  O  O13  1  0.18351899  0.81648096  0.64651101  1
  O  O14  1  0.22130099  0.77869896  0.00000000  1
  O  O15  1  0.27869899  0.27869899  0.50000000  1
  O  O16  1  0.31648099  0.31648099  0.14651100  1
  O  O17  1  0.31648099  0.31648099  0.85348901  1
