# generated using pymatgen
data_ThN2
_symmetry_space_group_name_H-M   'P 1'
_cell_length_a   3.79583406
_cell_length_b   3.79583406
_cell_length_c   6.69441605
_cell_angle_alpha   90.00000000
_cell_angle_beta   90.00000000
_cell_angle_gamma   90.00000000
_symmetry_Int_Tables_number   1
_chemical_formula_structural   ThN2
_chemical_formula_sum   'Th2 N4'
_cell_volume   96.45553125
_cell_formula_units_Z   2
loop_
 _symmetry_equiv_pos_site_id
 _symmetry_equiv_pos_as_xyz
  1  'x, y, z'
loop_
 _atom_site_type_symbol
 _atom_site_label
 _atom_site_symmetry_multiplicity
 _atom_site_fract_x
 _atom_site_fract_y
 _atom_site_fract_z
 _atom_site_occupancy
  Th  Th0  1  -0.00000000  0.49999999  0.80488499  1
  Th  Th1  1  0.49999999  0.00000000  0.19511500  1
  N  N2  1  0.00000000  0.00000000  0.00000000  1
  N  N3  1  0.49999999  0.49999999  0.00000000  1
  N  N4  1  -0.00000000  0.49999999  0.34668300  1
  N  N5  1  0.49999999  0.00000000  0.65331700  1
