# generated using pymatgen
data_Li2TiCoO8
_symmetry_space_group_name_H-M   'P 1'
_cell_length_a   5.11541700
_cell_length_b   5.17223835
_cell_length_c   5.18788147
_cell_angle_alpha   92.27351379
_cell_angle_beta   103.29759979
_cell_angle_gamma   90.42189026
_symmetry_Int_Tables_number   1
_chemical_formula_structural   Li2TiCoO8
_chemical_formula_sum   'Li2 Ti1 Co1 O8'
_cell_volume   133.45724680
_cell_formula_units_Z   1
loop_
 _symmetry_equiv_pos_site_id
 _symmetry_equiv_pos_as_xyz
  1  'x, y, z'
loop_
 _atom_site_type_symbol
 _atom_site_label
 _atom_site_symmetry_multiplicity
 _atom_site_fract_x
 _atom_site_fract_y
 _atom_site_fract_z
 _atom_site_occupancy
  Li  Li0  1  0.18000598  0.49909099  0.74205599  1
  Li  Li1  1  0.81999399  0.50090899  0.25794402  1
  Ti  Ti2  1  0.69560096  0.94962297  0.78998300  1
  Co  Co3  1  0.30439900  0.05037700  0.21001701  1
  O  O4  1  0.33159096  0.85588898  0.54709099  1
  O  O5  1  0.98886697  0.79412598  0.09102002  1
  O  O6  1  0.48922597  0.75896498  0.02942700  1
  O  O7  1  0.82989298  0.66191798  0.60134002  1
  O  O8  1  0.17010699  0.33808199  0.39866000  1
  O  O9  1  0.51077399  0.24103499  0.97057301  1
  O  O10  1  0.01113299  0.20587399  0.90897999  1
  O  O11  1  0.66840900  0.14411100  0.45290903  1
