# generated using pymatgen
data_Cu2S3
_symmetry_space_group_name_H-M   'P 1'
_cell_length_a   5.34101629
_cell_length_b   5.34101629
_cell_length_c   5.92377520
_cell_angle_alpha   63.20421219
_cell_angle_beta   63.20421219
_cell_angle_gamma   59.99999619
_symmetry_Int_Tables_number   1
_chemical_formula_structural   Cu2S3
_chemical_formula_sum   'Cu4 S6'
_cell_volume   124.95342047
_cell_formula_units_Z   2
loop_
 _symmetry_equiv_pos_site_id
 _symmetry_equiv_pos_as_xyz
  1  'x, y, z'
loop_
 _atom_site_type_symbol
 _atom_site_label
 _atom_site_symmetry_multiplicity
 _atom_site_fract_x
 _atom_site_fract_y
 _atom_site_fract_z
 _atom_site_occupancy
  Cu  Cu0  1  0.63667898  0.63667900  0.08996297  1
  Cu  Cu1  1  0.36332099  0.36332100  0.91003697  1
  Cu  Cu2  1  0.85079298  0.85079300  0.44762095  1
  Cu  Cu3  1  0.14920700  0.14920700  0.55237898  1
  S  S4  1  0.56523799  0.18620100  0.27519298  1
  S  S5  1  0.18620098  0.97336800  0.27519297  1
  S  S6  1  0.02663199  0.43476200  0.72480698  1
  S  S7  1  0.97336798  0.56523800  0.27519296  1
  S  S8  1  0.81379899  0.02663200  0.72480697  1
  S  S9  1  0.43476198  0.81379900  0.72480696  1
