# generated using pymatgen
data_KNaLiCuBr6
_symmetry_space_group_name_H-M   'P 1'
_cell_length_a   7.23403454
_cell_length_b   7.23403454
_cell_length_c   7.23403454
_cell_angle_alpha   60.00000000
_cell_angle_beta   60.00000000
_cell_angle_gamma   60.00000000
_symmetry_Int_Tables_number   1
_chemical_formula_structural   KNaLiCuBr6
_chemical_formula_sum   'K1 Na1 Li1 Cu1 Br6'
_cell_volume   267.68666434
_cell_formula_units_Z   1
loop_
 _symmetry_equiv_pos_site_id
 _symmetry_equiv_pos_as_xyz
  1  'x, y, z'
loop_
 _atom_site_type_symbol
 _atom_site_label
 _atom_site_symmetry_multiplicity
 _atom_site_fract_x
 _atom_site_fract_y
 _atom_site_fract_z
 _atom_site_occupancy
  Na  Na0  1  0.25000001  0.25000001  0.25000001  1
  K  K1  1  0.75000002  0.75000002  0.75000002  1
  Li  Li2  1  0.50000001  0.50000001  0.50000001  1
  Cu  Cu3  1  0.00000000  0.00000000  0.00000000  1
  Br  Br4  1  0.24820401  0.75179602  0.24820401  1
  Br  Br5  1  0.24820301  0.24820501  0.75179602  1
  Br  Br6  1  0.75179402  0.24820501  0.75179602  1
  Br  Br7  1  0.24820401  0.75179602  0.75179602  1
  Br  Br8  1  0.75179602  0.24820401  0.24820401  1
  Br  Br9  1  0.75179602  0.75179602  0.24820401  1
