# generated using pymatgen
data_BaTl2SnSe4
_symmetry_space_group_name_H-M   'P 1'
_cell_length_a   6.93463993
_cell_length_b   7.03803587
_cell_length_c   7.03803587
_cell_angle_alpha   75.95355225
_cell_angle_beta   60.48479462
_cell_angle_gamma   60.48479462
_symmetry_Int_Tables_number   1
_chemical_formula_structural   BaTl2SnSe4
_chemical_formula_sum   'Ba1 Tl2 Sn1 Se4'
_cell_volume   260.12971376
_cell_formula_units_Z   1
loop_
 _symmetry_equiv_pos_site_id
 _symmetry_equiv_pos_as_xyz
  1  'x, y, z'
loop_
 _atom_site_type_symbol
 _atom_site_label
 _atom_site_symmetry_multiplicity
 _atom_site_fract_x
 _atom_site_fract_y
 _atom_site_fract_z
 _atom_site_occupancy
  Tl  Tl0  1  0.25000001  0.00000000  -0.00000001  1
  Ba  Ba1  1  0.75000002  0.00000000  -0.00000002  1
  Tl  Tl2  1  0.74999998  0.50000000  0.50000002  1
  Sn  Sn3  1  0.24999997  0.50000000  0.50000003  1
  Se  Se4  1  0.83251296  0.83497500  0.50000004  1
  Se  Se5  1  0.16748699  0.16502500  0.50000000  1
  Se  Se6  1  0.66748798  0.50000000  0.16502402  1
  Se  Se7  1  0.33251197  0.50000000  0.83497602  1
