# generated using pymatgen
data_Li5VO8
_symmetry_space_group_name_H-M   'P 1'
_cell_length_a   5.78611422
_cell_length_b   5.98928833
_cell_length_c   5.92559385
_cell_angle_alpha   119.64882660
_cell_angle_beta   90.00000000
_cell_angle_gamma   118.88404083
_symmetry_Int_Tables_number   1
_chemical_formula_structural   Li5VO8
_chemical_formula_sum   'Li5 V1 O8'
_cell_volume   148.35900324
_cell_formula_units_Z   1
loop_
 _symmetry_equiv_pos_site_id
 _symmetry_equiv_pos_as_xyz
  1  'x, y, z'
loop_
 _atom_site_type_symbol
 _atom_site_label
 _atom_site_symmetry_multiplicity
 _atom_site_fract_x
 _atom_site_fract_y
 _atom_site_fract_z
 _atom_site_occupancy
  Li  Li0  1  -0.00000001  0.50000000  0.50000002  1
  Li  Li1  1  0.49999998  0.50000000  0.00000001  1
  Li  Li2  1  0.99999996  0.50000000  0.00000001  1
  Li  Li3  1  0.99999995  1.00000000  0.50000003  1
  Li  Li4  1  0.49999998  0.50000000  0.50000002  1
  V  V5  1  0.00000000  0.00000000  0.00000000  1
  O  O6  1  0.76612297  0.53224600  0.76612303  1
  O  O7  1  0.77076797  0.00000100  0.23839501  1
  O  O8  1  0.22923198  0.99999900  0.76160503  1
  O  O9  1  0.23387699  0.46775400  0.23387701  1
  O  O10  1  0.77076697  0.00000000  0.76160602  1
  O  O11  1  0.77094596  0.54189200  0.27094601  1
  O  O12  1  0.22905399  0.45810800  0.72905402  1
  O  O13  1  0.22923299  0.00000000  0.23839401  1
