# generated using pymatgen
data_Sr3(GeO4)2
_symmetry_space_group_name_H-M   'P 1'
_cell_length_a   5.90020800
_cell_length_b   5.90020800
_cell_length_c   7.96305084
_cell_angle_alpha   68.25513458
_cell_angle_beta   68.25513458
_cell_angle_gamma   60.00000000
_symmetry_Int_Tables_number   1
_chemical_formula_structural   Sr3(GeO4)2
_chemical_formula_sum   'Sr3 Ge2 O8'
_cell_volume   216.99782988
_cell_formula_units_Z   1
loop_
 _symmetry_equiv_pos_site_id
 _symmetry_equiv_pos_as_xyz
  1  'x, y, z'
loop_
 _atom_site_type_symbol
 _atom_site_label
 _atom_site_symmetry_multiplicity
 _atom_site_fract_x
 _atom_site_fract_y
 _atom_site_fract_z
 _atom_site_occupancy
  Sr  Sr0  1  0.20526902  0.20526900  0.38419299  1
  Sr  Sr1  1  0.79473106  0.79473101  0.61580695  1
  Sr  Sr2  1  0.00000000  0.00000000  0.00000000  1
  Ge  Ge3  1  0.59269505  0.59269501  0.22191496  1
  Ge  Ge4  1  0.40730503  0.40730501  0.77808497  1
  O  O5  1  0.67278705  0.67278701  0.98163896  1
  O  O6  1  0.32721303  0.32721300  0.01836098  1
  O  O7  1  0.24276404  0.72705301  0.30312997  1
  O  O8  1  0.72705306  0.72705301  0.30312995  1
  O  O9  1  0.72705304  0.24276400  0.30312997  1
  O  O10  1  0.75723604  0.27294700  0.69686997  1
  O  O11  1  0.27294704  0.75723601  0.69686996  1
  O  O12  1  0.27294702  0.27294700  0.69686998  1
