# generated using pymatgen
data_SrUO3
_symmetry_space_group_name_H-M   'P 1'
_cell_length_a   5.97503519
_cell_length_b   5.97503519
_cell_length_c   5.97503519
_cell_angle_alpha   60.00000000
_cell_angle_beta   60.00000000
_cell_angle_gamma   60.00000000
_symmetry_Int_Tables_number   1
_chemical_formula_structural   SrUO3
_chemical_formula_sum   'Sr2 U2 O6'
_cell_volume   150.83648541
_cell_formula_units_Z   2
loop_
 _symmetry_equiv_pos_site_id
 _symmetry_equiv_pos_as_xyz
  1  'x, y, z'
loop_
 _atom_site_type_symbol
 _atom_site_label
 _atom_site_symmetry_multiplicity
 _atom_site_fract_x
 _atom_site_fract_y
 _atom_site_fract_z
 _atom_site_occupancy
  Sr  Sr0  1  0.25000000  0.25000000  0.25000000  1
  Sr  Sr1  1  0.74999999  0.74999999  0.74999999  1
  U  U2  1  0.50000000  0.50000000  0.50000000  1
  U  U3  1  0.00000000  0.00000000  0.00000000  1
  O  O4  1  0.25118262  0.74881737  0.25118262  1
  O  O5  1  0.74881737  0.25118262  0.74881737  1
  O  O6  1  0.74881737  0.25118262  0.25118262  1
  O  O7  1  0.25118262  0.74881737  0.74881737  1
  O  O8  1  0.74881737  0.74881737  0.25118262  1
  O  O9  1  0.25118262  0.25118262  0.74881737  1
