# generated using pymatgen
data_In2GaP5Se12
_symmetry_space_group_name_H-M   'P 1'
_cell_length_a   6.64295197
_cell_length_b   7.70283985
_cell_length_c   9.60378361
_cell_angle_alpha   90.00000000
_cell_angle_beta   93.38807678
_cell_angle_gamma   90.00000000
_symmetry_Int_Tables_number   1
_chemical_formula_structural   In2GaP5Se12
_chemical_formula_sum   'In2 Ga1 P5 Se12'
_cell_volume   490.56278644
_cell_formula_units_Z   1
loop_
 _symmetry_equiv_pos_site_id
 _symmetry_equiv_pos_as_xyz
  1  'x, y, z'
loop_
 _atom_site_type_symbol
 _atom_site_label
 _atom_site_symmetry_multiplicity
 _atom_site_fract_x
 _atom_site_fract_y
 _atom_site_fract_z
 _atom_site_occupancy
  In  In0  1  0.30271600  0.53480801  0.49272201  1
  In  In1  1  0.69728400  0.03480800  0.50727800  1
  Ga  Ga2  1  0.18767900  0.25235600  0.01619399  1
  P  P3  1  0.81232100  0.75235601  0.98380602  1
  P  P4  1  0.31013700  0.83546602  0.18131800  1
  P  P5  1  0.19425100  0.05097200  0.31416501  1
  P  P6  1  0.80574900  0.55097201  0.68583500  1
  P  P7  1  0.68986300  0.33546601  0.81868201  1
  Se  Se8  1  0.34230200  0.94990302  0.98650103  1
  Se  Se9  1  0.94512000  0.12844000  0.18847498  1
  Se  Se10  1  0.13467200  0.95187902  0.49630002  1
  Se  Se11  1  0.86532800  0.45187901  0.50369999  1
  Se  Se12  1  0.40766000  0.23709900  0.29999000  1
  Se  Se13  1  0.05488000  0.62844001  0.81152503  1
  Se  Se14  1  0.09118800  0.64394501  0.17302800  1
  Se  Se15  1  0.56788000  0.74183401  0.26913299  1
  Se  Se16  1  0.90881200  0.14394500  0.82697201  1
  Se  Se17  1  0.43212000  0.24183400  0.73086702  1
  Se  Se18  1  0.65769800  0.44990301  0.01349898  1
  Se  Se19  1  0.59234000  0.73709901  0.70001001  1
