# generated using pymatgen
data_Na2Ag3O8
_symmetry_space_group_name_H-M   'P 1'
_cell_length_a   4.96265602
_cell_length_b   6.28155613
_cell_length_c   6.28155613
_cell_angle_alpha   120.00000000
_cell_angle_beta   90.00000000
_cell_angle_gamma   90.00000000
_symmetry_Int_Tables_number   1
_chemical_formula_structural   Na2Ag3O8
_chemical_formula_sum   'Na2 Ag3 O8'
_cell_volume   169.58182124
_cell_formula_units_Z   1
loop_
 _symmetry_equiv_pos_site_id
 _symmetry_equiv_pos_as_xyz
  1  'x, y, z'
loop_
 _atom_site_type_symbol
 _atom_site_label
 _atom_site_symmetry_multiplicity
 _atom_site_fract_x
 _atom_site_fract_y
 _atom_site_fract_z
 _atom_site_occupancy
  Na  Na0  1  0.31630500  0.00000000  0.00000000  1
  Na  Na1  1  0.25199200  0.33333333  0.66666664  1
  Ag  Ag2  1  0.75244600  0.83064998  0.16934999  1
  Ag  Ag3  1  0.75244600  0.33869999  0.16934999  1
  Ag  Ag4  1  0.75244600  0.83064998  0.66129997  1
  O  O5  1  0.95937300  0.00000000  0.00000000  1
  O  O6  1  0.95827500  0.99202498  0.49601198  1
  O  O7  1  0.95827500  0.50398699  0.49601198  1
  O  O8  1  0.95827500  0.50398699  0.00797400  1
  O  O9  1  0.53527500  0.66666665  0.33333332  1
  O  O10  1  0.51763000  0.69493098  0.84746497  1
  O  O11  1  0.51763000  0.15253400  0.84746497  1
  O  O12  1  0.51763000  0.15253400  0.30506799  1
