# generated using pymatgen
data_Sr5PbClO10
_symmetry_space_group_name_H-M   'P 1'
_cell_length_a   4.32393122
_cell_length_b   4.33481407
_cell_length_c   17.25612831
_cell_angle_alpha   84.65213776
_cell_angle_beta   83.77876282
_cell_angle_gamma   60.31093979
_symmetry_Int_Tables_number   1
_chemical_formula_structural   Sr5PbClO10
_chemical_formula_sum   'Sr5 Pb1 Cl1 O10'
_cell_volume   279.03257031
_cell_formula_units_Z   1
loop_
 _symmetry_equiv_pos_site_id
 _symmetry_equiv_pos_as_xyz
  1  'x, y, z'
loop_
 _atom_site_type_symbol
 _atom_site_label
 _atom_site_symmetry_multiplicity
 _atom_site_fract_x
 _atom_site_fract_y
 _atom_site_fract_z
 _atom_site_occupancy
  Sr  Sr0  1  0.29722198  0.09925300  0.38766099  1
  Sr  Sr1  1  0.72577693  0.66077398  0.17842300  1
  Sr  Sr2  1  0.02351800  0.04297500  0.99119096  1
  Sr  Sr3  1  0.41636196  0.47113099  0.79234097  1
  Sr  Sr4  1  0.80286092  0.84339997  0.59238998  1
  Pb  Pb5  1  0.33612196  0.45370499  0.93435996  1
  Cl  Cl6  1  0.06826799  0.12395700  0.83970296  1
  O  O7  1  0.15106299  0.13736700  0.53056498  1
  O  O8  1  0.77188593  0.81341697  0.74264398  1
  O  O9  1  0.49347595  0.49660898  0.38264199  1
  O  O10  1  0.45308896  0.47425798  0.63353498  1
  O  O11  1  0.87045495  0.09226300  0.14537200  1
  O  O12  1  0.80118592  0.82939697  0.44922799  1
  O  O13  1  0.76224492  0.87863797  0.29992600  1
  O  O14  1  0.14814498  0.24782299  0.25338499  1
  O  O15  1  0.21308897  0.46577599  0.10805400  1
  O  O16  1  0.62123694  0.76925698  0.03858201  1
