# generated using pymatgen
data_Rb3MgP2(Cl5O)2
_symmetry_space_group_name_H-M   'P 1'
_cell_length_a   6.20662498
_cell_length_b   8.39819813
_cell_length_c   8.39819813
_cell_angle_alpha   90.00000000
_cell_angle_beta   90.00000000
_cell_angle_gamma   90.00000000
_symmetry_Int_Tables_number   1
_chemical_formula_structural   Rb3MgP2(Cl5O)2
_chemical_formula_sum   'Rb3 Mg1 P2 Cl10 O2'
_cell_volume   437.75159551
_cell_formula_units_Z   1
loop_
 _symmetry_equiv_pos_site_id
 _symmetry_equiv_pos_as_xyz
  1  'x, y, z'
loop_
 _atom_site_type_symbol
 _atom_site_label
 _atom_site_symmetry_multiplicity
 _atom_site_fract_x
 _atom_site_fract_y
 _atom_site_fract_z
 _atom_site_occupancy
  Rb  Rb0  1  1.00000000  0.49999999  0.49999999  1
  Rb  Rb1  1  0.00000000  0.00000000  0.00000000  1
  Rb  Rb2  1  0.50000000  0.18648800  0.68648799  1
  Mg  Mg3  1  0.50000000  0.81351199  0.31351200  1
  P  P4  1  0.50000000  0.68648799  0.81351199  1
  P  P5  1  0.50000000  0.31351200  0.18648800  1
  Cl  Cl6  1  0.50000000  0.49999999  0.49999999  1
  Cl  Cl7  1  0.50000000  0.00000000  0.00000000  1
  Cl  Cl8  1  0.81008800  0.59871199  0.09871200  1
  Cl  Cl9  1  0.81008800  0.40128799  0.90128799  1
  Cl  Cl10  1  0.81008800  0.09871200  0.40128799  1
  Cl  Cl11  1  0.81008800  0.90128799  0.59871199  1
  Cl  Cl12  1  0.18991200  0.40128799  0.90128799  1
  Cl  Cl13  1  0.18991200  0.59871199  0.09871200  1
  Cl  Cl14  1  0.18991200  0.90128799  0.59871199  1
  Cl  Cl15  1  0.18991200  0.09871200  0.40128799  1
  O  O16  1  1.00000000  0.49999999  0.00000000  1
  O  O17  1  1.00000000  0.00000000  0.49999999  1
