# generated using pymatgen
data_KBe3N4
_symmetry_space_group_name_H-M   'P 1'
_cell_length_a   5.59664440
_cell_length_b   5.59664440
_cell_length_c   5.59664440
_cell_angle_alpha   97.97737122
_cell_angle_beta   115.50621033
_cell_angle_gamma   115.50621033
_symmetry_Int_Tables_number   1
_chemical_formula_structural   KBe3N4
_chemical_formula_sum   'K1 Be3 N4'
_cell_volume   130.99820534
_cell_formula_units_Z   1
loop_
 _symmetry_equiv_pos_site_id
 _symmetry_equiv_pos_as_xyz
  1  'x, y, z'
loop_
 _atom_site_type_symbol
 _atom_site_label
 _atom_site_symmetry_multiplicity
 _atom_site_fract_x
 _atom_site_fract_y
 _atom_site_fract_z
 _atom_site_occupancy
  K  K0  1  -0.00000014  0.74999992  0.74999989  1
  Be  Be1  1  0.99999992  0.24999997  0.24999989  1
  Be  Be2  1  0.49999989  0.49999995  -0.00000010  1
  Be  Be3  1  0.49999998  0.00000000  0.49999996  1
  N  N4  1  0.77289486  0.63644793  0.13644786  1
  N  N5  1  0.49999996  0.13644699  0.36355294  1
  N  N6  1  0.22710493  0.36355196  0.86355193  1
  N  N7  1  0.49999982  0.86355291  0.63644684  1
