# generated using pymatgen
data_LiVO3
_symmetry_space_group_name_H-M   'P 1'
_cell_length_a   5.27044964
_cell_length_b   5.27044964
_cell_length_c   5.54064512
_cell_angle_alpha   90.00000000
_cell_angle_beta   90.00000000
_cell_angle_gamma   119.62297821
_symmetry_Int_Tables_number   1
_chemical_formula_structural   LiVO3
_chemical_formula_sum   'Li2 V2 O6'
_cell_volume   133.79002483
_cell_formula_units_Z   2
loop_
 _symmetry_equiv_pos_site_id
 _symmetry_equiv_pos_as_xyz
  1  'x, y, z'
loop_
 _atom_site_type_symbol
 _atom_site_label
 _atom_site_symmetry_multiplicity
 _atom_site_fract_x
 _atom_site_fract_y
 _atom_site_fract_z
 _atom_site_occupancy
  Li  Li0  1  0.00000000  0.00000000  0.33333333  1
  Li  Li1  1  0.49999998  0.50000000  0.33333333  1
  V  V2  1  0.49999999  0.00000000  0.00068300  1
  V  V3  1  -0.00000001  0.50000000  0.66598399  1
  O  O4  1  0.22721897  0.77277999  0.83333298  1
  O  O5  1  0.17640399  0.38460700  0.49861499  1
  O  O6  1  0.61539296  0.82359599  0.16805200  1
  O  O7  1  0.77278098  0.22722000  0.83333298  1
  O  O8  1  0.82359597  0.61539300  0.49861499  1
  O  O9  1  0.38460699  0.17640400  0.16805200  1
