# generated using pymatgen
data_AgF
_symmetry_space_group_name_H-M   'P 1'
_cell_length_a   3.90025306
_cell_length_b   3.90025306
_cell_length_c   8.95771122
_cell_angle_alpha   90.00000000
_cell_angle_beta   90.00000000
_cell_angle_gamma   90.00000000
_symmetry_Int_Tables_number   1
_chemical_formula_structural   AgF
_chemical_formula_sum   'Ag4 F4'
_cell_volume   136.26446939
_cell_formula_units_Z   4
loop_
 _symmetry_equiv_pos_site_id
 _symmetry_equiv_pos_as_xyz
  1  'x, y, z'
loop_
 _atom_site_type_symbol
 _atom_site_label
 _atom_site_symmetry_multiplicity
 _atom_site_fract_x
 _atom_site_fract_y
 _atom_site_fract_z
 _atom_site_occupancy
  Ag  Ag0  1  0.00000000  0.00000000  0.00000000  1
  Ag  Ag1  1  0.49999999  0.49999999  0.29459599  1
  Ag  Ag2  1  0.49999999  0.49999999  0.70540398  1
  Ag  Ag3  1  0.00000000  0.00000000  0.49999999  1
  F  F4  1  -0.00000000  0.49999999  0.15265500  1
  F  F5  1  -0.00000000  0.49999999  0.84734498  1
  F  F6  1  0.49999999  0.00000000  0.15265500  1
  F  F7  1  0.49999999  0.00000000  0.84734498  1
