# generated using pymatgen
data_In2Ga2TeSe5
_symmetry_space_group_name_H-M   'P 1'
_cell_length_a   6.54818201
_cell_length_b   7.74615192
_cell_length_c   12.73744106
_cell_angle_alpha   90.00000000
_cell_angle_beta   90.00000000
_cell_angle_gamma   107.59455872
_symmetry_Int_Tables_number   1
_chemical_formula_structural   In2Ga2TeSe5
_chemical_formula_sum   'In4 Ga4 Te2 Se10'
_cell_volume   615.85972453
_cell_formula_units_Z   2
loop_
 _symmetry_equiv_pos_site_id
 _symmetry_equiv_pos_as_xyz
  1  'x, y, z'
loop_
 _atom_site_type_symbol
 _atom_site_label
 _atom_site_symmetry_multiplicity
 _atom_site_fract_x
 _atom_site_fract_y
 _atom_site_fract_z
 _atom_site_occupancy
  In  In0  1  0.28093299  0.25277300  0.91706000  1
  In  In1  1  0.78093299  0.25277300  0.58294000  1
  In  In2  1  0.21906698  0.74722699  0.41706000  1
  In  In3  1  0.71906698  0.74722699  0.08294000  1
  Ga  Ga4  1  0.35657198  0.80963799  0.77079200  1
  Ga  Ga5  1  0.14342800  0.19036200  0.27079200  1
  Ga  Ga6  1  0.85657198  0.80963799  0.72920800  1
  Ga  Ga7  1  0.64342799  0.19036200  0.22920800  1
  Te  Te8  1  0.81200800  0.02023900  0.32375500  1
  Te  Te9  1  0.31200800  0.02023900  0.17624500  1
  Se  Se10  1  0.36934999  0.56001399  0.67238500  1
  Se  Se11  1  0.64439498  0.69213999  0.58555000  1
  Se  Se12  1  0.35560499  0.30785999  0.41445000  1
  Se  Se13  1  0.14439498  0.69213999  0.91445000  1
  Se  Se14  1  0.86934999  0.56001399  0.82761500  1
  Se  Se15  1  0.13064999  0.43998599  0.17238500  1
  Se  Se16  1  0.68799198  0.97976098  0.82375500  1
  Se  Se17  1  0.18799198  0.97976098  0.67624500  1
  Se  Se18  1  0.63064999  0.43998599  0.32761500  1
  Se  Se19  1  0.85560499  0.30785999  0.08555000  1
