# generated using pymatgen
data_Mg5Ge(CO6)2
_symmetry_space_group_name_H-M   'P 1'
_cell_length_a   3.14100409
_cell_length_b   8.89948177
_cell_length_c   8.89948273
_cell_angle_alpha   120.00000000
_cell_angle_beta   90.00000000
_cell_angle_gamma   90.00000000
_symmetry_Int_Tables_number   1
_chemical_formula_structural   Mg5Ge(CO6)2
_chemical_formula_sum   'Mg5 Ge1 C2 O12'
_cell_volume   215.44112856
_cell_formula_units_Z   1
loop_
 _symmetry_equiv_pos_site_id
 _symmetry_equiv_pos_as_xyz
  1  'x, y, z'
loop_
 _atom_site_type_symbol
 _atom_site_label
 _atom_site_symmetry_multiplicity
 _atom_site_fract_x
 _atom_site_fract_y
 _atom_site_fract_z
 _atom_site_occupancy
  Mg  Mg0  1  0.74999998  0.63313403  0.66306400  1
  Mg  Mg1  1  0.24999999  0.97007004  0.63313401  1
  Mg  Mg2  1  0.24999999  0.36686602  0.33693600  1
  Mg  Mg3  1  0.74999998  0.33693601  0.97006998  1
  Mg  Mg4  1  0.74999998  0.02993000  0.36686599  1
  Ge  Ge5  1  0.24999999  0.66306403  0.02993002  1
  C  C6  1  0.74999998  0.66666669  0.33333334  1
  C  C7  1  0.24999999  0.33333335  0.66666666  1
  O  O8  1  0.74999998  0.55082902  0.39602501  1
  O  O9  1  0.24999999  0.15480401  0.55082899  1
  O  O10  1  0.74999998  0.60397503  0.15480401  1
  O  O11  1  0.24999999  0.39602502  0.84519599  1
  O  O12  1  0.24999999  0.44917102  0.60397500  1
  O  O13  1  0.74999998  0.84519604  0.44917101  1
  O  O14  1  0.24999999  0.29930601  0.08918701  1
  O  O15  1  0.24999999  0.78988103  0.70069400  1
  O  O16  1  0.74999998  0.70069403  0.91081299  1
  O  O17  1  0.74999998  0.08918700  0.78988098  1
  O  O18  1  0.74999998  0.21011901  0.29930600  1
  O  O19  1  0.24999999  0.91081304  0.21011902  1
