# generated using pymatgen
data_Ho2ErCu2B3O10
_symmetry_space_group_name_H-M   'P 1'
_cell_length_a   3.52274704
_cell_length_b   6.46814871
_cell_length_c   10.07804108
_cell_angle_alpha   105.80392456
_cell_angle_beta   91.32190704
_cell_angle_gamma   91.26789093
_symmetry_Int_Tables_number   1
_chemical_formula_structural   Ho2ErCu2B3O10
_chemical_formula_sum   'Ho2 Er1 Cu2 B3 O10'
_cell_volume   220.79922574
_cell_formula_units_Z   1
loop_
 _symmetry_equiv_pos_site_id
 _symmetry_equiv_pos_as_xyz
  1  'x, y, z'
loop_
 _atom_site_type_symbol
 _atom_site_label
 _atom_site_symmetry_multiplicity
 _atom_site_fract_x
 _atom_site_fract_y
 _atom_site_fract_z
 _atom_site_occupancy
  Cu  Cu0  1  0.75232600  0.22112900  0.87499502  1
  Ho  Ho1  1  0.24767404  0.77887098  0.12500499  1
  Er  Er2  1  0.77296302  0.65247399  0.40671800  1
  Ho  Ho3  1  0.22703702  0.34752599  0.59328201  1
  B  B4  1  0.67342100  0.12644900  0.31993001  1
  B  B5  1  0.32657904  0.87355098  0.68007000  1
  B  B6  1  0.67172403  0.67242299  0.84404701  1
  Cu  Cu7  1  0.32827601  0.32757699  0.15595300  1
  O  O8  1  0.46771400  0.15487000  0.20281501  1
  O  O9  1  0.53228604  0.84512998  0.79718500  1
  O  O10  1  0.26848203  0.70465398  0.56385300  1
  O  O11  1  0.73151801  0.29534599  0.43614701  1
  O  O12  1  0.20872400  0.07895300  0.69774102  1
  O  O13  1  0.79127604  0.92104698  0.30225899  1
  O  O14  1  0.26020601  0.28860699  0.01748100  1
  O  O15  1  0.73979403  0.71139298  0.98251901  1
  O  O16  1  0.27649102  0.52550399  0.24724400  1
  O  O17  1  0.72350902  0.47449599  0.75275601  1
