# generated using pymatgen
data_CsHgI3
_symmetry_space_group_name_H-M   'P 1'
_cell_length_a   4.79079008
_cell_length_b   10.57289219
_cell_length_c   17.63615036
_cell_angle_alpha   90.00000000
_cell_angle_beta   90.00000000
_cell_angle_gamma   90.00000000
_symmetry_Int_Tables_number   1
_chemical_formula_structural   CsHgI3
_chemical_formula_sum   'Cs4 Hg4 I12'
_cell_volume   893.31523004
_cell_formula_units_Z   4
loop_
 _symmetry_equiv_pos_site_id
 _symmetry_equiv_pos_as_xyz
  1  'x, y, z'
loop_
 _atom_site_type_symbol
 _atom_site_label
 _atom_site_symmetry_multiplicity
 _atom_site_fract_x
 _atom_site_fract_y
 _atom_site_fract_z
 _atom_site_occupancy
  Cs  Cs0  1  0.25000000  0.08444800  0.67222999  1
  Cs  Cs1  1  0.25000000  0.58444799  0.82776998  1
  Cs  Cs2  1  0.74999999  0.91555198  0.32776999  1
  Cs  Cs3  1  0.74999999  0.41555199  0.17223000  1
  Hg  Hg4  1  0.74999999  0.66220299  0.56015899  1
  Hg  Hg5  1  0.25000000  0.83779699  0.06015900  1
  Hg  Hg6  1  0.25000000  0.33779699  0.43984099  1
  Hg  Hg7  1  0.74999999  0.16220300  0.93984098  1
  I  I8  1  0.25000000  0.19973300  0.28874499  1
  I  I9  1  0.25000000  0.97635598  0.88474698  1
  I  I10  1  0.74999999  0.02364400  0.11525300  1
  I  I11  1  0.25000000  0.47635599  0.61525299  1
  I  I12  1  0.74999999  0.66276699  0.99590798  1
  I  I13  1  0.25000000  0.33723299  0.00409200  1
  I  I14  1  0.74999999  0.16276700  0.50409199  1
  I  I15  1  0.25000000  0.83723299  0.49590799  1
  I  I16  1  0.74999999  0.80026699  0.71125499  1
  I  I17  1  0.25000000  0.69973299  0.21125500  1
  I  I18  1  0.74999999  0.30026699  0.78874498  1
  I  I19  1  0.74999999  0.52364399  0.38474699  1
