# generated using pymatgen
data_Ba2SrUO4F
_symmetry_space_group_name_H-M   'P 1'
_cell_length_a   7.58721018
_cell_length_b   7.58720970
_cell_length_c   10.06009197
_cell_angle_alpha   90.00000000
_cell_angle_beta   90.00000000
_cell_angle_gamma   120.00000000
_symmetry_Int_Tables_number   1
_chemical_formula_structural   Ba2SrUO4F
_chemical_formula_sum   'Ba4 Sr2 U2 O8 F2'
_cell_volume   501.52984884
_cell_formula_units_Z   2
loop_
 _symmetry_equiv_pos_site_id
 _symmetry_equiv_pos_as_xyz
  1  'x, y, z'
loop_
 _atom_site_type_symbol
 _atom_site_label
 _atom_site_symmetry_multiplicity
 _atom_site_fract_x
 _atom_site_fract_y
 _atom_site_fract_z
 _atom_site_occupancy
  Ba  Ba0  1  0.50261097  0.49738897  0.75740900  1
  Sr  Sr1  1  0.00522198  0.50261097  0.25740900  1
  Ba  Ba2  1  0.99477795  0.49738897  0.75740900  1
  Ba  Ba3  1  0.49738894  0.99477795  0.25740900  1
  Ba  Ba4  1  0.49738897  0.50261097  0.25740900  1
  Sr  Sr5  1  0.50261099  0.00522200  0.75740900  1
  U  U6  1  0.00000000  0.00000000  0.26563300  1
  U  U7  1  0.00000000  0.00000000  0.76563300  1
  F  F8  1  0.29850299  0.14925099  0.14523600  1
  O  O9  1  0.33333329  0.66666663  0.38268500  1
  O  O10  1  0.14925198  0.29850398  0.64523600  1
  O  O11  1  0.85074797  0.14925099  0.14523600  1
  O  O12  1  0.70149694  0.85074896  0.64523600  1
  O  O13  1  0.14925196  0.85074896  0.64523600  1
  O  O14  1  0.85074795  0.70149596  0.14523600  1
  O  O15  1  0.66666664  0.33333332  0.88268500  1
  O  O16  1  0.33333329  0.66666663  0.96374400  1
  F  F17  1  0.66666664  0.33333332  0.46374400  1
