# generated using pymatgen
data_CsAcEuCl6
_symmetry_space_group_name_H-M   'P 1'
_cell_length_a   5.07947016
_cell_length_b   9.22999001
_cell_length_c   9.22998905
_cell_angle_alpha   120.00000000
_cell_angle_beta   90.00000000
_cell_angle_gamma   90.00000000
_symmetry_Int_Tables_number   1
_chemical_formula_structural   CsAcEuCl6
_chemical_formula_sum   'Cs1 Ac1 Eu1 Cl6'
_cell_volume   374.75847368
_cell_formula_units_Z   1
loop_
 _symmetry_equiv_pos_site_id
 _symmetry_equiv_pos_as_xyz
  1  'x, y, z'
loop_
 _atom_site_type_symbol
 _atom_site_label
 _atom_site_symmetry_multiplicity
 _atom_site_fract_x
 _atom_site_fract_y
 _atom_site_fract_z
 _atom_site_occupancy
  Eu  Eu0  1  0.49999998  0.66666665  0.33333331  1
  Ac  Ac1  1  0.49999998  0.33333332  0.66666667  1
  Cs  Cs2  1  0.00000000  0.00000000  0.00000000  1
  Cl  Cl3  1  0.99999997  0.99999997  0.59722096  1
  Cl  Cl4  1  0.49999998  0.99999997  0.25094096  1
  Cl  Cl5  1  0.00000000  0.59722098  1.00000000  1
  Cl  Cl6  1  0.49999998  0.74905898  0.74905898  1
  Cl  Cl7  1  0.49999998  0.25094099  -0.00000001  1
  Cl  Cl8  1  0.00000000  0.40277899  0.40277899  1
