# generated using pymatgen
data_Cu7S10O
_symmetry_space_group_name_H-M   'P 1'
_cell_length_a   5.71472406
_cell_length_b   7.19006014
_cell_length_c   8.29263592
_cell_angle_alpha   105.80137634
_cell_angle_beta   95.51586914
_cell_angle_gamma   110.34437561
_symmetry_Int_Tables_number   1
_chemical_formula_structural   Cu7S10O
_chemical_formula_sum   'Cu7 S10 O1'
_cell_volume   300.45722024
_cell_formula_units_Z   1
loop_
 _symmetry_equiv_pos_site_id
 _symmetry_equiv_pos_as_xyz
  1  'x, y, z'
loop_
 _atom_site_type_symbol
 _atom_site_label
 _atom_site_symmetry_multiplicity
 _atom_site_fract_x
 _atom_site_fract_y
 _atom_site_fract_z
 _atom_site_occupancy
  Cu  Cu0  1  0.68013900  0.10959700  0.17655500  1
  Cu  Cu1  1  0.92581400  0.12115600  0.64168799  1
  Cu  Cu2  1  0.32152698  0.46347500  0.02538201  1
  Cu  Cu3  1  0.01927595  0.82349599  0.87232399  1
  Cu  Cu4  1  0.01213296  0.74977999  0.33611201  1
  Cu  Cu5  1  0.39650398  0.41942800  0.50575700  1
  S  S6  1  0.33190696  0.72863399  0.05561401  1
  Cu  Cu7  1  0.17243998  0.42433900  0.20634500  1
  S  S8  1  0.99999599  0.34244800  0.86986199  1
  S  S9  1  0.87148196  0.84329199  0.05781202  1
  S  S10  1  0.29309300  0.07580400  0.94297398  1
  S  S11  1  0.78145895  0.89780399  0.74968300  1
  S  S12  1  0.80937595  0.91006099  0.40547301  1
  S  S13  1  0.72087598  0.50760899  0.26309401  1
  S  S14  1  0.14856296  0.76021699  0.54647400  1
  S  S15  1  0.04750998  0.34100500  0.52655499  1
  S  S16  1  0.53888798  0.45941900  0.72581499  1
  O  O17  1  0.39345699  0.16248700  0.39474200  1
