# generated using pymatgen
data_MgBeSiP
_symmetry_space_group_name_H-M   'P 1'
_cell_length_a   4.33422804
_cell_length_b   4.33422756
_cell_length_c   5.26255178
_cell_angle_alpha   90.00000000
_cell_angle_beta   90.00000000
_cell_angle_gamma   120.00000000
_symmetry_Int_Tables_number   1
_chemical_formula_structural   MgBeSiP
_chemical_formula_sum   'Mg1 Be1 Si1 P1'
_cell_volume   85.61512222
_cell_formula_units_Z   1
loop_
 _symmetry_equiv_pos_site_id
 _symmetry_equiv_pos_as_xyz
  1  'x, y, z'
loop_
 _atom_site_type_symbol
 _atom_site_label
 _atom_site_symmetry_multiplicity
 _atom_site_fract_x
 _atom_site_fract_y
 _atom_site_fract_z
 _atom_site_occupancy
  Mg  Mg0  1  0.00000000  0.00000000  0.00043600  1
  Be  Be1  1  0.33333328  0.66666664  0.46524802  1
  Si  Si2  1  0.66666664  0.33333332  0.54230702  1
  P  P3  1  0.33333328  0.66666664  0.13491001  1
