# generated using pymatgen
data_CuF3
_symmetry_space_group_name_H-M   'P 1'
_cell_length_a   5.28175402
_cell_length_b   5.28175402
_cell_length_c   5.79143906
_cell_angle_alpha   62.87092209
_cell_angle_beta   62.87092209
_cell_angle_gamma   60.00000000
_symmetry_Int_Tables_number   1
_chemical_formula_structural   CuF3
_chemical_formula_sum   'Cu2 F6'
_cell_volume   118.95134165
_cell_formula_units_Z   2
loop_
 _symmetry_equiv_pos_site_id
 _symmetry_equiv_pos_as_xyz
  1  'x, y, z'
loop_
 _atom_site_type_symbol
 _atom_site_label
 _atom_site_symmetry_multiplicity
 _atom_site_fract_x
 _atom_site_fract_y
 _atom_site_fract_z
 _atom_site_occupancy
  Cu  Cu0  1  0.00000000  0.00000000  0.00000000  1
  Cu  Cu1  1  0.50000001  0.50000000  0.50000000  1
  F  F2  1  0.11676001  0.42555800  0.73432602  1
  F  F3  1  0.42555801  0.72335600  0.73432600  1
  F  F4  1  0.27664401  0.88324000  0.26567398  1
  F  F5  1  0.57444201  0.27664400  0.26567399  1
  F  F6  1  0.88324001  0.57444200  0.26567398  1
  F  F7  1  0.72335601  0.11676000  0.73432601  1
