# generated using pymatgen
data_LiAl6HO10
_symmetry_space_group_name_H-M   'P 1'
_cell_length_a   5.84610510
_cell_length_b   5.84638405
_cell_length_c   7.81285667
_cell_angle_alpha   68.62049866
_cell_angle_beta   68.62449646
_cell_angle_gamma   69.32945251
_symmetry_Int_Tables_number   1
_chemical_formula_structural   LiAl6HO10
_chemical_formula_sum   'Li1 Al6 H1 O10'
_cell_volume   223.96704856
_cell_formula_units_Z   1
loop_
 _symmetry_equiv_pos_site_id
 _symmetry_equiv_pos_as_xyz
  1  'x, y, z'
loop_
 _atom_site_type_symbol
 _atom_site_label
 _atom_site_symmetry_multiplicity
 _atom_site_fract_x
 _atom_site_fract_y
 _atom_site_fract_z
 _atom_site_occupancy
  Li  Li0  1  0.50278999  0.49716199  0.50000601  1
  Al  Al1  1  0.00564001  0.49646999  0.99982800  1
  Al  Al2  1  0.50514301  0.99385499  0.99972400  1
  Al  Al3  1  0.91731799  0.90992499  0.29527400  1
  Al  Al4  1  0.09011700  0.08283400  0.70470101  1
  Al  Al5  1  0.50567599  0.49207299  0.00079700  1
  H  H6  1  0.33078999  0.31858400  0.22014100  1
  Al  Al7  1  0.68147999  0.66928199  0.78001001  1
  O  O8  1  0.24567800  0.23985200  0.47346801  1
  O  O9  1  0.76013899  0.75416299  0.52629001  1
  O  O10  1  0.17744800  0.16907300  0.87344802  1
  O  O11  1  0.83102399  0.82257699  0.12648700  1
  O  O12  1  0.36456799  0.35200400  0.08032300  1
  O  O13  1  0.64828799  0.63577299  0.91970701  1
  O  O14  1  0.75158197  0.18162700  0.73673703  1
  O  O15  1  0.81849797  0.24840300  0.26316902  1
  O  O16  1  0.19003301  0.74437499  0.73640000  1
  O  O17  1  0.25578901  0.80996699  0.26348899  1
