# generated using pymatgen
data_NdFeO3
_symmetry_space_group_name_H-M   'P 1'
_cell_length_a   5.60080481
_cell_length_b   5.66192389
_cell_length_c   7.94467115
_cell_angle_alpha   90.00000000
_cell_angle_beta   90.00000000
_cell_angle_gamma   90.00000000
_symmetry_Int_Tables_number   1
_chemical_formula_structural   NdFeO3
_chemical_formula_sum   'Nd4 Fe4 O12'
_cell_volume   251.93609273
_cell_formula_units_Z   4
loop_
 _symmetry_equiv_pos_site_id
 _symmetry_equiv_pos_as_xyz
  1  'x, y, z'
loop_
 _atom_site_type_symbol
 _atom_site_label
 _atom_site_symmetry_multiplicity
 _atom_site_fract_x
 _atom_site_fract_y
 _atom_site_fract_z
 _atom_site_occupancy
  Nd  Nd0  1  0.00938100  0.96174102  0.74999999  1
  Nd  Nd1  1  0.50938102  0.53825901  0.25000000  1
  Nd  Nd2  1  0.49061902  0.46174101  0.74999999  1
  Nd  Nd3  1  0.99061903  0.03825900  0.25000000  1
  Fe  Fe4  1  0.50000002  0.00000000  0.49999999  1
  Fe  Fe5  1  -0.00000000  0.50000001  0.49999999  1
  Fe  Fe6  1  -0.00000000  0.50000001  0.00000000  1
  Fe  Fe7  1  0.50000002  0.00000000  0.00000000  1
  O  O8  1  0.71259402  0.28797501  0.45372499  1
  O  O9  1  0.21259401  0.21202500  0.54627499  1
  O  O10  1  0.78740603  0.78797502  0.04627500  1
  O  O11  1  0.28740601  0.71202501  0.95372498  1
  O  O12  1  0.28740601  0.71202501  0.54627499  1
  O  O13  1  0.78740603  0.78797502  0.45372499  1
  O  O14  1  0.21259401  0.21202500  0.95372498  1
  O  O15  1  0.71259402  0.28797501  0.04627500  1
  O  O16  1  0.08612000  0.47826501  0.25000000  1
  O  O17  1  0.58612002  0.02173500  0.74999999  1
  O  O18  1  0.41388001  0.97826502  0.25000000  1
  O  O19  1  0.91388003  0.52173501  0.74999999  1
