# generated using pymatgen
data_NaHo(WO4)2
_symmetry_space_group_name_H-M   'P 1'
_cell_length_a   5.05961180
_cell_length_b   5.05961180
_cell_length_c   6.64373207
_cell_angle_alpha   112.38205719
_cell_angle_beta   112.38205719
_cell_angle_gamma   90.00000000
_symmetry_Int_Tables_number   1
_chemical_formula_structural   NaHo(WO4)2
_chemical_formula_sum   'Na1 Ho1 W2 O8'
_cell_volume   143.31093337
_cell_formula_units_Z   1
loop_
 _symmetry_equiv_pos_site_id
 _symmetry_equiv_pos_as_xyz
  1  'x, y, z'
loop_
 _atom_site_type_symbol
 _atom_site_label
 _atom_site_symmetry_multiplicity
 _atom_site_fract_x
 _atom_site_fract_y
 _atom_site_fract_z
 _atom_site_occupancy
  Na  Na0  1  0.50000000  0.50000001  -0.00000003  1
  Ho  Ho1  1  0.24999998  0.75000002  0.49999997  1
  W  W2  1  0.00000000  0.00000000  0.00000000  1
  W  W3  1  0.75000001  0.25000001  0.49999997  1
  O  O4  1  0.93147501  0.33807601  0.16248096  1
  O  O5  1  0.08807599  0.48100601  0.66248098  1
  O  O6  1  0.57440501  0.18147500  0.66248098  1
  O  O7  1  0.23100598  0.82440502  0.16248096  1
  O  O8  1  0.51899400  0.42559501  0.33751897  1
  O  O9  1  0.17559500  0.06852500  0.83751900  1
  O  O10  1  0.66192399  0.76899402  0.83751896  1
  O  O11  1  0.81852499  0.91192402  0.33751894  1
