# generated using pymatgen
data_Na2La2Ta2(O3F)3
_symmetry_space_group_name_H-M   'P 1'
_cell_length_a   3.85529590
_cell_length_b   8.34198093
_cell_length_c   8.46341038
_cell_angle_alpha   101.39399719
_cell_angle_beta   103.16538239
_cell_angle_gamma   90.00000000
_symmetry_Int_Tables_number   1
_chemical_formula_structural   Na2La2Ta2(O3F)3
_chemical_formula_sum   'Na2 La2 Ta2 O9 F3'
_cell_volume   259.52384611
_cell_formula_units_Z   1
loop_
 _symmetry_equiv_pos_site_id
 _symmetry_equiv_pos_as_xyz
  1  'x, y, z'
loop_
 _atom_site_type_symbol
 _atom_site_label
 _atom_site_symmetry_multiplicity
 _atom_site_fract_x
 _atom_site_fract_y
 _atom_site_fract_z
 _atom_site_occupancy
  Na  Na0  1  0.68099103  0.60540397  0.36198201  1
  Na  Na1  1  0.31900902  0.39459598  0.63801800  1
  La  La2  1  0.33251203  0.92860095  0.66502400  1
  La  La3  1  0.66748803  0.07139900  0.33497601  1
  Ta  Ta4  1  0.00397001  0.70279196  0.00793999  1
  Ta  Ta5  1  0.99603004  0.29720799  0.99206001  1
  O  O6  1  0.75111504  0.88035896  0.50223000  1
  F  F7  1  0.73243303  0.36553998  0.46486601  1
  O  O8  1  0.92148404  0.48517298  0.84296801  1
  O  O9  1  0.26756702  0.63445997  0.53513400  1
  O  O10  1  0.07353401  0.17211099  0.14706800  1
  O  O11  1  0.89249103  0.15336999  0.78498201  1
  O  O12  1  0.07851601  0.51482697  0.15703200  1
  O  O13  1  0.10750902  0.84662996  0.21501799  1
  O  O14  1  0.24888501  0.11964099  0.49777000  1
  O  O15  1  0.92646605  0.82788896  0.85293201  1
  F  F16  1  0.50603703  0.68612097  0.01207400  1
  F  F17  1  0.49396302  0.31387898  0.98792600  1
