# generated using pymatgen
data_Na2Cu3Se4
_symmetry_space_group_name_H-M   'P 1'
_cell_length_a   6.39664888
_cell_length_b   6.39664888
_cell_length_c   7.41476011
_cell_angle_alpha   102.89717865
_cell_angle_beta   102.89717865
_cell_angle_gamma   118.85173798
_symmetry_Int_Tables_number   1
_chemical_formula_structural   Na2Cu3Se4
_chemical_formula_sum   'Na2 Cu3 Se4'
_cell_volume   238.78058696
_cell_formula_units_Z   1
loop_
 _symmetry_equiv_pos_site_id
 _symmetry_equiv_pos_as_xyz
  1  'x, y, z'
loop_
 _atom_site_type_symbol
 _atom_site_label
 _atom_site_symmetry_multiplicity
 _atom_site_fract_x
 _atom_site_fract_y
 _atom_site_fract_z
 _atom_site_occupancy
  Na  Na0  1  0.34861303  0.34861302  0.69722603  1
  Na  Na1  1  0.65138706  0.65138703  0.30277408  1
  Cu  Cu2  1  0.00000005  0.50000002  0.00000004  1
  Cu  Cu3  1  0.50000009  1.00000005  0.00000010  1
  Cu  Cu4  1  0.00000000  0.00000000  0.00000000  1
  Se  Se5  1  0.05722307  0.72096504  0.77818804  1
  Se  Se6  1  0.94277702  0.27903501  0.22181206  1
  Se  Se7  1  0.27903508  0.94277705  0.22181208  1
  Se  Se8  1  0.72096500  0.05722300  0.77818803  1
