# generated using pymatgen
data_PrCrO4
_symmetry_space_group_name_H-M   'P 1'
_cell_length_a   6.26770830
_cell_length_b   6.26770878
_cell_length_c   6.26770878
_cell_angle_alpha   106.09115601
_cell_angle_beta   106.09115601
_cell_angle_gamma   116.46603394
_symmetry_Int_Tables_number   1
_chemical_formula_structural   PrCrO4
_chemical_formula_sum   'Pr2 Cr2 O8'
_cell_volume   187.39804017
_cell_formula_units_Z   2
loop_
 _symmetry_equiv_pos_site_id
 _symmetry_equiv_pos_as_xyz
  1  'x, y, z'
loop_
 _atom_site_type_symbol
 _atom_site_label
 _atom_site_symmetry_multiplicity
 _atom_site_fract_x
 _atom_site_fract_y
 _atom_site_fract_z
 _atom_site_occupancy
  Pr  Pr0  1  0.00000000  0.00000000  0.00000000  1
  Pr  Pr1  1  0.74999999  0.24999997  0.49999994  1
  Cr  Cr2  1  0.24999992  0.74999991  0.49999991  1
  Cr  Cr3  1  0.49999996  0.49999994  0.99999991  1
  O  O4  1  0.66901892  0.84702690  0.17800790  1
  O  O5  1  0.59702591  0.91901790  0.67800688  1
  O  O6  1  0.24101090  0.91901890  0.32199191  1
  O  O7  1  0.66901896  0.49101094  0.82199291  1
  O  O8  1  0.15297397  0.33098196  0.82199294  1
  O  O9  1  0.08098095  0.40297295  0.32199195  1
  O  O10  1  0.08098091  0.75898891  0.67800691  1
  O  O11  1  0.50898898  0.33098096  0.17800795  1
