# generated using pymatgen
data_K2FeF4
_symmetry_space_group_name_H-M   'P 1'
_cell_length_a   3.92773795
_cell_length_b   3.92773795
_cell_length_c   6.92292881
_cell_angle_alpha   106.47972870
_cell_angle_beta   106.47972870
_cell_angle_gamma   90.00000000
_symmetry_Int_Tables_number   1
_chemical_formula_structural   K2FeF4
_chemical_formula_sum   'K2 Fe1 F4'
_cell_volume   97.82960131
_cell_formula_units_Z   1
loop_
 _symmetry_equiv_pos_site_id
 _symmetry_equiv_pos_as_xyz
  1  'x, y, z'
loop_
 _atom_site_type_symbol
 _atom_site_label
 _atom_site_symmetry_multiplicity
 _atom_site_fract_x
 _atom_site_fract_y
 _atom_site_fract_z
 _atom_site_occupancy
  K  K0  1  0.64528904  0.64528902  0.29057805  1
  K  K1  1  0.35471102  0.35471101  0.70942202  1
  Fe  Fe2  1  0.00000000  0.00000000  0.00000000  1
  F  F3  1  0.84177506  0.84177503  0.68355006  1
  F  F4  1  0.15822501  0.15822501  0.31645001  1
  F  F5  1  0.50000005  1.00000003  1.00000005  1
  F  F6  1  0.00000002  0.50000002  0.00000002  1
