# generated using pymatgen
data_NdWO4
_symmetry_space_group_name_H-M   'P 1'
_cell_length_a   6.18408918
_cell_length_b   6.18408918
_cell_length_c   6.18408918
_cell_angle_alpha   106.05086517
_cell_angle_beta   106.05086517
_cell_angle_gamma   116.55256653
_symmetry_Int_Tables_number   1
_chemical_formula_structural   NdWO4
_chemical_formula_sum   'Nd2 W2 O8'
_cell_volume   179.94576148
_cell_formula_units_Z   2
loop_
 _symmetry_equiv_pos_site_id
 _symmetry_equiv_pos_as_xyz
  1  'x, y, z'
loop_
 _atom_site_type_symbol
 _atom_site_label
 _atom_site_symmetry_multiplicity
 _atom_site_fract_x
 _atom_site_fract_y
 _atom_site_fract_z
 _atom_site_occupancy
  Nd  Nd0  1  0.24999993  0.74999994  0.49999994  1
  Nd  Nd1  1  0.49999995  0.49999996  -0.00000003  1
  W  W2  1  0.00000000  0.00000000  0.00000000  1
  W  W3  1  0.74999996  0.24999998  0.49999996  1
  O  O4  1  0.17133792  0.99114792  0.81980992  1
  O  O5  1  0.17133797  0.35152797  0.18018997  1
  O  O6  1  0.64847192  0.82866194  0.81980992  1
  O  O7  1  0.57866191  0.89847193  0.31980994  1
  O  O8  1  0.57866196  0.25885198  0.68018996  1
  O  O9  1  0.00885194  0.82866194  0.18018995  1
  O  O10  1  0.74114794  0.42133797  0.31980996  1
  O  O11  1  0.10152796  0.42133797  0.68018996  1
