# generated using pymatgen
data_Li4AlZn(SiO4)2
_symmetry_space_group_name_H-M   'P 1'
_cell_length_a   5.08226109
_cell_length_b   5.46863222
_cell_length_c   6.65077019
_cell_angle_alpha   90.00000000
_cell_angle_beta   90.00000000
_cell_angle_gamma   90.00000000
_symmetry_Int_Tables_number   1
_chemical_formula_structural   Li4AlZn(SiO4)2
_chemical_formula_sum   'Li4 Al1 Zn1 Si2 O8'
_cell_volume   184.84496708
_cell_formula_units_Z   1
loop_
 _symmetry_equiv_pos_site_id
 _symmetry_equiv_pos_as_xyz
  1  'x, y, z'
loop_
 _atom_site_type_symbol
 _atom_site_label
 _atom_site_symmetry_multiplicity
 _atom_site_fract_x
 _atom_site_fract_y
 _atom_site_fract_z
 _atom_site_occupancy
  Li  Li0  1  0.99165998  0.58232898  0.87710798  1
  Li  Li1  1  0.49165999  0.41767098  0.12289200  1
  Li  Li2  1  0.49165999  0.91767096  0.37710799  1
  Li  Li3  1  0.99165998  0.08232900  0.62289198  1
  Al  Al4  1  0.00459400  0.57392398  0.37470999  1
  Zn  Zn5  1  0.50459399  0.42607598  0.62528998  1
  Si  Si6  1  0.50459399  0.92607596  0.87470998  1
  Si  Si7  1  0.00459400  0.07392400  0.12529000  1
  O  O8  1  0.35756799  0.55379398  0.40070899  1
  O  O9  1  0.85756799  0.44620598  0.59929098  1
  O  O10  1  0.85756799  0.94620596  0.90070897  1
  O  O11  1  0.35756799  0.05379400  0.09929100  1
  O  O12  1  0.41617699  0.60551298  0.84547698  1
  O  O13  1  0.91617698  0.39448698  0.15452300  1
  O  O14  1  0.91617698  0.89448696  0.34547699  1
  O  O15  1  0.41617699  0.10551300  0.65452298  1
