# generated using pymatgen
data_TiBe3(SiO3)2
_symmetry_space_group_name_H-M   'P 1'
_cell_length_a   4.71962214
_cell_length_b   5.44000006
_cell_length_c   5.45951271
_cell_angle_alpha   60.11816025
_cell_angle_beta   90.00000000
_cell_angle_gamma   90.00000000
_symmetry_Int_Tables_number   1
_chemical_formula_structural   TiBe3(SiO3)2
_chemical_formula_sum   'Ti1 Be3 Si2 O6'
_cell_volume   121.53644079
_cell_formula_units_Z   1
loop_
 _symmetry_equiv_pos_site_id
 _symmetry_equiv_pos_as_xyz
  1  'x, y, z'
loop_
 _atom_site_type_symbol
 _atom_site_label
 _atom_site_symmetry_multiplicity
 _atom_site_fract_x
 _atom_site_fract_y
 _atom_site_fract_z
 _atom_site_occupancy
  Ti  Ti0  1  0.00570100  0.17046500  0.34753400  1
  Be  Be1  1  0.50570099  0.82953498  0.65246602  1
  Be  Be2  1  0.50570099  0.48200099  0.34753401  1
  Be  Be3  1  0.00570100  0.51799899  0.65246700  1
  Si  Si4  1  0.50046299  0.17172300  0.99999999  1
  Si  Si5  1  0.00046300  0.82827698  1.00000001  1
  O  O6  1  0.85458498  0.11478600  0.00000000  1
  O  O7  1  0.41917399  0.45457399  0.70964700  1
  O  O8  1  0.41917399  0.16422100  0.29035300  1
  O  O9  1  0.35458499  0.88521398  1.00000001  1
  O  O10  1  0.91917397  0.83577898  0.70964701  1
  O  O11  1  0.91917397  0.54542598  0.29035301  1
