# generated using pymatgen
data_H2
_symmetry_space_group_name_H-M   'P 1'
_cell_length_a   3.74869943
_cell_length_b   6.09519625
_cell_length_c   6.09519625
_cell_angle_alpha   91.93083954
_cell_angle_beta   92.39438629
_cell_angle_gamma   92.39438629
_symmetry_Int_Tables_number   1
_chemical_formula_structural   H2
_chemical_formula_sum   H11
_cell_volume   138.93878434
_cell_formula_units_Z   5
loop_
 _symmetry_equiv_pos_site_id
 _symmetry_equiv_pos_as_xyz
  1  'x, y, z'
loop_
 _atom_site_type_symbol
 _atom_site_label
 _atom_site_symmetry_multiplicity
 _atom_site_fract_x
 _atom_site_fract_y
 _atom_site_fract_z
 _atom_site_occupancy
  H  H0  1  0.99999989  0.99874299  0.00125696  1
  H  H1  1  0.20167398  0.20336000  0.39323199  1
  H  H2  1  0.79832593  0.60676800  0.79663997  1
  H  H3  1  0.79871496  0.27629400  0.33438597  1
  H  H4  1  0.86498891  0.78004499  0.59910697  1
  H  H5  1  0.20128493  0.66561400  0.72370599  1
  H  H6  1  0.13501096  0.40089300  0.21995499  1
  H  H7  1  0.96247791  0.73441799  0.75005796  1
  H  H8  1  0.03752198  0.24994200  0.26558200  1
  H  H9  1  0.49999997  0.19931200  0.80068798  1
  H  H10  1  0.49999992  0.79461099  0.20538898  1
