# generated using pymatgen
data_ThTi(CO3)2
_symmetry_space_group_name_H-M   'P 1'
_cell_length_a   5.17011690
_cell_length_b   5.17011690
_cell_length_c   6.43670225
_cell_angle_alpha   66.32099152
_cell_angle_beta   66.32099152
_cell_angle_gamma   59.99998474
_symmetry_Int_Tables_number   1
_chemical_formula_structural   ThTi(CO3)2
_chemical_formula_sum   'Th1 Ti1 C2 O6'
_cell_volume   132.01214927
_cell_formula_units_Z   1
loop_
 _symmetry_equiv_pos_site_id
 _symmetry_equiv_pos_as_xyz
  1  'x, y, z'
loop_
 _atom_site_type_symbol
 _atom_site_label
 _atom_site_symmetry_multiplicity
 _atom_site_fract_x
 _atom_site_fract_y
 _atom_site_fract_z
 _atom_site_occupancy
  Th  Th0  1  0.49999997  0.50000002  0.50000005  1
  Ti  Ti1  1  0.00000000  0.00000000  0.00000000  1
  C  C2  1  0.74999996  0.75000003  0.75000008  1
  C  C3  1  0.24999999  0.25000001  0.25000003  1
  O  O4  1  0.74999998  0.50226702  0.75000006  1
  O  O5  1  0.99773296  0.75000003  0.75000009  1
  O  O6  1  0.49773301  0.00226700  0.25000002  1
  O  O7  1  0.24999997  0.49773302  0.25000004  1
  O  O8  1  0.00226698  0.25000001  0.25000002  1
  O  O9  1  0.50226694  0.99773304  0.75000008  1
