# generated using pymatgen
data_Na3TbSnO7
_symmetry_space_group_name_H-M   'P 1'
_cell_length_a   5.35300636
_cell_length_b   5.65611649
_cell_length_c   6.78680754
_cell_angle_alpha   112.00033569
_cell_angle_beta   110.48107910
_cell_angle_gamma   96.12631989
_symmetry_Int_Tables_number   1
_chemical_formula_structural   Na3TbSnO7
_chemical_formula_sum   'Na3 Tb1 Sn1 O7'
_cell_volume   171.66001386
_cell_formula_units_Z   1
loop_
 _symmetry_equiv_pos_site_id
 _symmetry_equiv_pos_as_xyz
  1  'x, y, z'
loop_
 _atom_site_type_symbol
 _atom_site_label
 _atom_site_symmetry_multiplicity
 _atom_site_fract_x
 _atom_site_fract_y
 _atom_site_fract_z
 _atom_site_occupancy
  Na  Na0  1  0.38718200  0.13718200  0.27436400  1
  Na  Na1  1  0.61281801  0.86281801  0.72563601  1
  Na  Na2  1  0.15089601  0.40089601  0.80179199  1
  Tb  Tb3  1  0.84910400  0.59910401  0.19820802  1
  O  O4  1  0.71388800  0.54888901  0.43652301  1
  Sn  Sn5  1  0.98318400  0.71647101  0.94779601  1
  O  O6  1  0.46461200  0.23132500  0.94779599  1
  O  O7  1  0.77736499  0.11236600  0.56347701  1
  O  O8  1  0.22263502  0.88763401  0.43652300  1
  O  O9  1  0.53538801  0.76867501  0.05220402  1
  O  O10  1  0.01681601  0.28352900  0.05220400  1
  O  O11  1  0.28611201  0.45111101  0.56347700  1
