# generated using pymatgen
data_Rb4In(HgBr4)3
_symmetry_space_group_name_H-M   'P 1'
_cell_length_a   7.30816317
_cell_length_b   8.29750824
_cell_length_c   14.13581467
_cell_angle_alpha   90.00000000
_cell_angle_beta   90.00000000
_cell_angle_gamma   104.35536957
_symmetry_Int_Tables_number   1
_chemical_formula_structural   Rb4In(HgBr4)3
_chemical_formula_sum   'Rb4 In1 Hg3 Br12'
_cell_volume   830.42497661
_cell_formula_units_Z   1
loop_
 _symmetry_equiv_pos_site_id
 _symmetry_equiv_pos_as_xyz
  1  'x, y, z'
loop_
 _atom_site_type_symbol
 _atom_site_label
 _atom_site_symmetry_multiplicity
 _atom_site_fract_x
 _atom_site_fract_y
 _atom_site_fract_z
 _atom_site_occupancy
  Rb  Rb0  1  0.21000795  0.74453803  0.41996901  1
  Rb  Rb1  1  0.28999198  0.25546201  0.91996902  1
  Rb  Rb2  1  0.78999197  0.25546201  0.58003101  1
  Rb  Rb3  1  0.71000794  0.74453803  0.08003100  1
  In  In4  1  0.15114699  0.17919801  0.27310901  1
  Hg  Hg5  1  0.34885294  0.82080203  0.77310902  1
  Hg  Hg6  1  0.84885293  0.82080203  0.72689102  1
  Hg  Hg7  1  0.65114697  0.17919801  0.22689101  1
  Br  Br8  1  0.64791696  0.45561402  0.32062601  1
  Br  Br9  1  0.85208295  0.54438602  0.82062602  1
  Br  Br10  1  0.35208296  0.54438602  0.67937402  1
  Br  Br11  1  0.14791697  0.45561402  0.17937400  1
  Br  Br12  1  0.32359993  0.99576204  0.16900800  1
  Br  Br13  1  0.17640000  0.00423800  0.66900802  1
  Br  Br14  1  0.67639998  0.00423800  0.83099202  1
  Br  Br15  1  0.82359992  0.99576204  0.33099201  1
  Br  Br16  1  0.34469098  0.28123901  0.42918101  1
  Br  Br17  1  0.15530895  0.71876103  0.92918102  1
  Br  Br18  1  0.65530894  0.71876103  0.57081901  1
  Br  Br19  1  0.84469096  0.28123901  0.07081900  1
