# generated using pymatgen
data_RbNbTl2As3Au2
_symmetry_space_group_name_H-M   'P 1'
_cell_length_a   6.23791122
_cell_length_b   7.79165792
_cell_length_c   7.79165840
_cell_angle_alpha   60.00000000
_cell_angle_beta   90.00000000
_cell_angle_gamma   90.00000000
_symmetry_Int_Tables_number   1
_chemical_formula_structural   RbNbTl2As3Au2
_chemical_formula_sum   'Rb1 Nb1 Tl2 As3 Au2'
_cell_volume   327.96658910
_cell_formula_units_Z   1
loop_
 _symmetry_equiv_pos_site_id
 _symmetry_equiv_pos_as_xyz
  1  'x, y, z'
loop_
 _atom_site_type_symbol
 _atom_site_label
 _atom_site_symmetry_multiplicity
 _atom_site_fract_x
 _atom_site_fract_y
 _atom_site_fract_z
 _atom_site_occupancy
  Tl  Tl0  1  0.73949197  0.66666668  0.66666664  1
  Rb  Rb1  1  0.26050799  0.33333334  0.33333332  1
  Nb  Nb2  1  0.00000000  0.00000000  0.00000000  1
  Tl  Tl3  1  0.23677399  0.83305202  0.33389598  1
  As  As4  1  0.23677399  0.33389701  0.83305097  1
  As  As5  1  0.23677399  0.83305202  0.83305096  1
  As  As6  1  0.76322597  0.16694800  0.66610398  1
  Au  Au7  1  0.76322597  0.66610301  0.16694898  1
  Au  Au8  1  0.76322597  0.16694800  0.16694899  1
