# generated using pymatgen
data_Li3Ca2Mn2Co3O8
_symmetry_space_group_name_H-M   'P 1'
_cell_length_a   5.51065588
_cell_length_b   6.53044415
_cell_length_c   7.42831516
_cell_angle_alpha   106.06380463
_cell_angle_beta   108.56219482
_cell_angle_gamma   90.21269989
_symmetry_Int_Tables_number   1
_chemical_formula_structural   Li3Ca2Mn2Co3O8
_chemical_formula_sum   'Li3 Ca2 Mn2 Co3 O8'
_cell_volume   242.28205723
_cell_formula_units_Z   1
loop_
 _symmetry_equiv_pos_site_id
 _symmetry_equiv_pos_as_xyz
  1  'x, y, z'
loop_
 _atom_site_type_symbol
 _atom_site_label
 _atom_site_symmetry_multiplicity
 _atom_site_fract_x
 _atom_site_fract_y
 _atom_site_fract_z
 _atom_site_occupancy
  Li  Li0  1  0.27173802  0.41585100  0.38538101  1
  Li  Li1  1  0.56186703  0.16063000  0.72172000  1
  Li  Li2  1  0.76329705  0.60658699  0.04294005  1
  Ca  Ca3  1  0.00000000  0.00000000  0.49999999  1
  Ca  Ca4  1  0.23670302  0.39341300  0.95705999  1
  Mn  Mn5  1  0.43813304  0.83936999  0.27828004  1
  Mn  Mn6  1  0.72826204  0.58414899  0.61461903  1
  Co  Co7  1  0.72669403  0.24138700  0.23327903  1
  Co  Co8  1  0.00000000  0.00000000  0.00000000  1
  Co  Co9  1  0.27330603  0.75861299  0.76672101  1
  O  O10  1  0.60158604  0.50315099  0.26025803  1
  O  O11  1  0.62330403  0.19091800  0.43010902  1
  O  O12  1  0.89455104  0.27572800  0.05305504  1
  O  O13  1  0.84865306  0.97065399  0.18127306  1
  O  O14  1  0.15134701  0.02934600  0.81872698  1
  O  O15  1  0.10544903  0.72427199  0.94694500  1
  O  O16  1  0.37669604  0.80908199  0.56989102  1
  O  O17  1  0.39841403  0.49684899  0.73974201  1
