# generated using pymatgen
data_YTh(AgSe2)2
_symmetry_space_group_name_H-M   'P 1'
_cell_length_a   4.74553680
_cell_length_b   7.12686586
_cell_length_c   7.12686586
_cell_angle_alpha   90.00000000
_cell_angle_beta   90.00000000
_cell_angle_gamma   90.00000000
_symmetry_Int_Tables_number   1
_chemical_formula_structural   YTh(AgSe2)2
_chemical_formula_sum   'Y1 Th1 Ag2 Se4'
_cell_volume   241.03633533
_cell_formula_units_Z   1
loop_
 _symmetry_equiv_pos_site_id
 _symmetry_equiv_pos_as_xyz
  1  'x, y, z'
loop_
 _atom_site_type_symbol
 _atom_site_label
 _atom_site_symmetry_multiplicity
 _atom_site_fract_x
 _atom_site_fract_y
 _atom_site_fract_z
 _atom_site_occupancy
  Th  Th0  1  0.80503203  0.00000000  0.50000001  1
  Y  Y1  1  0.19496801  0.50000001  0.00000000  1
  Ag  Ag2  1  0.00000000  0.00000000  0.00000000  1
  Ag  Ag3  1  -0.00000000  0.50000001  0.50000001  1
  Se  Se4  1  0.28833001  0.79862102  0.70137901  1
  Se  Se5  1  0.71167003  0.29862101  0.79862102  1
  Se  Se6  1  0.71167003  0.70137901  0.20137900  1
  Se  Se7  1  0.28833001  0.20137900  0.29862101  1
