# generated using pymatgen
data_Sr2TmWO6
_symmetry_space_group_name_H-M   'P 1'
_cell_length_a   5.85681820
_cell_length_b   5.92652559
_cell_length_c   5.85681820
_cell_angle_alpha   60.38832474
_cell_angle_beta   90.00000000
_cell_angle_gamma   119.61167145
_symmetry_Int_Tables_number   1
_chemical_formula_structural   Sr2TmWO6
_chemical_formula_sum   'Sr2 Tm1 W1 O6'
_cell_volume   145.42139643
_cell_formula_units_Z   1
loop_
 _symmetry_equiv_pos_site_id
 _symmetry_equiv_pos_as_xyz
  1  'x, y, z'
loop_
 _atom_site_type_symbol
 _atom_site_label
 _atom_site_symmetry_multiplicity
 _atom_site_fract_x
 _atom_site_fract_y
 _atom_site_fract_z
 _atom_site_occupancy
  Sr  Sr0  1  0.24999996  0.49999998  0.24999999  1
  Sr  Sr1  1  0.74999994  0.49999998  0.74999998  1
  Tm  Tm2  1  0.00000000  0.00000000  0.00000000  1
  W  W3  1  0.49999998  0.00000000  0.49999998  1
  O  O4  1  0.26363996  0.52727998  0.73635998  1
  O  O5  1  0.73635995  0.47271998  0.26363999  1
  O  O6  1  0.79573491  0.99999996  0.67373898  1
  O  O7  1  0.20426499  0.00000000  0.32626099  1
  O  O8  1  0.67373892  0.99999996  0.20426500  1
  O  O9  1  0.32626093  0.99999996  0.79573498  1
