# generated using pymatgen
data_Li3Ti3(MoO6)2
_symmetry_space_group_name_H-M   'P 1'
_cell_length_a   5.95194101
_cell_length_b   5.95194101
_cell_length_c   5.95194149
_cell_angle_alpha   91.24340057
_cell_angle_beta   91.24340057
_cell_angle_gamma   91.24340057
_symmetry_Int_Tables_number   1
_chemical_formula_structural   Li3Ti3(MoO6)2
_chemical_formula_sum   'Li3 Ti3 Mo2 O12'
_cell_volume   210.69997287
_cell_formula_units_Z   1
loop_
 _symmetry_equiv_pos_site_id
 _symmetry_equiv_pos_as_xyz
  1  'x, y, z'
loop_
 _atom_site_type_symbol
 _atom_site_label
 _atom_site_symmetry_multiplicity
 _atom_site_fract_x
 _atom_site_fract_y
 _atom_site_fract_z
 _atom_site_occupancy
  Li  Li0  1  0.93179700  0.75098098  0.44175702  1
  Li  Li1  1  0.75098100  0.44175699  0.93179702  1
  Ti  Ti2  1  0.55824299  0.06820300  0.24901901  1
  Li  Li3  1  0.44175702  0.93179698  0.75098102  1
  Ti  Ti4  1  0.24901901  0.55824299  0.06820301  1
  Ti  Ti5  1  0.06820301  0.24901899  0.55824300  1
  Mo  Mo6  1  0.00000000  0.00000000  0.00000000  1
  Mo  Mo7  1  0.50000000  0.49999999  0.50000001  1
  O  O8  1  0.92737198  0.07487800  0.30507301  1
  O  O9  1  0.92512200  0.69492699  0.07262802  1
  O  O10  1  0.80516699  0.45329499  0.59563402  1
  O  O11  1  0.69492699  0.07262800  0.92512201  1
  O  O12  1  0.59563401  0.80516698  0.45329502  1
  O  O13  1  0.54670500  0.40436599  0.19483301  1
  O  O14  1  0.45329501  0.59563399  0.80516701  1
  O  O15  1  0.40436600  0.19483300  0.54670501  1
  O  O16  1  0.30507302  0.92737198  0.07487802  1
  O  O17  1  0.19483301  0.54670499  0.40436601  1
  O  O18  1  0.07487801  0.30507299  0.92737201  1
  O  O19  1  0.07262802  0.92512198  0.69492701  1
