# generated using pymatgen
data_AgSO6
_symmetry_space_group_name_H-M   'P 1'
_cell_length_a   5.05228806
_cell_length_b   5.33565569
_cell_length_c   5.83134985
_cell_angle_alpha   89.99996948
_cell_angle_beta   90.00000000
_cell_angle_gamma   118.24243164
_symmetry_Int_Tables_number   1
_chemical_formula_structural   AgSO6
_chemical_formula_sum   'Ag1 S1 O6'
_cell_volume   138.48344586
_cell_formula_units_Z   1
loop_
 _symmetry_equiv_pos_site_id
 _symmetry_equiv_pos_as_xyz
  1  'x, y, z'
loop_
 _atom_site_type_symbol
 _atom_site_label
 _atom_site_symmetry_multiplicity
 _atom_site_fract_x
 _atom_site_fract_y
 _atom_site_fract_z
 _atom_site_occupancy
  Ag  Ag0  1  0.58039800  0.17719400  0.25000000  1
  S  S1  1  0.40327200  0.82276102  0.74999999  1
  O  O2  1  0.71290400  0.81305902  0.74999999  1
  O  O3  1  0.13360100  0.50557501  0.75000000  1
  O  O4  1  0.62779200  0.49447701  0.24999999  1
  O  O5  1  0.89962000  0.18687801  0.25000000  1
  O  O6  1  0.38020600  0.00002900  0.00000500  1
  O  O7  1  0.38020600  0.00002800  0.49999501  1
